#------------------------------------------------------------------------------
#$Date: 2020-06-05 12:42:00 +0300 (Fri, 05 Jun 2020) $
#$Revision: 252681 $
#$URL: file:///home/coder/svn-repositories/cod/cif/7/12/64/7126484.cif $
#------------------------------------------------------------------------------
#
# This file is available in the Crystallography Open Database (COD),
# http://www.crystallography.net/
#
# All data on this site have been placed in the public domain by the
# contributors.
#
data_7126484
loop_
_publ_author_name
'Chen, Jing'
'Chao, Meng-Yao'
'Yan Liu, ?'
'Xu, Bo-Wei'
'Zhang, Wen-Hua'
'Young, David J.'
_publ_section_title
;
 An N,N'-diethylformamide solvent-induced conversion cascade within a
 metal-organic framework single crystal.
;
_journal_issue                   44
_journal_name_full
'Chemical communications (Cambridge, England)'
_journal_page_first              5877
_journal_page_last               5880
_journal_paper_doi               10.1039/d0cc02420a
_journal_volume                  56
_journal_year                    2020
_chemical_formula_sum            'C89 H73 Cd3 Cl3 N6 O14'
_chemical_formula_weight         1894.08
_space_group_crystal_system      triclinic
_space_group_IT_number           2
_space_group_name_Hall           '-P 1'
_space_group_name_H-M_alt        'P -1'
_atom_sites_solution_hydrogens   geom
_audit_creation_method           SHELXL-2016/6
_audit_update_record
;
2020-01-17 deposited with the CCDC.	2020-04-28 downloaded from the CCDC.
;
_cell_angle_alpha                92.380(4)
_cell_angle_beta                 111.486(4)
_cell_angle_gamma                116.958(3)
_cell_formula_units_Z            2
_cell_length_a                   16.400(3)
_cell_length_b                   16.980(3)
_cell_length_c                   20.488(3)
_cell_measurement_reflns_used    9693
_cell_measurement_temperature    210(2)
_cell_measurement_theta_max      27.28
_cell_measurement_theta_min      2.21
_cell_volume                     4581.4(14)
_computing_cell_refinement       'Bruker D8 Quest'
_computing_data_collection       'Bruker D8 Quest'
_computing_data_reduction        'Bruker D8 Quest'
_computing_molecular_graphics    'SHELXL-2016/6 (Sheldrick, 2016)'
_computing_publication_material  'publCIF (Westrip, 2010)'
_computing_structure_refinement  'SHELXL-2016/6 (Sheldrick, 2016)'
_computing_structure_solution    'SHELXL-2016/6 (Sheldrick, 2016)'
_diffrn_ambient_temperature      210(2)
_diffrn_measured_fraction_theta_full 0.998
_diffrn_measured_fraction_theta_max 0.986
_diffrn_measurement_device_type  'Bruker D8 Quest'
_diffrn_measurement_method       'phi and omega scans'
_diffrn_radiation_type           MoK\a
_diffrn_radiation_wavelength     0.71073
_diffrn_reflns_av_R_equivalents  0.0945
_diffrn_reflns_av_unetI/netI     0.1119
_diffrn_reflns_Laue_measured_fraction_full 0.998
_diffrn_reflns_Laue_measured_fraction_max 0.986
_diffrn_reflns_limit_h_max       20
_diffrn_reflns_limit_h_min       -21
_diffrn_reflns_limit_k_max       22
_diffrn_reflns_limit_k_min       -22
_diffrn_reflns_limit_l_max       27
_diffrn_reflns_limit_l_min       -27
_diffrn_reflns_number            91900
_diffrn_reflns_point_group_measured_fraction_full 0.998
_diffrn_reflns_point_group_measured_fraction_max 0.986
_diffrn_reflns_theta_full        25.242
_diffrn_reflns_theta_max         28.309
_diffrn_reflns_theta_min         2.207
_diffrn_standards_decay_%        0
_diffrn_standards_interval_count 0
_diffrn_standards_interval_time  0
_diffrn_standards_number         0
_exptl_absorpt_coefficient_mu    0.839
_exptl_absorpt_correction_T_max  0.935
_exptl_absorpt_correction_T_min  0.860
_exptl_absorpt_correction_type   multi-scan
_exptl_absorpt_process_details
;
 Sheldrick, G.M. SADABS (Program for Scaling and Correction of Area Detector
 Data), version 2008/1; University of G\"ottingen: G\"ottingen, Germany, 2008.
;
_exptl_crystal_colour            colourless
_exptl_crystal_density_diffrn    1.373
_exptl_crystal_description       block
_exptl_crystal_F_000             1912
_exptl_crystal_size_max          0.200
_exptl_crystal_size_mid          0.150
_exptl_crystal_size_min          0.080
_refine_diff_density_max         2.210
_refine_diff_density_min         -3.494
_refine_diff_density_rms         0.167
_refine_ls_extinction_method     none
_refine_ls_goodness_of_fit_ref   1.048
_refine_ls_hydrogen_treatment    constr
_refine_ls_matrix_type           full
_refine_ls_number_parameters     1113
_refine_ls_number_reflns         22486
_refine_ls_number_restraints     359
_refine_ls_restrained_S_all      1.040
_refine_ls_R_factor_all          0.1571
_refine_ls_R_factor_gt           0.0943
_refine_ls_shift/su_max          0.000
_refine_ls_shift/su_mean         0.000
_refine_ls_structure_factor_coef Fsqd
_refine_ls_weighting_details
'w=1/[\s^2^(Fo^2^)+(0.0791P)^2^+62.1527P] where P=(Fo^2^+2Fc^2^)/3'
_refine_ls_weighting_scheme      calc
_refine_ls_wR_factor_gt          0.2280
_refine_ls_wR_factor_ref         0.2572
_reflns_Friedel_coverage         0.000
_reflns_number_gt                13275
_reflns_number_total             22486
_reflns_threshold_expression     'I > 2\s(I)'
_cod_data_source_file            d0cc02420a2.cif
_cod_data_source_block           CD3-60MIN
_cod_depositor_comments
'Adding full bibliography for 7126483--7126489.cif.'
_cod_original_cell_volume        4581.5(12)
_cod_database_code               7126484
_publcif_datablock.id            {49742bde-0085-4387-8ae9-1a75c3843601}
_shelx_shelxl_version_number     2016/6
_shelx_space_group_comment
;
The symmetry employed for this shelxl refinement is uniquely defined
by the following loop, which should always be used as a source of
symmetry information in preference to the above space-group names.
They are only intended as comments.
;
_shelx_estimated_absorpt_t_min   0.850
_shelx_estimated_absorpt_t_max   0.936
_shelx_res_file
;
TITL B180910A_0m_a.res in P-1
    T.res
    created by SHELXL-2016/6 at 22:35:54 on 12-Oct-2019
REM Old TITL B180910A_0m in P-1

REM SHELXT solution in P-1
REM R1 0.222,  Rweak 0.024,  Alpha 0.127,  Orientation as input
REM Formula found by SHELXT:  C86 N10 O16 Cd3

CELL  0.71073  16.3999  16.9805  20.4878   92.380  111.486  116.958
ZERR   2.000   0.0025   0.0025   0.0031    0.004    0.004    0.003
LATT  1
SFAC C H N O CD CL
UNIT 178 146 12 28 6 6

TEMP -63
SIZE 0.08 0.15 0.20
L.S. 25
BOND $H
FMAP 2
PLAN 20
ACTA
SIMU O1 > C17A
DELU O1 > C17A
SIMU O8 > C61A
DELU O8 > C61A
SADI 0.02 C13 N3 C13 N3A
EADP N3A C14A C15A C16A C17A
ABIN
WGHT    0.079100   62.152695
FVAR       0.21735   0.85621   0.75801
CD1   5    0.137173    0.800795    0.586613    11.00000    0.02708    0.02897 =
         0.04060    0.01356    0.01486    0.01905
CD2   5    0.215483    0.698936    0.761333    11.00000    0.02087    0.02886 =
         0.03418    0.01084    0.01097    0.01407
CD3   5    0.314940    0.614899    0.941998    11.00000    0.02162    0.02198 =
         0.03749    0.00866    0.01070    0.01204
O2    4    0.039616    0.774112    0.645137    11.00000    0.02774    0.03150 =
         0.05850    0.02098    0.03086    0.01736
O3    4    0.060219    0.678384    0.713588    11.00000    0.02639    0.05803 =
         0.05872    0.03166    0.02128    0.02500
O4    4   -0.890415    0.646662    0.545571    11.00000    0.03474    0.05713 =
         0.05879    0.00646    0.01006    0.03384
O5    4   -0.773592    0.732334    0.653586    11.00000    0.02927    0.04385 =
         0.03617    0.01916    0.01640    0.02722
O6    4   -0.841707   -0.059030    0.578323    11.00000    0.04736    0.01827 =
         0.08661    0.01256    0.03137    0.00912
O7    4   -0.698771   -0.036089    0.662368    11.00000    0.06684    0.04456 =
         0.09091    0.03073    0.02882    0.02951
O9    4    0.375271    0.730569    0.808094    11.00000    0.01956    0.07795 =
         0.05115    0.02238    0.01505    0.01908
O10   4    0.417693    0.658437    0.888963    11.00000    0.03930    0.05108 =
         0.08546    0.04144    0.04326    0.02428
O11   4    1.282626    1.466454    0.906338    11.00000    0.03651    0.02856 =
         0.05956    0.01385    0.02947    0.01361
O12   4    1.188329    1.484456    0.950202    11.00000    0.04367    0.02669 =
         0.07006    0.01874    0.03097    0.01964
O13   4    1.298737    0.732922    0.988539    11.00000    0.05141    0.05764 =
         0.03977   -0.00045    0.00457    0.04485
O14   4    1.205934    0.665938    0.872142    11.00000    0.03170    0.02303 =
         0.04460    0.01302    0.01999    0.01984
N1    3   -0.008794    0.747402    0.478292    11.00000    0.04449    0.05042 =
         0.03777    0.02060    0.01625    0.03569
N2    3   -0.556517    0.642714    0.051843    11.00000    0.03537    0.03210 =
         0.04314    0.00570    0.01027    0.02385
N4    3    0.123108    0.541094    0.715249    11.00000    0.04740    0.03152 =
         0.04125    0.00519    0.01499    0.02361
N5    3   -0.273793   -0.099196    0.621953    11.00000    0.06981    0.04074 =
         0.06584    0.00992    0.03058    0.02030
C1    1   -0.072878    0.660680    0.445659    11.00000    0.02409    0.05843 =
         0.03710    0.00640    0.00703    0.01959
AFIX  43
H1A   2   -0.059160    0.617814    0.467572    11.00000   -1.20000
AFIX   0
C2    1   -0.157773    0.628497    0.382332    11.00000    0.02935    0.05694 =
         0.05125    0.01069    0.01425    0.02079
AFIX  43
H2A   2   -0.201000    0.565188    0.362866    11.00000   -1.20000
AFIX   0
C3    1   -0.180543    0.685594    0.347446    11.00000    0.03674    0.05546 =
         0.05517    0.01643    0.01345    0.02872
C4    1   -0.114867    0.779442    0.380317    11.00000    0.05094    0.05716 =
         0.05564    0.02774    0.02156    0.03656
AFIX  43
H4A   2   -0.128024    0.822656    0.358584    11.00000   -1.20000
AFIX   0
C5    1   -0.029167    0.807507    0.446266    11.00000    0.04396    0.04040 =
         0.05502    0.01294    0.01326    0.03012
AFIX  43
H5A   2    0.014986    0.870187    0.468438    11.00000   -1.20000
AFIX   0
C6    1   -0.269230    0.655288    0.275505    11.00000    0.03335    0.05170 =
         0.05371    0.01832    0.01774    0.01473
AFIX  43
H6A   2   -0.291178    0.601061    0.243513    11.00000   -1.20000
AFIX   0
C7    1   -0.317492    0.698845    0.254589    11.00000    0.03528    0.05153 =
         0.05616    0.01737    0.01562    0.01892
AFIX  43
H7A   2   -0.296861    0.750891    0.288486    11.00000   -1.20000
AFIX   0
C8    1   -0.401243    0.675894    0.183493    11.00000    0.03855    0.04711 =
         0.03395    0.01158    0.00894    0.02188
C9    1   -0.427241    0.615111    0.123751    11.00000    0.03232    0.05916 =
         0.05087    0.01267    0.00861    0.03088
AFIX  43
H9A   2   -0.391573    0.583878    0.126988    11.00000   -1.20000
AFIX   0
C10   1   -0.505631    0.599118    0.058508    11.00000    0.03600    0.04810 =
         0.05231    0.00576    0.01431    0.02855
AFIX  43
H10A  2   -0.523160    0.556373    0.018024    11.00000   -1.20000
AFIX   0
C11   1   -0.532120    0.700902    0.109742    11.00000    0.05375    0.06613 =
         0.04033    0.00103    0.00264    0.04158
AFIX  43
H11A  2   -0.569543    0.730532    0.105844    11.00000   -1.20000
AFIX   0
C12   1   -0.454501    0.719662    0.175121    11.00000    0.05603    0.05855 =
         0.03668   -0.00288    0.00194    0.03563
AFIX  43
H12A  2   -0.437902    0.763282    0.214619    11.00000   -1.20000
AFIX   0
C18   1    0.007220    0.707179    0.672508    11.00000    0.02783    0.03404 =
         0.03362    0.00771    0.01478    0.02143
C19   1   -0.102580    0.657562    0.655124    11.00000    0.02169    0.03233 =
         0.03325    0.00498    0.01120    0.01515
C20   1   -0.143948    0.576670    0.675112    11.00000    0.03349    0.03428 =
         0.06830    0.02509    0.02580    0.02589
AFIX  43
H20A  2   -0.101534    0.554988    0.701393    11.00000   -1.20000
AFIX   0
C21   1   -0.244445    0.528360    0.657408    11.00000    0.03642    0.03464 =
         0.07189    0.02902    0.02983    0.02602
AFIX  43
H21A  2   -0.270615    0.472746    0.670382    11.00000   -1.20000
AFIX   0
C22   1   -0.310963    0.559170    0.620035    11.00000    0.02500    0.03160 =
         0.05932    0.01605    0.02171    0.01874
C23   1   -0.268689    0.639978    0.601569    11.00000    0.03695    0.03631 =
         0.05238    0.01938    0.02156    0.02825
AFIX  43
H23A  2   -0.310663    0.662925    0.577102    11.00000   -1.20000
AFIX   0
C24   1   -0.167261    0.688762    0.617455    11.00000    0.03206    0.03839 =
         0.04451    0.01991    0.01939    0.02330
AFIX  43
H24A  2   -0.141475    0.743224    0.602905    11.00000   -1.20000
AFIX   0
C25   1   -0.811824    0.668059    0.597330    11.00000    0.03350    0.03070 =
         0.03591    0.00926    0.01627    0.02061
C26   1   -0.748702    0.626276    0.595176    11.00000    0.02815    0.03056 =
         0.04316    0.01611    0.01711    0.01967
C27   1   -0.650765    0.661187    0.648850    11.00000    0.03391    0.03473 =
         0.05379    0.00704    0.01571    0.02340
AFIX  43
H27A  2   -0.622991    0.710720    0.687851    11.00000   -1.20000
AFIX   0
C28   1   -0.594052    0.621538    0.644011    11.00000    0.02797    0.04021 =
         0.04960    0.01397    0.01216    0.02464
AFIX  43
H28A  2   -0.527730    0.644825    0.680166    11.00000   -1.20000
AFIX   0
C29   1   -0.632948    0.550490    0.588356    11.00000    0.02962    0.03218 =
         0.06018    0.01592    0.02451    0.02370
C30   1   -0.730183    0.516016    0.533463    11.00000    0.02699    0.02445 =
         0.05043    0.00657    0.01259    0.01305
AFIX  43
H30A  2   -0.756793    0.467062    0.494333    11.00000   -1.20000
AFIX   0
C31   1   -0.787878    0.554979    0.537138    11.00000    0.03103    0.04102 =
         0.04339    0.00807    0.00469    0.02834
AFIX  43
H31A  2   -0.853388    0.532639    0.500081    11.00000   -1.20000
AFIX   0
C32   1   -0.749482   -0.009318    0.618362    11.00000    0.05310    0.02766 =
         0.05851    0.01966    0.03389    0.02783
C33   1   -0.700654    0.087810    0.611130    11.00000    0.03936    0.02279 =
         0.05387    0.01509    0.02510    0.02059
C34   1   -0.761240    0.119874    0.567249    11.00000    0.03745    0.03488 =
         0.05282    0.01582    0.02253    0.02874
AFIX  43
H34A  2   -0.832107    0.081672    0.544077    11.00000   -1.20000
AFIX   0
C35   1   -0.718176    0.205950    0.557952    11.00000    0.02837    0.02769 =
         0.04741    0.00903    0.01124    0.01218
AFIX  43
H35A  2   -0.759593    0.224936    0.526034    11.00000   -1.20000
AFIX   0
C36   1   -0.612509    0.267310    0.595300    11.00000    0.03855    0.02482 =
         0.05493    0.02049    0.02641    0.02171
C37   1   -0.553385    0.232824    0.637961    11.00000    0.03227    0.02368 =
         0.05407    0.00837    0.01478    0.01112
AFIX  43
H37A  2   -0.482519    0.270787    0.661824    11.00000   -1.20000
AFIX   0
C38   1   -0.596744    0.144829    0.645635    11.00000    0.03315    0.03518 =
         0.05363    0.01207    0.01696    0.02126
AFIX  43
H38A  2   -0.555430    0.123599    0.674446    11.00000   -1.20000
AFIX   0
C39   1   -0.419347    0.506028    0.604845    11.00000    0.02940    0.04511 =
         0.05836    0.02170    0.02502    0.02816
C40   1   -0.475193    0.549846    0.599765    11.00000    0.04162    0.03212 =
         0.07025    0.02072    0.03142    0.02901
AFIX  43
H40A  2   -0.444159    0.613122    0.604262    11.00000   -1.20000
AFIX   0
C41   1   -0.574744    0.501487    0.588292    11.00000    0.03170    0.03563 =
         0.05298    0.01607    0.02076    0.02329
C42   1   -0.619074    0.410575    0.584451    11.00000    0.02456    0.03316 =
         0.05930    0.01624    0.02307    0.02032
AFIX  43
H42A  2   -0.686942    0.378609    0.577514    11.00000   -1.20000
AFIX   0
C43   1   -0.566668    0.363094    0.590518    11.00000    0.03434    0.02366 =
         0.05499    0.01618    0.02012    0.01607
C44   1   -0.466263    0.414011    0.600411    11.00000    0.03668    0.03924 =
         0.06193    0.02801    0.02896    0.03039
AFIX  43
H44A  2   -0.429180    0.384062    0.604200    11.00000   -1.20000
AFIX   0
C45   1    0.035376    0.500332    0.656249    11.00000    0.03271    0.02390 =
         0.04803    0.00935    0.01174    0.00866
AFIX  43
H45A  2    0.017814    0.536264    0.626719    11.00000   -1.20000
AFIX   0
C46   1   -0.032588    0.405356    0.636022    11.00000    0.03587    0.03177 =
         0.03735    0.00580    0.00795    0.01240
AFIX  43
H46A  2   -0.093407    0.379494    0.593381    11.00000   -1.20000
AFIX   0
C47   1   -0.010702    0.350231    0.678107    11.00000    0.03879    0.03670 =
         0.04560    0.00302    0.01482    0.01474
C48   1    0.079024    0.391603    0.739801    11.00000    0.05123    0.03081 =
         0.04796    0.00541    0.01676    0.01756
AFIX  43
H48A  2    0.096012    0.357200    0.771347    11.00000   -1.20000
AFIX   0
C49   1    0.145152    0.485835    0.755289    11.00000    0.03544    0.03912 =
         0.03313    0.00791    0.01058    0.01233
AFIX  43
H49A  2    0.208449    0.512191    0.795805    11.00000   -1.20000
AFIX   0
C50   1   -0.083518    0.251637    0.653042    11.00000    0.04985    0.03419 =
         0.03896    0.01584    0.02152    0.01376
AFIX  43
H50A  2   -0.139765    0.229794    0.607755    11.00000   -1.20000
AFIX   0
C51   1   -0.074845    0.190623    0.690757    11.00000    0.05225    0.03791 =
         0.05583    0.00814    0.02075    0.01228
AFIX  43
H51A  2   -0.020839    0.212765    0.737256    11.00000   -1.20000
AFIX   0
C52   1   -0.144672    0.091332    0.663737    11.00000    0.06359    0.04170 =
         0.06410    0.02145    0.03784    0.03237
C53   1   -0.209960    0.048075    0.594691    11.00000    0.05834    0.04048 =
         0.04287    0.00899    0.02330    0.01745
AFIX  43
H53A  2   -0.214626    0.081200    0.559186    11.00000   -1.20000
AFIX   0
C54   1   -0.272658   -0.048816    0.575100    11.00000    0.06043    0.04178 =
         0.06348    0.00688    0.03226    0.01844
AFIX  43
H54A  2   -0.315610   -0.078243    0.525807    11.00000   -1.20000
AFIX   0
C55   1   -0.209003   -0.056781    0.690671    11.00000    0.06390    0.05437 =
         0.10183    0.03685    0.04412    0.03473
AFIX  43
H55A  2   -0.207991   -0.091475    0.725231    11.00000   -1.20000
AFIX   0
C56   1   -0.140679    0.039476    0.714331    11.00000    0.05444    0.04049 =
         0.06700    0.01972    0.02683    0.02063
AFIX  43
H56A  2   -0.093874    0.067268    0.763197    11.00000   -1.20000
AFIX   0
O1    4    0.252801    0.826048    0.532592    11.00000    0.04539    0.06794 =
         0.06787    0.03767    0.03277    0.03632
C13   1    0.340645    0.853458    0.577772    11.00000    0.05269    0.07313 =
         0.11489    0.06461    0.05632    0.04268
PART 1
AFIX  43
H13A  2    0.352866    0.866237    0.626598    21.00000   -1.20000
AFIX  43
PART 2
H13B  2    0.376365    0.895134    0.623319   -21.00000   -1.20000
AFIX   0
PART 0

PART   1
N3    3    0.419533    0.867046    0.566029    21.00000    0.05787    0.08932 =
         0.13390    0.06904    0.06896    0.05278
C14   1    0.384830    0.752783    0.469438    21.00000    0.16978    0.12427 =
         0.17436    0.04548    0.09708    0.09712
AFIX  33
H14A  2    0.379160    0.744032    0.420549    21.00000   -1.50000
H14B  2    0.438177    0.742877    0.501072    21.00000   -1.50000
H14C  2    0.320949    0.709701    0.469619    21.00000   -1.50000
AFIX   0
C15   1    0.409208    0.845679    0.495131    21.00000    0.10343    0.10652 =
         0.15102    0.07206    0.09585    0.07942
AFIX  23
H15A  2    0.472764    0.888372    0.493233    21.00000   -1.20000
H15B  2    0.355767    0.855261    0.461842    21.00000   -1.20000
AFIX   0
C16   1    0.579398    0.998273    0.654934    21.00000    0.07134    0.13623 =
         0.17322    0.04599    0.04581    0.04313
AFIX  33
H16A  2    0.644049    1.016162    0.695054    21.00000   -1.50000
H16B  2    0.590983    1.025616    0.616244    21.00000   -1.50000
H16C  2    0.542160    1.018969    0.671175    21.00000   -1.50000
AFIX   0
C17   1    0.521405    0.900230    0.628656    21.00000    0.05284    0.11820 =
         0.17244    0.09762    0.05653    0.04476
AFIX  23
H17A  2    0.511250    0.872998    0.668264    21.00000   -1.20000
H17B  2    0.560070    0.879645    0.613337    21.00000   -1.20000
AFIX   0
PART   2
SAME N3 > C17
N3A   3    0.373056    0.810247    0.546979   -21.00000    0.08419    0.10489 =
         0.14211    0.06767    0.08131    0.06700
C14A  1    0.365029    0.806077    0.425052   -21.00000    0.08419    0.10489 =
         0.14211    0.06767    0.08131    0.06700
AFIX  33
H14D  2    0.375557    0.845836    0.392679   -21.00000   -1.50000
H14E  2    0.410917    0.782357    0.434403   -21.00000   -1.50000
H14F  2    0.295509    0.755807    0.402784   -21.00000   -1.50000
AFIX   0
C15A  1    0.384727    0.857528    0.493123   -21.00000    0.08419    0.10489 =
         0.14211    0.06767    0.08131    0.06700
AFIX  23
H15C  2    0.454382    0.909202    0.513615   -21.00000   -1.20000
H15D  2    0.339417    0.882755    0.482117   -21.00000   -1.20000
AFIX   0
C16A  1    0.528896    0.809713    0.563295   -21.00000    0.08419    0.10489 =
         0.14211    0.06767    0.08131    0.06700
AFIX  33
H16D  2    0.568903    0.781055    0.582850   -21.00000   -1.50000
H16E  2    0.509014    0.801209    0.511591   -21.00000   -1.50000
H16F  2    0.568948    0.874436    0.586785   -21.00000   -1.50000
AFIX   0
C17A  1    0.439263    0.768659    0.576195   -21.00000    0.08419    0.10489 =
         0.14211    0.06767    0.08131    0.06700
AFIX  23
H17C  2    0.459759    0.776317    0.628428   -21.00000   -1.20000
H17D  2    0.399815    0.703077    0.553221   -21.00000   -1.20000
AFIX   0
PART   0
O8    4    0.288401    0.845890    0.815049    11.00000    0.08855    0.03396 =
         0.12707    0.00263    0.05496    0.01332
PART   1
C57   1    0.280946    0.905116    0.831789    31.00000    0.08888    0.03202 =
         0.11137    0.01439    0.04119    0.01877
AFIX  43
H57B  2    0.216004    0.894277    0.823435    31.00000   -1.20000
AFIX   0
N6    3    0.362201    0.993464    0.864131    31.00000    0.08754    0.03597 =
         0.11240   -0.00442    0.04227    0.00688
C58   1    0.392203    1.101439    0.963586    31.00000    0.10715    0.07661 =
         0.15707   -0.02820    0.05721    0.02209
AFIX  33
H58A  2    0.370547    1.143220    0.973568    31.00000   -1.50000
H58B  2    0.377564    1.055917    0.991133    31.00000   -1.50000
H58C  2    0.464570    1.135071    0.977379    31.00000   -1.50000
AFIX   0
C59   1    0.341455    1.059388    0.891383    31.00000    0.11516    0.04281 =
         0.14044    0.01366    0.03987    0.03275
AFIX  23
H59A  2    0.355243    1.107095    0.864962    31.00000   -1.20000
H59D  2    0.268681    1.028345    0.878645    31.00000   -1.20000
AFIX   0
C60   1    0.507527    1.039138    0.829389    31.00000    0.10336    0.10236 =
         0.16207    0.05825    0.06510    0.02145
AFIX  33
H60A  2    0.575877    1.049787    0.844846    31.00000   -1.50000
H60B  2    0.462304    0.990941    0.784990    31.00000   -1.50000
H60C  2    0.506851    1.094662    0.820908    31.00000   -1.50000
AFIX   0
C61   1    0.470162    1.009219    0.891674    31.00000    0.08663    0.08349 =
         0.13665    0.01252    0.04892    0.01360
AFIX  23
H61A  2    0.470503    0.953149    0.900808    31.00000   -1.20000
H61B  2    0.515257    1.057352    0.936892    31.00000   -1.20000
AFIX   0
PART   2
SAME C57 > C61
C57A  1    0.335957    0.906981    0.809378   -31.00000    0.06328    0.03704 =
         0.12201    0.01653    0.04123    0.02637
AFIX  43
H57A  2    0.336496    0.900994    0.763742   -31.00000   -1.20000
AFIX   0
N6A   3    0.400156    0.996642    0.850774   -31.00000    0.06996    0.03417 =
         0.13018    0.01255    0.03555    0.03005
C58A  1    0.472401    1.056194    0.981286   -31.00000    0.15341    0.10210 =
         0.13871   -0.02537    0.02067    0.00354
AFIX  33
H58D  2    0.451426    1.060780    1.019149   -31.00000   -1.50000
H58E  2    0.507880    1.022200    0.991540   -31.00000   -1.50000
H58F  2    0.517196    1.116905    0.979434   -31.00000   -1.50000
AFIX   0
C59A  1    0.389456    1.012406    0.916572   -31.00000    0.09281    0.05388 =
         0.13098    0.00310    0.04534    0.01671
AFIX  23
H59B  2    0.353780    1.046862    0.909174   -31.00000   -1.20000
H59C  2    0.344523    0.952757    0.921204   -31.00000   -1.20000
AFIX   0
C60A  1    0.565300    1.098336    0.839920   -31.00000    0.07265    0.08423 =
         0.19318    0.01214    0.04343   -0.00744
AFIX  33
H60D  2    0.596616    1.147298    0.819056   -31.00000   -1.50000
H60E  2    0.603085    1.117605    0.892251   -31.00000   -1.50000
H60F  2    0.565575    1.044906    0.821584   -31.00000   -1.50000
AFIX   0
C61A  1    0.449441    1.073618    0.817989   -31.00000    0.07827    0.06018 =
         0.15170    0.00735    0.05369   -0.01047
AFIX  23
H61C  2    0.448734    1.127584    0.835977   -31.00000   -1.20000
H61D  2    0.411129    1.054703    0.765131   -31.00000   -1.20000
AFIX   0
PART   0
C62   1    0.435878    0.711864    0.852791    11.00000    0.02171    0.04376 =
         0.03983    0.00829    0.01680    0.01614
C63   1    0.544878    0.764689    0.862195    11.00000    0.01909    0.03712 =
         0.04443    0.01597    0.01690    0.01523
C64   1    0.614739    0.742760    0.906474    11.00000    0.03232    0.04804 =
         0.05898    0.03605    0.02724    0.02487
AFIX  43
H64A  2    0.594333    0.696086    0.930067    11.00000   -1.20000
AFIX   0
C65   1    0.713460    0.789042    0.915871    11.00000    0.02439    0.04030 =
         0.05638    0.03308    0.02205    0.01726
AFIX  43
H65A  2    0.759756    0.772929    0.945449    11.00000   -1.20000
AFIX   0
C66   1    0.746528    0.859254    0.882602    11.00000    0.02296    0.02620 =
         0.04013    0.00975    0.01252    0.01464
C67   1    0.676695    0.881491    0.838414    11.00000    0.02323    0.03710 =
         0.05032    0.02541    0.01974    0.01572
AFIX  43
H67A  2    0.696909    0.927976    0.814623    11.00000   -1.20000
AFIX   0
C68   1    0.576167    0.834428    0.829462    11.00000    0.01585    0.03989 =
         0.04600    0.01615    0.01039    0.01452
AFIX  43
H68A  2    0.529626    0.850806    0.800711    11.00000   -1.20000
AFIX   0
C69   1    1.213357    1.435191    0.927229    11.00000    0.02359    0.02535 =
         0.05141    0.00964    0.01509    0.01104
C70   1    1.156889    1.334708    0.920201    11.00000    0.02478    0.01735 =
         0.03164    0.00339    0.01196    0.00025
C71   1    1.082774    1.297426    0.945543    11.00000    0.02295    0.02159 =
         0.05477    0.00817    0.02043    0.01000
AFIX  43
H71A  2    1.066839    1.335808    0.966145    11.00000   -1.20000
AFIX   0
C72   1    1.032540    1.205546    0.940965    11.00000    0.02559    0.02672 =
         0.04718    0.01044    0.02040    0.01365
AFIX  43
H72A  2    0.981764    1.181436    0.957453    11.00000   -1.20000
AFIX   0
C73   1    1.056311    1.149103    0.912448    11.00000    0.01768    0.01667 =
         0.04826    0.01251    0.01404    0.00509
C74   1    1.127612    1.184074    0.885348    11.00000    0.03703    0.02181 =
         0.05622    0.00965    0.02869    0.01637
AFIX  43
H74A  2    1.141666    1.144994    0.863492    11.00000   -1.20000
AFIX   0
C75   1    1.178539    1.276831    0.890339    11.00000    0.03444    0.02366 =
         0.05447    0.02203    0.03124    0.01136
AFIX  43
H75A  2    1.228524    1.300503    0.873095    11.00000   -1.20000
AFIX   0
C76   1    1.229655    0.719668    0.928388    11.00000    0.02969    0.02491 =
         0.03612    0.00899    0.01714    0.01622
C77   1    1.172586    0.768439    0.924425    11.00000    0.02828    0.02851 =
         0.04286    0.01484    0.01703    0.02162
C78   1    1.215822    0.849355    0.975578    11.00000    0.02720    0.03643 =
         0.03621    0.00541    0.00990    0.01830
AFIX  43
H78A  2    1.280964    0.872892    1.013490    11.00000   -1.20000
AFIX   0
C79   1    1.163298    0.894979    0.970724    11.00000    0.03221    0.03748 =
         0.04344    0.01240    0.01748    0.02355
AFIX  43
H79A  2    1.194772    0.951092    1.004116    11.00000   -1.20000
AFIX   0
C80   1    1.064870    0.859930    0.917595    11.00000    0.02462    0.02124 =
         0.03775    0.01014    0.01525    0.01382
C81   1    1.021794    0.777070    0.867151    11.00000    0.02273    0.02792 =
         0.04963    0.01171    0.01851    0.01237
AFIX  43
H81A  2    0.955097    0.751254    0.830879    11.00000   -1.20000
AFIX   0
C82   1    1.075389    0.733529    0.870055    11.00000    0.03136    0.02844 =
         0.04210    0.00776    0.01383    0.01814
AFIX  43
H82A  2    1.045969    0.679492    0.834854    11.00000   -1.20000
AFIX   0
C83   1    0.854173    0.908912    0.893154    11.00000    0.02349    0.01460 =
         0.04264    0.01004    0.01832    0.00894
C84   1    0.903158    1.002802    0.896363    11.00000    0.02448    0.02034 =
         0.04167    0.01483    0.02027    0.01408
AFIX  43
H84A  2    0.867097    1.034139    0.889632    11.00000   -1.20000
AFIX   0
C85   1    1.004015    1.048927    0.909373    11.00000    0.02526    0.02399 =
         0.04161    0.01199    0.01889    0.01662
C86   1    1.056316    1.002335    0.916749    11.00000    0.02072    0.01933 =
         0.04760    0.01381    0.02017    0.00997
AFIX  43
H86A  2    1.124992    1.034560    0.925657    11.00000   -1.20000
AFIX   0
C87   1    1.009359    0.908268    0.911260    11.00000    0.02042    0.02129 =
         0.04338    0.00780    0.01431    0.01238
C88   1    0.906946    0.862517    0.898457    11.00000    0.02157    0.02062 =
         0.04295    0.00943    0.01791    0.00708
AFIX  43
H88A  2    0.873250    0.799139    0.893351    11.00000   -1.20000
AFIX   0
C89   1    0.061541    0.958598    0.687731    11.00000    0.08089    0.04329 =
         0.07270    0.02513    0.03782    0.03570
AFIX  13
H89A  2    0.080607    0.917046    0.670519    11.00000   -1.20000
AFIX   0
CL1   6    0.170686    1.067264    0.730142    11.00000    0.09925    0.06180 =
         0.08522    0.02028    0.03377    0.02459
CL2   6    0.014817    0.916634    0.749219    11.00000    0.12579    0.08442 =
         0.08865    0.03809    0.06839    0.04624
CL3   6   -0.029821    0.965183    0.612102    11.00000    0.09048    0.09425 =
         0.08338    0.03536    0.03683    0.05567

HKLF 4

REM  B180910A_0m_a.res in P-1
REM R1 =  0.0943 for   13275 Fo > 4sig(Fo)  and  0.1571 for all   22486 data
REM   1113 parameters refined using    359 restraints

END

WGHT      0.0584     69.4750

REM Highest difference peak  2.210,  deepest hole -3.494,  1-sigma level  0.167
Q1    1   0.1802  0.8558  0.5731  11.00000  0.05    2.21
Q2    1   0.2733  0.7811  0.7539  11.00000  0.05    1.43
Q3    1   0.1775  0.8298  0.6378  11.00000  0.05    1.33
Q4    1  -0.6535 -0.0657  0.7028  11.00000  0.05    1.22
Q5    1  -0.7520  0.0195  0.5317  11.00000  0.05    1.17
Q6    1   0.2809  0.5913  0.8885  11.00000  0.05    1.17
Q7    1   0.3467  0.6330  0.9902  11.00000  0.05    1.16
Q8    1   0.2411  0.7169  0.8135  11.00000  0.05    1.15
Q9    1   0.1166  0.5254  0.8150  11.00000  0.05    1.14
Q10   1   0.3013  0.8414  0.7269  11.00000  0.05    1.13
Q11   1   1.2007  1.4278  0.9867  11.00000  0.05    1.10
Q12   1   0.0189  0.6158  0.6416  11.00000  0.05    1.09
Q13   1  -0.1730 -0.1031  0.6474  11.00000  0.05    1.07
Q14   1   0.3837  0.7458  0.9082  11.00000  0.05    1.05
Q15   1   0.1843  0.6738  0.7108  11.00000  0.05    0.95
Q16   1   0.1171  0.7509  0.5900  11.00000  0.05    0.93
Q17   1   1.2433  1.4918  0.9508  11.00000  0.05    0.91
Q18   1   0.3169  0.5768  0.9418  11.00000  0.05    0.88
Q19   1  -0.8145 -0.1031  0.5430  11.00000  0.05    0.82
Q20   1   0.3774  0.7082  0.9382  11.00000  0.05    0.80
;
_shelx_res_checksum              91637
_shelx_fab_file
;
    2    0    0    -71.28      0.00
    3    0    0      6.51      0.00
    4    0    0     18.06      0.00
    5    0    0    -17.84      0.00
    6    0    0      5.63      0.00
    7    0    0     10.70      0.00
    8    0    0    -11.40      0.00
    9    0    0     -2.13      0.00
   10    0    0      6.96      0.00
   11    0    0      3.28      0.00
   12    0    0     -6.06      0.00
   13    0    0      0.33      0.00
   14    0    0      1.41      0.00
   15    0    0      0.00      0.00
   16    0    0     -0.64      0.00
   17    0    0      3.10      0.00
  -17    1    0     -0.12      0.00
  -16    1    0      1.73      0.00
  -15    1    0     -0.64      0.00
  -14    1    0      1.88      0.00
  -13    1    0      0.27      0.00
  -12    1    0      1.13      0.00
  -11    1    0     -7.51      0.00
  -10    1    0     -1.90      0.00
   -9    1    0      7.07      0.00
   -8    1    0     11.75      0.00
   -7    1    0     -9.57      0.00
   -6    1    0    -18.07      0.00
   -5    1    0     24.14      0.00
   -4    1    0      6.52      0.00
   -3    1    0    -14.47      0.00
   -2    1    0    -24.77      0.00
    1    1    0     42.53      0.00
    2    1    0     41.89      0.00
    3    1    0    -12.72      0.00
    4    1    0    -19.66      0.00
    5    1    0     14.05      0.00
    6    1    0      3.79      0.00
    7    1    0     -7.92      0.00
    8    1    0     -0.24      0.00
    9    1    0     -0.92      0.00
   10    1    0      2.11      0.00
   11    1    0     -0.19      0.00
   12    1    0      3.88      0.00
   13    1    0     -0.77      0.00
   14    1    0     -2.30      0.00
   15    1    0     -1.63      0.00
   16    1    0     -2.02      0.00
   17    1    0     -2.76      0.00
  -18    2    0      0.09      0.00
  -17    2    0     -1.19      0.00
  -16    2    0      0.51      0.00
  -15    2    0     -0.04      0.00
  -14    2    0     -3.99      0.00
  -13    2    0      2.07      0.00
  -12    2    0      2.00      0.00
  -11    2    0      1.04      0.00
  -10    2    0     -5.86      0.00
   -9    2    0     -0.68      0.00
   -8    2    0     -1.25      0.00
   -7    2    0      0.70      0.00
   -6    2    0      9.00      0.00
   -5    2    0    -23.05      0.00
   -4    2    0      3.03      0.00
   -3    2    0     45.48      0.00
   -2    2    0     70.24      0.00
   -1    2    0    -17.14      0.00
    0    2    0     37.00      0.00
    1    2    0     -3.97      0.00
    2    2    0      8.66      0.00
    3    2    0    -11.57      0.00
    4    2    0     12.68      0.00
    5    2    0      3.10      0.00
    6    2    0     -5.55      0.00
    7    2    0     -2.00      0.00
    8    2    0      5.64      0.00
    9    2    0      1.82      0.00
   10    2    0     -8.20      0.00
   11    2    0     -0.57      0.00
   12    2    0     -0.16      0.00
   13    2    0      3.52      0.00
   14    2    0     -0.79      0.00
   15    2    0      2.13      0.00
   16    2    0      3.21      0.00
  -18    3    0      0.64      0.00
  -17    3    0      1.61      0.00
  -16    3    0     -0.03      0.00
  -15    3    0      0.40      0.00
  -14    3    0      1.71      0.00
  -13    3    0     -0.21      0.00
  -12    3    0      1.93      0.00
  -11    3    0      0.00      0.00
  -10    3    0      1.39      0.00
   -9    3    0     -2.40      0.00
   -8    3    0      0.73      0.00
   -7    3    0     15.26      0.00
   -6    3    0     -4.99      0.00
   -5    3    0     -6.98      0.00
   -4    3    0    -11.85      0.00
   -3    3    0    -19.12      0.00
   -2    3    0    -43.58      0.00
   -1    3    0     34.38      0.00
    0    3    0     -3.75      0.00
    1    3    0     -1.30      0.00
    2    3    0    -25.93      0.00
    3    3    0     11.75      0.00
    4    3    0     -2.89      0.00
    5    3    0     -6.28      0.00
    6    3    0      5.01      0.00
    7    3    0      2.82      0.00
    8    3    0     -2.42      0.00
    9    3    0     -4.62      0.00
   10    3    0      7.25      0.00
   11    3    0      1.81      0.00
   12    3    0     -1.53      0.00
   13    3    0     -2.11      0.00
   14    3    0      3.90      0.00
   15    3    0     -3.81      0.00
  -19    4    0     -1.20      0.00
  -18    4    0     -2.07      0.00
  -17    4    0     -0.11      0.00
  -16    4    0     -1.64      0.00
  -15    4    0     -0.28      0.00
  -14    4    0     -2.38      0.00
  -13    4    0     -2.18      0.00
  -12    4    0      1.00      0.00
  -11    4    0      3.55      0.00
  -10    4    0     -1.15      0.00
   -9    4    0     -3.05      0.00
   -8    4    0     -0.67      0.00
   -7    4    0    -13.68      0.00
   -6    4    0      6.88      0.00
   -5    4    0     11.35      0.00
   -4    4    0      9.47      0.00
   -3    4    0      1.62      0.00
   -2    4    0     31.06      0.00
   -1    4    0    -29.15      0.00
    0    4    0    -10.57      0.00
    1    4    0      2.85      0.00
    2    4    0     33.26      0.00
    3    4    0     -9.08      0.00
    4    4    0     -8.36      0.00
    5    4    0      0.96      0.00
    6    4    0     -0.15      0.00
    7    4    0      3.24      0.00
    8    4    0     -5.53      0.00
    9    4    0      5.87      0.00
   10    4    0     -2.76      0.00
   11    4    0     -1.48      0.00
   12    4    0     -1.04      0.00
   13    4    0     -1.63      0.00
   14    4    0     -0.19      0.00
   15    4    0      1.84      0.00
  -19    5    0      0.92      0.00
  -18    5    0      3.84      0.00
  -17    5    0     -1.37      0.00
  -16    5    0      2.17      0.00
  -15    5    0      0.30      0.00
  -14    5    0     -0.33      0.00
  -13    5    0      0.04      0.00
  -12    5    0     -0.14      0.00
  -11    5    0     -0.51      0.00
  -10    5    0     -0.36      0.00
   -9    5    0      2.26      0.00
   -8    5    0     -5.79      0.00
   -7    5    0      5.25      0.00
   -6    5    0     -1.18      0.00
   -5    5    0     -5.15      0.00
   -4    5    0    -21.37      0.00
   -3    5    0      5.18      0.00
   -2    5    0     -8.88      0.00
   -1    5    0     23.51      0.00
    0    5    0     -6.09      0.00
    1    5    0     -7.83      0.00
    2    5    0     -9.41      0.00
    3    5    0      5.10      0.00
    4    5    0      2.99      0.00
    5    5    0      2.40      0.00
    6    5    0      0.48      0.00
    7    5    0     -4.80      0.00
    8    5    0      6.32      0.00
    9    5    0     -3.74      0.00
   10    5    0     -0.18      0.00
   11    5    0     -2.58      0.00
   12    5    0      4.74      0.00
   13    5    0      4.14      0.00
   14    5    0     -1.70      0.00
  -19    6    0      0.95      0.00
  -18    6    0     -5.09      0.00
  -17    6    0      1.41      0.00
  -16    6    0     -0.09      0.00
  -15    6    0      0.18      0.00
  -14    6    0      4.28      0.00
  -13    6    0     -0.66      0.00
  -12    6    0     -3.19      0.00
  -11    6    0      2.26      0.00
  -10    6    0      7.75      0.00
   -9    6    0      0.04      0.00
   -8    6    0      3.63      0.00
   -7    6    0      0.22      0.00
   -6    6    0     11.87      0.00
   -5    6    0     -2.92      0.00
   -4    6    0      9.04      0.00
   -3    6    0     -6.82      0.00
   -2    6    0      4.18      0.00
   -1    6    0    -10.30      0.00
    0    6    0     13.98      0.00
    1    6    0      0.96      0.00
    2    6    0     -7.69      0.00
    3    6    0      2.52      0.00
    4    6    0      6.41      0.00
    5    6    0     -7.51      0.00
    6    6    0     -2.91      0.00
    7    6    0      8.46      0.00
    8    6    0     -3.44      0.00
    9    6    0     -0.29      0.00
   10    6    0      2.38      0.00
   11    6    0      3.91      0.00
   12    6    0     -7.64      0.00
   13    6    0     -4.29      0.00
   14    6    0     -0.09      0.00
  -19    7    0     -3.53      0.00
  -18    7    0      2.33      0.00
  -17    7    0     -0.41      0.00
  -16    7    0     -0.10      0.00
  -15    7    0     -0.46      0.00
  -14    7    0     -2.99      0.00
  -13    7    0     -1.64      0.00
  -12    7    0     -1.54      0.00
  -11    7    0     -4.03      0.00
  -10    7    0     -7.45      0.00
   -9    7    0     -0.45      0.00
   -8    7    0      1.01      0.00
   -7    7    0     -4.27      0.00
   -6    7    0    -17.78      0.00
   -5    7    0     16.50      0.00
   -4    7    0      3.23      0.00
   -3    7    0     -4.83      0.00
   -2    7    0    -10.34      0.00
   -1    7    0     13.84      0.00
    0    7    0     -6.29      0.00
    1    7    0     -2.80      0.00
    2    7    0     10.28      0.00
    3    7    0     -1.80      0.00
    4    7    0    -12.50      0.00
    5    7    0      5.68      0.00
    6    7    0      3.02      0.00
    7    7    0     -7.77      0.00
    8    7    0      3.30      0.00
    9    7    0     -0.73      0.00
   10    7    0      0.84      0.00
   11    7    0     -1.90      0.00
   12    7    0      4.14      0.00
   13    7    0      4.68      0.00
  -20    8    0      0.97      0.00
  -19    8    0      5.01      0.00
  -18    8    0     -0.73      0.00
  -17    8    0     -0.17      0.00
  -16    8    0      0.28      0.00
  -15    8    0     -0.04      0.00
  -14    8    0      1.43      0.00
  -13    8    0      6.95      0.00
  -12    8    0      4.06      0.00
  -11    8    0     -0.45      0.00
  -10    8    0      1.84      0.00
   -9    8    0      2.47      0.00
   -8    8    0     -0.50      0.00
   -7    8    0     -1.24      0.00
   -6    8    0     10.93      0.00
   -5    8    0    -11.09      0.00
   -3    8    0      2.68      0.00
   -2    8    0     13.20      0.00
   -1    8    0    -14.78      0.00
    0    8    0     -0.66      0.00
    1    8    0      3.80      0.00
    2    8    0     -4.63      0.00
    3    8    0     -2.66      0.00
    4    8    0     12.76      0.00
    5    8    0      1.33      0.00
    6    8    0     -6.70      0.00
    7    8    0      3.02      0.00
    8    8    0     -1.34      0.00
    9    8    0      3.51      0.00
   10    8    0     -3.03      0.00
   11    8    0      1.41      0.00
   12    8    0     -3.76      0.00
  -20    9    0     -0.59      0.00
  -19    9    0     -5.30      0.00
  -18    9    0     -1.07      0.00
  -17    9    0     -0.74      0.00
  -16    9    0      1.49      0.00
  -15    9    0      0.94      0.00
  -14    9    0     -3.50      0.00
  -13    9    0     -5.73      0.00
  -12    9    0     -1.23      0.00
  -11    9    0      1.98      0.00
  -10    9    0      0.33      0.00
   -9    9    0     -1.79      0.00
   -8    9    0      0.45      0.00
   -7    9    0      8.76      0.00
   -6    9    0     -6.33      0.00
   -5    9    0     -1.23      0.00
   -4    9    0      6.08      0.00
   -3    9    0      8.00      0.00
   -2    9    0     -8.41      0.00
   -1    9    0      4.13      0.00
    0    9    0      4.26      0.00
    1    9    0     -3.81      0.00
    2    9    0     -2.85      0.00
    3    9    0      6.47      0.00
    4    9    0     -4.39      0.00
    5    9    0     -3.36      0.00
    6    9    0      4.23      0.00
    7    9    0     -0.11      0.00
    8    9    0      0.04      0.00
    9    9    0     -6.39      0.00
   10    9    0      1.04      0.00
   11    9    0      2.74      0.00
  -20   10    0      0.24      0.00
  -19   10    0      6.11      0.00
  -18   10    0      0.96      0.00
  -17   10    0     -1.19      0.00
  -16   10    0     -1.60      0.00
  -15   10    0     -0.66      0.00
  -14   10    0      3.32      0.00
  -13   10    0      2.40      0.00
  -12   10    0      0.76      0.00
  -11   10    0     -1.05      0.00
  -10   10    0     -1.49      0.00
   -9   10    0     -1.40      0.00
   -8   10    0     -0.43      0.00
   -7   10    0     -4.97      0.00
   -6   10    0      3.07      0.00
   -5   10    0      1.56      0.00
   -4   10    0     -2.04      0.00
   -3   10    0    -11.91      0.00
   -2   10    0      6.13      0.00
   -1   10    0      5.62      0.00
    0   10    0     -6.62      0.00
    1   10    0      2.90      0.00
    2   10    0      2.03      0.00
    3   10    0     -4.00      0.00
    4   10    0     -1.43      0.00
    5   10    0      1.77      0.00
    6   10    0      1.38      0.00
    7   10    0     -0.29      0.00
    8   10    0     -0.35      0.00
    9   10    0      4.85      0.00
   10   10    0      0.17      0.00
   11   10    0     -2.43      0.00
  -20   11    0     -0.96      0.00
  -19   11    0     -1.49      0.00
  -18   11    0      0.86      0.00
  -17   11    0      1.67      0.00
  -16   11    0      0.02      0.00
  -15   11    0      0.30      0.00
  -14   11    0     -2.74      0.00
  -13   11    0     -1.58      0.00
  -12   11    0     -0.99      0.00
  -11   11    0      0.70      0.00
  -10   11    0      2.83      0.00
   -9   11    0      0.67      0.00
   -8   11    0     -2.80      0.00
   -7   11    0     -1.83      0.00
   -6   11    0      2.81      0.00
   -5   11    0      4.05      0.00
   -4   11    0     -4.08      0.00
   -3   11    0      4.85      0.00
   -2   11    0     -3.15      0.00
   -1   11    0     -6.90      0.00
    0   11    0      5.18      0.00
    1   11    0      1.33      0.00
    2   11    0     -0.09      0.00
    3   11    0     -2.09      0.00
    4   11    0      2.80      0.00
    5   11    0      1.79      0.00
    6   11    0     -4.37      0.00
    7   11    0     -2.21      0.00
    8   11    0      2.94      0.00
    9   11    0     -2.42      0.00
   10   11    0     -3.38      0.00
  -20   12    0      1.33      0.00
  -19   12    0     -1.31      0.00
  -18   12    0     -2.05      0.00
  -17   12    0     -2.21      0.00
  -16   12    0      1.38      0.00
  -15   12    0      3.04      0.00
  -14   12    0      0.25      0.00
  -13   12    0     -1.28      0.00
  -12   12    0      1.71      0.00
  -11   12    0      3.79      0.00
  -10   12    0      0.06      0.00
   -9   12    0      0.24      0.00
   -8   12    0      0.67      0.00
   -7   12    0      0.24      0.00
   -6   12    0     -0.91      0.00
   -5   12    0     -0.71      0.00
   -4   12    0      4.15      0.00
   -3   12    0     -2.13      0.00
   -2   12    0     -1.00      0.00
   -1   12    0      6.18      0.00
    0   12    0     -2.30      0.00
    1   12    0     -0.12      0.00
    2   12    0     -1.13      0.00
    3   12    0      0.43      0.00
    4   12    0     -2.26      0.00
    5   12    0     -0.79      0.00
    6   12    0      4.23      0.00
    7   12    0      2.78      0.00
    8   12    0     -1.58      0.00
    9   12    0      2.74      0.00
  -20   13    0     -2.62      0.00
  -19   13    0      3.59      0.00
  -18   13    0      2.47      0.00
  -17   13    0      0.33      0.00
  -16   13    0     -2.47      0.00
  -15   13    0     -3.90      0.00
  -14   13    0      4.04      0.00
  -13   13    0      1.33      0.00
  -12   13    0     -2.88      0.00
  -11   13    0     -7.53      0.00
  -10   13    0     -1.86      0.00
   -9   13    0      2.98      0.00
   -8   13    0      1.38      0.00
   -7   13    0      0.63      0.00
   -6   13    0     -2.30      0.00
   -5   13    0     -0.96      0.00
   -4   13    0      1.54      0.00
   -3   13    0     -1.22      0.00
   -2   13    0      0.14      0.00
   -1   13    0     -1.87      0.00
    0   13    0     -1.11      0.00
    1   13    0     -2.40      0.00
    2   13    0      6.16      0.00
    3   13    0     -0.43      0.00
    4   13    0     -0.96      0.00
    5   13    0     -0.09      0.00
    6   13    0     -1.87      0.00
    7   13    0     -3.83      0.00
    8   13    0     -1.00      0.00
  -20   14    0     -0.90      0.00
  -19   14    0     -4.76      0.00
  -18   14    0      0.53      0.00
  -17   14    0      0.85      0.00
  -16   14    0      0.21      0.00
  -15   14    0      2.21      0.00
  -14   14    0     -3.06      0.00
  -13   14    0      1.43      0.00
  -12   14    0      2.11      0.00
  -11   14    0      3.11      0.00
  -10   14    0     -1.73      0.00
   -9   14    0     -0.98      0.00
   -8   14    0      0.71      0.00
   -7   14    0     -2.11      0.00
   -6   14    0      0.46      0.00
   -5   14    0      0.24      0.00
   -4   14    0     -1.89      0.00
   -3   14    0      4.71      0.00
   -2   14    0     -0.68      0.00
   -1   14    0      1.21      0.00
    0   14    0      0.31      0.00
    1   14    0     -1.04      0.00
    2   14    0     -3.34      0.00
    3   14    0      3.88      0.00
    4   14    0     -0.04      0.00
    5   14    0     -1.23      0.00
    6   14    0      0.65      0.00
    7   14    0      1.95      0.00
  -19   15    0      3.38      0.00
  -18   15    0     -0.27      0.00
  -17   15    0     -1.61      0.00
  -16   15    0      2.77      0.00
  -15   15    0     -0.54      0.00
  -14   15    0     -0.10      0.00
  -13   15    0     -1.33      0.00
  -12   15    0     -1.20      0.00
  -11   15    0      1.95      0.00
  -10   15    0      4.07      0.00
   -9   15    0     -3.84      0.00
   -8   15    0      0.89      0.00
   -7   15    0      4.07      0.00
   -6   15    0     -2.61      0.00
   -5   15    0     -1.55      0.00
   -4   15    0      0.14      0.00
   -3   15    0     -4.01      0.00
   -2   15    0      2.62      0.00
   -1   15    0     -0.94      0.00
    0   15    0      2.58      0.00
    1   15    0      0.72      0.00
    2   15    0     -2.48      0.00
    3   15    0     -2.96      0.00
    4   15    0      4.12      0.00
    5   15    0      3.01      0.00
    6   15    0      1.43      0.00
  -19   16    0     -4.54      0.00
  -18   16    0     -0.39      0.00
  -17   16    0      1.93      0.00
  -16   16    0     -4.42      0.00
  -15   16    0      0.05      0.00
  -14   16    0      1.52      0.00
  -13   16    0     -0.70      0.00
  -12   16    0      0.38      0.00
  -11   16    0     -0.32      0.00
  -10   16    0     -2.81      0.00
   -9   16    0      4.55      0.00
   -8   16    0     -1.31      0.00
   -7   16    0     -3.55      0.00
   -6   16    0      3.58      0.00
   -5   16    0      1.81      0.00
   -4   16    0     -0.06      0.00
   -3   16    0      2.45      0.00
   -2   16    0     -4.13      0.00
   -1   16    0      0.83      0.00
    0   16    0      0.85      0.00
    1   16    0     -1.96      0.00
    2   16    0      1.53      0.00
    3   16    0      0.29      0.00
    4   16    0     -7.40      0.00
    5   16    0     -2.04      0.00
  -19   17    0      4.36      0.00
  -18   17    0      1.41      0.00
  -17   17    0      0.61      0.00
  -16   17    0      0.79      0.00
  -15   17    0      0.39      0.00
  -14   17    0     -1.36      0.00
  -13   17    0      0.93      0.00
  -12   17    0     -1.25      0.00
  -11   17    0     -3.57      0.00
  -10   17    0      2.99      0.00
   -9   17    0     -2.21      0.00
   -8   17    0     -0.99      0.00
   -7   17    0      1.37      0.00
   -6   17    0     -0.77      0.00
   -5   17    0      0.80      0.00
   -4   17    0      0.26      0.00
   -3   17    0     -1.97      0.00
   -2   17    0      0.87      0.00
   -1   17    0     -5.05      0.00
    0   17    0      0.05      0.00
    1   17    0      8.14      0.00
    2   17    0     -0.14      0.00
    3   17    0     -0.37      0.00
  -18   18    0     -2.31      0.00
  -17   18    0      0.03      0.00
  -16   18    0      2.13      0.00
  -15   18    0     -3.13      0.00
  -14   18    0      1.10      0.00
  -13   18    0      2.38      0.00
  -12   18    0      2.59      0.00
  -11   18    0      1.82      0.00
  -10   18    0     -1.99      0.00
   -9   18    0      0.60      0.00
   -8   18    0     -1.26      0.00
   -7   18    0     -0.63      0.00
   -6   18    0     -0.25      0.00
   -5   18    0     -0.53      0.00
   -4   18    0      3.01      0.00
   -3   18    0      2.87      0.00
   -2   18    0      2.27      0.00
   -1   18    0      2.80      0.00
    0   18    0     -4.43      0.00
    1   18    0     -6.68      0.00
    2   18    0      1.83      0.00
  -18   19    0     -0.37      0.00
  -17   19    0     -1.12      0.00
  -16   19    0     -0.07      0.00
  -15   19    0      1.76      0.00
  -14   19    0     -2.09      0.00
  -13   19    0     -1.56      0.00
  -12   19    0      0.74      0.00
  -11   19    0     -1.49      0.00
  -10   19    0     -2.49      0.00
   -9   19    0      3.79      0.00
   -8   19    0      4.79      0.00
   -7   19    0      0.26      0.00
   -6   19    0     -2.15      0.00
   -5   19    0     -3.77      0.00
   -4   19    0     -4.65      0.00
   -3   19    0     -2.77      0.00
   -2   19    0     -1.41      0.00
   -1   19    0      2.27      0.00
    0   19    0      2.54      0.00
  -17   20    0     -0.13      0.00
  -16   20    0      1.93      0.00
  -15   20    0      1.52      0.00
  -14   20    0     -1.05      0.00
  -13   20    0     -2.32      0.00
  -12   20    0      1.12      0.00
  -11   20    0      2.11      0.00
  -10   20    0     -1.44      0.00
   -9   20    0     -5.81      0.00
   -8   20    0     -1.47      0.00
   -7   20    0     -0.47      0.00
   -6   20    0      4.29      0.00
   -5   20    0      5.78      0.00
   -4   20    0      2.33      0.00
   -3   20    0      2.00      0.00
   -2   20    0      1.03      0.00
  -16   21    0     -3.43      0.00
  -15   21    0      2.27      0.00
  -14   21    0      2.11      0.00
  -13   21    0     -0.02      0.00
  -12   21    0     -2.76      0.00
  -11   21    0      1.96      0.00
  -10   21    0      4.61      0.00
   -9   21    0      2.01      0.00
   -8   21    0      0.89      0.00
   -7   21    0      1.80      0.00
   -6   21    0     -6.35      0.00
   -5   21    0     -5.04      0.00
   -4   21    0     -0.46      0.00
  -13   22    0     -1.14      0.00
  -12   22    0     -0.14      0.00
  -11   22    0     -0.46      0.00
  -10   22    0     -3.10      0.00
   -9   22    0     -0.26      0.00
   -8   22    0     -1.83      0.00
   -7   22    0     -2.03      0.00
    6  -22    1      1.48      0.00
    7  -22    1     -4.19      0.00
    8  -22    1      0.47      0.00
    9  -22    1     -1.11      0.00
   10  -22    1     -0.85      0.00
   11  -22    1      1.75      0.00
   12  -22    1     -2.15      0.00
   13  -22    1     -2.10      0.00
    3  -21    1      0.46      0.00
    4  -21    1     -2.36      0.00
    5  -21    1     -4.97      0.00
    6  -21    1     -1.49      0.00
    7  -21    1      2.36      0.00
    8  -21    1      1.01      0.00
    9  -21    1      3.24      0.00
   10  -21    1      2.48      0.00
   11  -21    1     -3.03      0.00
   12  -21    1      0.05      0.00
   13  -21    1      4.88      0.00
   14  -21    1      4.67      0.00
   15  -21    1      2.82      0.00
    1  -20    1      1.19      0.00
    2  -20    1      3.61      0.00
    3  -20    1     -1.19      0.00
    4  -20    1      3.07      0.00
    5  -20    1      5.12      0.00
    6  -20    1      1.19      0.00
    7  -20    1     -0.35      0.00
    8  -20    1     -4.03      0.00
    9  -20    1     -2.71      0.00
   10  -20    1      0.80      0.00
   11  -20    1      1.36      0.00
   12  -20    1     -2.62      0.00
   13  -20    1     -5.92      0.00
   14  -20    1     -0.51      0.00
   15  -20    1     -2.04      0.00
   16  -20    1      0.29      0.00
   17  -20    1      0.25      0.00
   -1  -19    1      3.42      0.00
    0  -19    1      1.01      0.00
    1  -19    1     -0.83      0.00
    2  -19    1     -1.88      0.00
    3  -19    1     -1.55      0.00
    4  -19    1     -3.07      0.00
    5  -19    1     -2.05      0.00
    6  -19    1     -0.90      0.00
    7  -19    1      2.03      0.00
    8  -19    1      3.93      0.00
    9  -19    1     -2.08      0.00
   10  -19    1     -0.85      0.00
   11  -19    1      1.54      0.00
   12  -19    1      1.24      0.00
   13  -19    1      2.11      0.00
   14  -19    1      1.06      0.00
   15  -19    1      3.11      0.00
   16  -19    1     -1.98      0.00
   17  -19    1      1.10      0.00
   -2  -18    1     -2.28      0.00
   -1  -18    1     -7.23      0.00
    0  -18    1      1.78      0.00
    1  -18    1      1.42      0.00
    2  -18    1      0.50      0.00
    3  -18    1      2.38      0.00
    4  -18    1     -0.61      0.00
    5  -18    1     -0.39      0.00
    6  -18    1      1.65      0.00
    7  -18    1     -0.53      0.00
    8  -18    1     -0.45      0.00
    9  -18    1      0.24      0.00
   10  -18    1     -1.68      0.00
   11  -18    1      1.91      0.00
   12  -18    1      1.25      0.00
   13  -18    1     -1.07      0.00
   14  -18    1     -2.92      0.00
   15  -18    1     -1.06      0.00
   16  -18    1      1.71      0.00
   17  -18    1     -4.78      0.00
   18  -18    1     -0.78      0.00
   -4  -17    1      3.85      0.00
   -3  -17    1     -3.75      0.00
   -2  -17    1      2.55      0.00
   -1  -17    1      5.58      0.00
    0  -17    1     -3.39      0.00
    1  -17    1      0.16      0.00
    2  -17    1      0.68      0.00
    3  -17    1     -0.78      0.00
    4  -17    1      1.28      0.00
    5  -17    1     -1.37      0.00
    6  -17    1     -0.56      0.00
    7  -17    1     -0.17      0.00
    8  -17    1     -1.64      0.00
    9  -17    1      1.20      0.00
   10  -17    1      1.39      0.00
   11  -17    1     -2.36      0.00
   12  -17    1      0.49      0.00
   13  -17    1      0.52      0.00
   14  -17    1     -0.22      0.00
   15  -17    1      1.82      0.00
   16  -17    1      0.90      0.00
   17  -17    1      2.49      0.00
   18  -17    1      1.72      0.00
   19  -17    1      2.38      0.00
   -5  -16    1     -5.07      0.00
   -4  -16    1     -2.22      0.00
   -3  -16    1      5.56      0.00
   -2  -16    1      0.89      0.00
   -1  -16    1     -3.03      0.00
    0  -16    1     -0.04      0.00
    1  -16    1     -2.58      0.00
    2  -16    1     -0.60      0.00
    3  -16    1      2.38      0.00
    4  -16    1      0.56      0.00
    5  -16    1      3.86      0.00
    6  -16    1     -2.52      0.00
    7  -16    1     -3.67      0.00
    8  -16    1      3.63      0.00
    9  -16    1      0.38      0.00
   10  -16    1     -3.25      0.00
   11  -16    1      1.21      0.00
   12  -16    1      0.69      0.00
   13  -16    1      0.51      0.00
   14  -16    1      1.38      0.00
   15  -16    1     -4.81      0.00
   16  -16    1      0.71      0.00
   17  -16    1      2.65      0.00
   18  -16    1     -2.91      0.00
   19  -16    1     -2.67      0.00
   -6  -15    1      1.75      0.00
   -5  -15    1      1.17      0.00
   -4  -15    1     -2.17      0.00
   -3  -15    1     -4.72      0.00
   -2  -15    1     -0.30      0.00
   -1  -15    1      2.50      0.00
    0  -15    1      0.58      0.00
    1  -15    1      0.87      0.00
    2  -15    1     -0.39      0.00
    3  -15    1     -2.14      0.00
    4  -15    1      0.90      0.00
    5  -15    1     -4.08      0.00
    6  -15    1      3.43      0.00
    7  -15    1      3.55      0.00
    8  -15    1     -4.39      0.00
    9  -15    1      0.47      0.00
   10  -15    1      3.37      0.00
   11  -15    1     -2.62      0.00
   12  -15    1     -3.80      0.00
   13  -15    1      0.78      0.00
   14  -15    1      0.12      0.00
   15  -15    1      1.82      0.00
   16  -15    1     -1.98      0.00
   17  -15    1     -3.57      0.00
   18  -15    1      2.17      0.00
   19  -15    1      2.81      0.00
   -7  -14    1      0.39      0.00
   -6  -14    1     -0.33      0.00
   -5  -14    1      1.72      0.00
   -4  -14    1      3.64      0.00
   -3  -14    1     -0.09      0.00
   -2  -14    1     -2.70      0.00
   -1  -14    1      2.61      0.00
    0  -14    1     -0.93      0.00
    1  -14    1      1.91      0.00
    2  -14    1      0.73      0.00
    3  -14    1     -0.60      0.00
    4  -14    1     -2.03      0.00
    5  -14    1      3.58      0.00
    6  -14    1     -1.54      0.00
    7  -14    1      0.75      0.00
    8  -14    1      1.30      0.00
    9  -14    1     -1.21      0.00
   10  -14    1      2.77      0.00
   11  -14    1      3.08      0.00
   12  -14    1      2.33      0.00
   13  -14    1     -3.72      0.00
   14  -14    1      0.91      0.00
   15  -14    1      3.33      0.00
   16  -14    1      0.99      0.00
   17  -14    1      2.75      0.00
   18  -14    1     -1.99      0.00
   19  -14    1     -1.87      0.00
   -8  -13    1     -4.04      0.00
   -7  -13    1     -1.63      0.00
   -6  -13    1     -0.46      0.00
   -5  -13    1     -1.71      0.00
   -4  -13    1     -0.55      0.00
   -3  -13    1      2.46      0.00
   -2  -13    1      1.09      0.00
   -1  -13    1     -5.74      0.00
    0  -13    1      2.20      0.00
    1  -13    1     -3.73      0.00
    2  -13    1      2.83      0.00
    3  -13    1     -0.60      0.00
    4  -13    1     -1.38      0.00
    5  -13    1     -5.15      0.00
    6  -13    1      1.17      0.00
    7  -13    1      0.70      0.00
    8  -13    1      1.86      0.00
    9  -13    1     -1.04      0.00
   10  -13    1     -7.47      0.00
   11  -13    1     -1.78      0.00
   12  -13    1      1.50      0.00
   13  -13    1      4.37      0.00
   14  -13    1     -2.70      0.00
   15  -13    1     -5.31      0.00
   16  -13    1     -0.63      0.00
   17  -13    1      0.20      0.00
   18  -13    1      1.49      0.00
   19  -13    1     -1.88      0.00
   -9  -12    1     -1.98      0.00
   -8  -12    1      1.64      0.00
   -7  -12    1      4.28      0.00
   -6  -12    1      0.69      0.00
   -5  -12    1     -2.09      0.00
   -4  -12    1     -1.58      0.00
   -3  -12    1      2.86      0.00
   -2  -12    1     -1.95      0.00
   -1  -12    1      2.73      0.00
    0  -12    1     -0.19      0.00
    1  -12    1      5.57      0.00
    2  -12    1     -5.92      0.00
    3  -12    1      6.02      0.00
    4  -12    1      1.92      0.00
    5  -12    1      0.00      0.00
    6  -12    1     -2.13      0.00
    7  -12    1     -0.05      0.00
    8  -12    1     -0.64      0.00
    9  -12    1      0.16      0.00
   10  -12    1      2.75      0.00
   11  -12    1     -0.16      0.00
   12  -12    1     -1.54      0.00
   13  -12    1     -0.77      0.00
   14  -12    1      2.86      0.00
   15  -12    1      3.06      0.00
   16  -12    1     -0.35      0.00
   17  -12    1     -1.33      0.00
   18  -12    1      0.45      0.00
   19  -12    1      2.32      0.00
   20  -12    1      2.89      0.00
  -10  -11    1     -2.21      0.00
   -9  -11    1      1.92      0.00
   -8  -11    1     -1.21      0.00
   -7  -11    1     -5.19      0.00
   -6  -11    1      0.80      0.00
   -5  -11    1      2.92      0.00
   -4  -11    1     -0.59      0.00
   -3  -11    1     -4.04      0.00
   -2  -11    1      3.91      0.00
   -1  -11    1     -0.47      0.00
    0  -11    1      0.55      0.00
    1  -11    1    -12.04      0.00
    2  -11    1      6.65      0.00
    3  -11    1     -3.12      0.00
    4  -11    1      3.72      0.00
    5  -11    1      3.55      0.00
    6  -11    1     -0.66      0.00
    7  -11    1     -1.88      0.00
    8  -11    1      1.71      0.00
    9  -11    1      3.26      0.00
   10  -11    1      3.43      0.00
   11  -11    1      1.92      0.00
   12  -11    1     -1.49      0.00
   13  -11    1     -2.57      0.00
   14  -11    1     -1.08      0.00
   15  -11    1      0.24      0.00
   16  -11    1     -0.33      0.00
   17  -11    1      1.32      0.00
   18  -11    1     -2.42      0.00
   19  -11    1     -2.74      0.00
   20  -11    1     -1.17      0.00
  -11  -10    1     -2.29      0.00
  -10  -10    1      3.32      0.00
   -9  -10    1      2.95      0.00
   -8  -10    1     -1.04      0.00
   -7  -10    1      1.76      0.00
   -6  -10    1      1.18      0.00
   -5  -10    1      0.74      0.00
   -4  -10    1     -3.39      0.00
   -3  -10    1      2.87      0.00
   -2  -10    1      0.57      0.00
   -1  -10    1      0.11      0.00
    0  -10    1     -2.42      0.00
    1  -10    1     13.41      0.00
    2  -10    1    -10.36      0.00
    3  -10    1     -4.24      0.00
    4  -10    1     -2.37      0.00
    5  -10    1      3.02      0.00
    6  -10    1     -2.56      0.00
    7  -10    1     -3.41      0.00
    8  -10    1     -2.32      0.00
    9  -10    1     -4.08      0.00
   10  -10    1     -4.20      0.00
   11  -10    1     -2.06      0.00
   12  -10    1      2.57      0.00
   13  -10    1      3.42      0.00
   14  -10    1      1.21      0.00
   15  -10    1     -2.48      0.00
   16  -10    1      0.56      0.00
   17  -10    1      0.18      0.00
   18  -10    1      5.22      0.00
   19  -10    1      2.38      0.00
  -12   -9    1      3.10      0.00
  -11   -9    1      1.13      0.00
  -10   -9    1     -4.29      0.00
   -9   -9    1     -4.58      0.00
   -8   -9    1      2.01      0.00
   -7   -9    1     -0.06      0.00
   -6   -9    1      0.33      0.00
   -5   -9    1     -6.71      0.00
   -4   -9    1      4.76      0.00
   -3   -9    1     -2.30      0.00
   -2   -9    1     -1.32      0.00
   -1   -9    1     -3.88      0.00
    0   -9    1      8.93      0.00
    1   -9    1     -8.05      0.00
    2   -9    1      2.95      0.00
    3   -9    1      7.77      0.00
    4   -9    1      3.80      0.00
    5   -9    1     -5.71      0.00
    6   -9    1      3.35      0.00
    7   -9    1      7.07      0.00
    8   -9    1      0.47      0.00
    9   -9    1      3.98      0.00
   10   -9    1      3.19      0.00
   11   -9    1      0.97      0.00
   12   -9    1     -5.31      0.00
   13   -9    1     -4.12      0.00
   14   -9    1     -0.78      0.00
   15   -9    1      2.13      0.00
   16   -9    1     -1.58      0.00
   17   -9    1     -1.21      0.00
   18   -9    1     -2.39      0.00
   19   -9    1     -2.72      0.00
  -13   -8    1     -6.45      0.00
  -12   -8    1     -0.27      0.00
  -11   -8    1     -0.12      0.00
  -10   -8    1      1.07      0.00
   -9   -8    1      3.89      0.00
   -8   -8    1      0.19      0.00
   -7   -8    1      0.73      0.00
   -6   -8    1     -6.18      0.00
   -5   -8    1     13.58      0.00
   -4   -8    1      0.44      0.00
   -3   -8    1     -4.56      0.00
   -2   -8    1     -1.31      0.00
   -1   -8    1     11.11      0.00
    0   -8    1    -16.76      0.00
    1   -8    1      4.71      0.00
    2   -8    1      8.55      0.00
    4   -8    1    -12.61      0.00
    5   -8    1      3.77      0.00
    6   -8    1      5.98      0.00
    7   -8    1     -8.08      0.00
    8   -8    1     -0.07      0.00
    9   -8    1     -2.10      0.00
   10   -8    1      0.27      0.00
   11   -8    1      1.81      0.00
   12   -8    1      7.33      0.00
   13   -8    1      1.99      0.00
   14   -8    1      1.09      0.00
   15   -8    1      0.72      0.00
   16   -8    1      0.26      0.00
   17   -8    1     -0.56      0.00
   18   -8    1      1.62      0.00
   19   -8    1      3.26      0.00
  -13   -7    1      5.95      0.00
  -12   -7    1      1.39      0.00
  -11   -7    1     -3.67      0.00
  -10   -7    1      0.91      0.00
   -9   -7    1     -0.95      0.00
   -8   -7    1     -1.14      0.00
   -7   -7    1     -5.20      0.00
   -6   -7    1     12.43      0.00
   -5   -7    1    -11.07      0.00
   -4   -7    1     -5.42      0.00
   -3   -7    1      7.19      0.00
   -2   -7    1      3.02      0.00
   -1   -7    1    -17.39      0.00
    0   -7    1     17.68      0.00
    1   -7    1      2.45      0.00
    2   -7    1    -11.65      0.00
    3   -7    1      0.77      0.00
    4   -7    1     16.30      0.00
    5   -7    1     -4.41      0.00
    6   -7    1    -13.20      0.00
    7   -7    1      8.24      0.00
    8   -7    1      1.00      0.00
    9   -7    1     -2.30      0.00
   10   -7    1     -6.87      0.00
   11   -7    1      0.19      0.00
   12   -7    1     -1.82      0.00
   13   -7    1     -1.80      0.00
   14   -7    1     -3.27      0.00
   15   -7    1     -0.10      0.00
   16   -7    1     -0.20      0.00
   17   -7    1      1.93      0.00
   18   -7    1     -1.15      0.00
   19   -7    1     -0.54      0.00
  -14   -6    1     -2.96      0.00
  -13   -6    1     -7.89      0.00
  -12   -6    1     -0.43      0.00
  -11   -6    1      7.02      0.00
  -10   -6    1     -3.74      0.00
   -9   -6    1     -0.63      0.00
   -8   -6    1     -0.25      0.00
   -7   -6    1      6.89      0.00
   -6   -6    1    -13.64      0.00
   -5   -6    1      6.00      0.00
   -4   -6    1      5.59      0.00
   -3   -6    1     -2.71      0.00
   -2   -6    1     -5.87      0.00
   -1   -6    1     18.72      0.00
    0   -6    1    -13.67      0.00
    1   -6    1     -5.93      0.00
    2   -6    1      2.34      0.00
    3   -6    1      5.43      0.00
    4   -6    1     -0.44      0.00
    5   -6    1      0.86      0.00
    6   -6    1      7.32      0.00
    7   -6    1     -4.92      0.00
    8   -6    1      0.97      0.00
    9   -6    1      1.40      0.00
   10   -6    1      5.96      0.00
   11   -6    1     -5.33      0.00
   12   -6    1     -1.27      0.00
   13   -6    1      2.91      0.00
   14   -6    1      4.26      0.00
   15   -6    1     -0.96      0.00
   16   -6    1      0.45      0.00
   17   -6    1     -4.18      0.00
   18   -6    1     -1.16      0.00
   19   -6    1      0.63      0.00
  -15   -5    1      0.08      0.00
  -14   -5    1      2.96      0.00
  -13   -5    1      5.52      0.00
  -12   -5    1     -0.27      0.00
  -11   -5    1     -1.20      0.00
  -10   -5    1      1.38      0.00
   -9   -5    1      0.16      0.00
   -8   -5    1      5.17      0.00
   -7   -5    1     -9.14      0.00
   -6   -5    1      8.54      0.00
   -5   -5    1     -3.18      0.00
   -4   -5    1      4.05      0.00
   -3   -5    1     -8.41      0.00
   -2   -5    1     -0.69      0.00
   -1   -5    1     -9.15      0.00
    0   -5    1     19.45      0.00
    1   -5    1      4.39      0.00
    2   -5    1     -4.73      0.00
    3   -5    1    -13.94      0.00
    4   -5    1     -9.99      0.00
    5   -5    1      9.51      0.00
    6   -5    1      0.89      0.00
    7   -5    1      2.16      0.00
    8   -5    1     -1.48      0.00
    9   -5    1      6.87      0.00
   10   -5    1     -2.97      0.00
   11   -5    1      2.03      0.00
   12   -5    1     -0.73      0.00
   13   -5    1      1.06      0.00
   14   -5    1     -2.84      0.00
   15   -5    1      1.82      0.00
   16   -5    1      0.23      0.00
   17   -5    1      1.49      0.00
   18   -5    1      2.63      0.00
   19   -5    1     -0.76      0.00
  -15   -4    1      0.47      0.00
  -14   -4    1     -2.87      0.00
  -13   -4    1     -1.33      0.00
  -12   -4    1     -2.68      0.00
  -11   -4    1     -2.50      0.00
  -10   -4    1      1.52      0.00
   -9   -4    1      1.27      0.00
   -8   -4    1     -6.59      0.00
   -7   -4    1      9.92      0.00
   -6   -4    1     -5.47      0.00
   -5   -4    1      2.09      0.00
   -4   -4    1    -11.01      0.00
   -3   -4    1     26.67      0.00
   -2   -4    1      2.16      0.00
   -1   -4    1     -9.41      0.00
    0   -4    1    -18.77      0.00
    1   -4    1      5.95      0.00
    2   -4    1     17.05      0.00
    3   -4    1      1.62      0.00
    4   -4    1     11.76      0.00
    5   -4    1     -1.35      0.00
    6   -4    1     -8.28      0.00
    7   -4    1     -8.95      0.00
    8   -4    1      1.89      0.00
    9   -4    1     -7.67      0.00
   10   -4    1      5.61      0.00
   11   -4    1      0.69      0.00
   12   -4    1     -0.86      0.00
   13   -4    1     -3.82      0.00
   14   -4    1      1.79      0.00
   15   -4    1     -0.38      0.00
   16   -4    1      0.01      0.00
   17   -4    1      0.67      0.00
   18   -4    1     -2.66      0.00
  -16   -3    1     -4.38      0.00
  -15   -3    1      1.85      0.00
  -14   -3    1      1.25      0.00
  -13   -3    1     -2.03      0.00
  -12   -3    1      3.18      0.00
  -11   -3    1      4.32      0.00
  -10   -3    1      1.51      0.00
   -9   -3    1     -7.67      0.00
   -8   -3    1      7.51      0.00
   -7   -3    1     -5.23      0.00
   -6   -3    1      1.18      0.00
   -5   -3    1     -9.75      0.00
   -4   -3    1      9.37      0.00
   -3   -3    1    -19.42      0.00
   -2   -3    1      2.65      0.00
   -1   -3    1     -1.06      0.00
    0   -3    1      6.77      0.00
    1   -3    1     -3.13      0.00
    2   -3    1    -28.21      0.00
    3   -3    1     -5.87      0.00
    4   -3    1    -11.40      0.00
    5   -3    1      3.93      0.00
    6   -3    1      8.63      0.00
    7   -3    1      8.25      0.00
    8   -3    1     -7.49      0.00
    9   -3    1      5.76      0.00
   10   -3    1     -1.97      0.00
   11   -3    1      2.45      0.00
   12   -3    1     -1.13      0.00
   13   -3    1      0.18      0.00
   14   -3    1     -0.98      0.00
   15   -3    1     -0.99      0.00
   16   -3    1      0.33      0.00
   17   -3    1      0.43      0.00
   18   -3    1      2.07      0.00
  -16   -2    1      2.36      0.00
  -15   -2    1      0.31      0.00
  -14   -2    1      0.93      0.00
  -13   -2    1      0.80      0.00
  -12   -2    1     -2.87      0.00
  -11   -2    1     -4.13      0.00
  -10   -2    1     -4.28      0.00
   -9   -2    1     10.43      0.00
   -8   -2    1     -4.98      0.00
   -7   -2    1      4.71      0.00
   -6   -2    1     -2.76      0.00
   -5   -2    1     14.05      0.00
   -4   -2    1     -6.81      0.00
   -3   -2    1      6.82      0.00
   -2   -2    1     -8.63      0.00
   -1   -2    1     19.80      0.00
    0   -2    1     26.85      0.00
    1   -2    1     15.06      0.00
    2   -2    1     48.26      0.00
    3   -2    1      6.34      0.00
    4   -2    1    -19.72      0.00
    5   -2    1     -8.68      0.00
    6   -2    1     13.84      0.00
    7   -2    1     -5.66      0.00
    8   -2    1      3.33      0.00
    9   -2    1     -9.49      0.00
   10   -2    1      1.40      0.00
   11   -2    1      1.19      0.00
   12   -2    1      4.39      0.00
   13   -2    1     -1.22      0.00
   14   -2    1      0.13      0.00
   15   -2    1      1.46      0.00
   16   -2    1     -1.39      0.00
   17   -2    1     -1.78      0.00
   18   -2    1     -0.71      0.00
  -17   -1    1     -3.96      0.00
  -16   -1    1     -0.10      0.00
  -15   -1    1     -3.14      0.00
  -14   -1    1      0.14      0.00
  -13   -1    1      2.53      0.00
  -12   -1    1      2.84      0.00
  -11   -1    1     -0.55      0.00
  -10   -1    1      2.01      0.00
   -9   -1    1     -4.92      0.00
   -8   -1    1     -0.63      0.00
   -7   -1    1     -8.87      0.00
   -5   -1    1     -8.73      0.00
   -4   -1    1    -13.84      0.00
   -3   -1    1      7.32      0.00
   -2   -1    1     57.78      0.00
   -1   -1    1   -102.15      0.00
    2   -1    1     -5.95      0.00
    3   -1    1      5.46      0.00
    4   -1    1     18.46      0.00
    5   -1    1     -0.75      0.00
    6   -1    1    -22.76      0.00
    7   -1    1     13.67      0.00
    8   -1    1      6.64      0.00
    9   -1    1      2.75      0.00
   10   -1    1     -9.77      0.00
   11   -1    1     -0.08      0.00
   12   -1    1     -0.52      0.00
   13   -1    1      1.01      0.00
   14   -1    1     -0.79      0.00
   15   -1    1      1.75      0.00
   16   -1    1      1.43      0.00
   17   -1    1     -1.39      0.00
  -17    0    1      2.00      0.00
  -16    0    1     -1.34      0.00
  -15    0    1      2.77      0.00
  -14    0    1     -0.16      0.00
  -13    0    1     -4.03      0.00
  -12    0    1     -2.43      0.00
  -11    0    1      7.95      0.00
  -10    0    1     -1.38      0.00
   -9    0    1     -6.79      0.00
   -8    0    1      0.49      0.00
   -7    0    1     18.04      0.00
   -6    0    1    -17.08      0.00
   -5    0    1      1.23      0.00
   -4    0    1     14.68      0.00
   -3    0    1    -23.46      0.00
   -2    0    1    -34.25      0.00
    1    0    1   -133.22      0.00
    2    0    1    -14.56      0.00
    3    0    1     21.37      0.00
    4    0    1      0.51      0.00
    5    0    1    -11.96      0.00
    6    0    1     16.34      0.00
    7    0    1    -11.61      0.00
    8    0    1     -5.21      0.00
    9    0    1      3.87      0.00
   10    0    1      6.87      0.00
   11    0    1     -4.63      0.00
   12    0    1     -0.40      0.00
   13    0    1      1.75      0.00
   14    0    1      0.10      0.00
   15    0    1     -1.92      0.00
   16    0    1      2.69      0.00
  -18    1    1     -0.97      0.00
  -17    1    1      0.34      0.00
  -16    1    1      0.69      0.00
  -15    1    1     -0.43      0.00
  -14    1    1      2.45      0.00
  -13    1    1      0.14      0.00
  -12    1    1     -1.86      0.00
  -11    1    1     -5.19      0.00
  -10    1    1      7.91      0.00
   -9    1    1      6.86      0.00
   -8    1    1      0.79      0.00
   -7    1    1    -24.94      0.00
   -6    1    1     12.96      0.00
   -5    1    1     16.87      0.00
   -4    1    1     -9.92      0.00
   -3    1    1    -38.89      0.00
   -2    1    1    -26.21      0.00
    1    1    1     94.26      0.00
    2    1    1     -9.89      0.00
    3    1    1    -15.73      0.00
    4    1    1     -3.24      0.00
    5    1    1     19.40      0.00
    6    1    1     -9.17      0.00
    7    1    1      1.35      0.00
    8    1    1     -0.71      0.00
    9    1    1      4.29      0.00
   10    1    1     -1.47      0.00
   11    1    1      1.59      0.00
   12    1    1     -0.25      0.00
   13    1    1     -2.67      0.00
   14    1    1     -1.79      0.00
   15    1    1     -0.94      0.00
   16    1    1     -2.06      0.00
  -18    2    1      0.15      0.00
  -17    2    1     -0.31      0.00
  -16    2    1     -0.58      0.00
  -15    2    1     -2.66      0.00
  -14    2    1     -2.16      0.00
  -13    2    1      4.23      0.00
  -12    2    1     -1.04      0.00
  -11    2    1     -2.59      0.00
  -10    2    1     -4.30      0.00
   -9    2    1      4.50      0.00
   -8    2    1     -6.24      0.00
   -7    2    1     13.02      0.00
   -6    2    1     -9.34      0.00
   -5    2    1     -9.05      0.00
   -4    2    1     28.57      0.00
   -3    2    1     70.63      0.00
   -2    2    1     -5.63      0.00
   -1    2    1    -30.46      0.00
    0    2    1     36.57      0.00
    1    2    1     -5.69      0.00
    2    2    1     -3.09      0.00
    3    2    1     -8.65      0.00
    4    2    1     17.24      0.00
    5    2    1    -14.13      0.00
    6    2    1     -3.96      0.00
    7    2    1      2.45      0.00
    8    2    1      5.98      0.00
    9    2    1     -9.58      0.00
   10    2    1     -0.41      0.00
   11    2    1      1.66      0.00
   12    2    1      3.74      0.00
   13    2    1      1.13      0.00
   14    2    1      0.37      0.00
   15    2    1      2.71      0.00
   16    2    1      0.04      0.00
  -18    3    1      2.09      0.00
  -17    3    1      0.01      0.00
  -16    3    1      0.42      0.00
  -15    3    1      0.98      0.00
  -14    3    1      1.84      0.00
  -13    3    1     -0.37      0.00
  -12    3    1      2.50      0.00
  -11    3    1     -0.83      0.00
  -10    3    1     -0.59      0.00
   -9    3    1     -5.28      0.00
   -8    3    1     14.57      0.00
   -7    3    1     -2.71      0.00
   -6    3    1    -12.20      0.00
   -5    3    1     -6.75      0.00
   -4    3    1     -7.68      0.00
   -3    3    1    -35.16      0.00
   -2    3    1      9.70      0.00
   -1    3    1     44.58      0.00
    0    3    1    -23.99      0.00
    1    3    1    -18.32      0.00
    2    3    1     -0.70      0.00
    3    3    1     20.46      0.00
    4    3    1    -18.65      0.00
    5    3    1     10.19      0.00
    6    3    1      5.05      0.00
    7    3    1     -0.58      0.00
    8    3    1     -8.36      0.00
    9    3    1      6.53      0.00
   10    3    1      2.60      0.00
   11    3    1     -3.03      0.00
   12    3    1     -4.35      0.00
   13    3    1      1.98      0.00
   14    3    1     -0.97      0.00
   15    3    1     -3.64      0.00
  -19    4    1     -1.80      0.00
  -18    4    1     -1.22      0.00
  -17    4    1      0.84      0.00
  -16    4    1     -1.25      0.00
  -15    4    1     -0.14      0.00
  -14    4    1     -3.03      0.00
  -13    4    1      1.35      0.00
  -12    4    1      0.91      0.00
  -11    4    1      1.40      0.00
  -10    4    1     -2.46      0.00
   -9    4    1      3.56      0.00
   -8    4    1    -10.05      0.00
   -7    4    1      2.76      0.00
   -6    4    1     17.00      0.00
   -5    4    1      7.60      0.00
   -4    4    1     -7.51      0.00
   -3    4    1     17.16      0.00
   -2    4    1      1.40      0.00
   -1    4    1    -39.81      0.00
    0    4    1     12.49      0.00
    1    4    1     25.01      0.00
    2    4    1      7.33      0.00
    3    4    1    -27.83      0.00
    4    4    1      9.86      0.00
    5    4    1     -5.25      0.00
    6    4    1      4.45      0.00
    7    4    1     -4.87      0.00
    8    4    1      5.14      0.00
    9    4    1      0.74      0.00
   10    4    1     -2.06      0.00
   11    4    1      1.44      0.00
   12    4    1      0.74      0.00
   13    4    1      0.94      0.00
   14    4    1      2.01      0.00
   15    4    1     -0.36      0.00
  -19    5    1      2.20      0.00
  -18    5    1     -0.89      0.00
  -17    5    1     -1.87      0.00
  -16    5    1      2.98      0.00
  -15    5    1     -1.42      0.00
  -14    5    1      0.54      0.00
  -13    5    1     -1.29      0.00
  -12    5    1      1.95      0.00
  -11    5    1     -2.20      0.00
  -10    5    1      0.47      0.00
   -9    5    1     -7.22      0.00
   -8    5    1      0.38      0.00
   -7    5    1      1.01      0.00
   -6    5    1     -9.02      0.00
   -5    5    1    -15.51      0.00
   -4    5    1      4.04      0.00
   -3    5    1      3.66      0.00
   -2    5    1      0.83      0.00
   -1    5    1     13.80      0.00
    0    5    1    -19.05      0.00
    1    5    1     -2.35      0.00
    2    5    1     -4.91      0.00
    3    5    1     15.39      0.00
    4    5    1     -4.91      0.00
    5    5    1      6.04      0.00
    6    5    1     -7.25      0.00
    7    5    1      4.61      0.00
    8    5    1     -2.10      0.00
    9    5    1     -3.84      0.00
   10    5    1     -1.78      0.00
   11    5    1      0.93      0.00
   12    5    1      3.01      0.00
   13    5    1     -2.88      0.00
   14    5    1     -1.04      0.00
  -19    6    1     -1.64      0.00
  -18    6    1     -0.03      0.00
  -17    6    1      4.29      0.00
  -16    6    1     -3.26      0.00
  -15    6    1      3.84      0.00
  -14    6    1     -0.16      0.00
  -13    6    1     -2.20      0.00
  -12    6    1     -1.13      0.00
  -11    6    1      8.40      0.00
  -10    6    1      2.95      0.00
   -9    6    1      5.62      0.00
   -8    6    1      3.47      0.00
   -7    6    1      6.52      0.00
   -6    6    1      4.76      0.00
   -5    6    1      2.12      0.00
   -4    6    1     -1.68      0.00
   -3    6    1     -6.20      0.00
   -2    6    1      8.20      0.00
   -1    6    1      1.51      0.00
    0    6    1      9.34      0.00
    1    6    1    -15.55      0.00
    2    6    1      6.15      0.00
    3    6    1      1.46      0.00
    4    6    1      0.84      0.00
    5    6    1     -9.64      0.00
    6    6    1      9.76      0.00
    7    6    1     -0.18      0.00
    8    6    1     -2.52      0.00
    9    6    1      2.01      0.00
   10    6    1      3.98      0.00
   11    6    1     -3.56      0.00
   12    6    1     -3.78      0.00
   13    6    1      1.29      0.00
  -20    7    1     -4.21      0.00
  -19    7    1     -1.20      0.00
  -18    7    1      1.42      0.00
  -17    7    1     -2.87      0.00
  -16    7    1      1.94      0.00
  -15    7    1     -2.96      0.00
  -14    7    1     -0.34      0.00
  -13    7    1     -1.86      0.00
  -12    7    1     -1.58      0.00
  -11    7    1     -7.84      0.00
  -10    7    1     -4.17      0.00
   -9    7    1     -1.89      0.00
   -8    7    1     -4.07      0.00
   -7    7    1    -13.40      0.00
   -6    7    1      3.50      0.00
   -5    7    1     12.49      0.00
   -4    7    1     -8.28      0.00
   -3    7    1     -5.20      0.00
   -2    7    1     -3.14      0.00
   -1    7    1      7.84      0.00
    0    7    1     -6.82      0.00
    1    7    1     13.87      0.00
    2    7    1     -3.41      0.00
    3    7    1     -8.66      0.00
    4    7    1     -2.96      0.00
    5    7    1      8.89      0.00
    6    7    1     -7.81      0.00
    7    7    1      1.77      0.00
    8    7    1      3.59      0.00
    9    7    1      0.69      0.00
   10    7    1     -1.32      0.00
   11    7    1      0.16      0.00
   12    7    1      3.12      0.00
   13    7    1      1.65      0.00
  -20    8    1      6.52      0.00
  -19    8    1      2.47      0.00
  -18    8    1     -1.78      0.00
  -17    8    1      1.01      0.00
  -16    8    1     -0.51      0.00
  -15    8    1      0.63      0.00
  -14    8    1      3.82      0.00
  -13    8    1      5.52      0.00
  -12    8    1     -1.05      0.00
  -11    8    1      3.01      0.00
  -10    8    1      5.52      0.00
   -9    8    1      2.70      0.00
   -8    8    1     -0.52      0.00
   -7    8    1      5.28      0.00
   -6    8    1      0.18      0.00
   -5    8    1    -10.52      0.00
   -4    8    1      4.58      0.00
   -3    8    1      7.63      0.00
   -2    8    1     -2.58      0.00
   -1    8    1    -14.14      0.00
    0    8    1      6.86      0.00
    1    8    1     -4.54      0.00
    2    8    1     -0.22      0.00
    3    8    1      5.17      0.00
    4    8    1     10.15      0.00
    5    8    1    -10.71      0.00
    6    8    1      0.44      0.00
    7    8    1     -1.15      0.00
    8    8    1     -0.30      0.00
    9    8    1     -0.80      0.00
   10    8    1     -0.34      0.00
   11    8    1      0.66      0.00
   12    8    1     -3.52      0.00
  -20    9    1     -6.51      0.00
  -19    9    1     -2.61      0.00
  -18    9    1      0.16      0.00
  -17    9    1      0.89      0.00
  -16    9    1      1.46      0.00
  -15    9    1     -1.72      0.00
  -14    9    1     -3.55      0.00
  -13    9    1     -3.01      0.00
  -12    9    1      1.91      0.00
  -11    9    1     -1.75      0.00
  -10    9    1     -3.47      0.00
   -9    9    1     -2.21      0.00
   -8    9    1      5.97      0.00
   -7    9    1      2.00      0.00
   -6    9    1    -10.63      0.00
   -5    9    1      6.09      0.00
   -4    9    1      6.73      0.00
   -3    9    1      0.11      0.00
   -2    9    1     -3.94      0.00
   -1    9    1     11.01      0.00
    0    9    1     -3.82      0.00
    1    9    1     -3.51      0.00
    2    9    1      3.47      0.00
    3    9    1      3.38      0.00
    4    9    1     -9.34      0.00
    5    9    1      6.94      0.00
    6    9    1      0.95      0.00
    7    9    1      0.22      0.00
    8    9    1     -2.40      0.00
    9    9    1     -2.38      0.00
   10    9    1      3.18      0.00
   11    9    1      2.17      0.00
  -20   10    1      4.56      0.00
  -19   10    1      1.70      0.00
  -18   10    1     -1.14      0.00
  -17   10    1     -1.52      0.00
  -16   10    1     -1.68      0.00
  -15   10    1      1.38      0.00
  -14   10    1      0.69      0.00
  -13   10    1      1.95      0.00
  -12   10    1     -0.10      0.00
  -11   10    1      0.87      0.00
  -10   10    1     -1.36      0.00
   -9   10    1      0.01      0.00
   -8   10    1     -2.02      0.00
   -7   10    1     -2.03      0.00
   -6   10    1      8.10      0.00
   -5   10    1     -3.00      0.00
   -4   10    1     -8.19      0.00
   -3   10    1     -5.27      0.00
   -2   10    1     10.53      0.00
   -1   10    1     -8.20      0.00
    0   10    1      1.01      0.00
    1   10    1      2.82      0.00
    2   10    1     -2.29      0.00
    3   10    1     -6.04      0.00
    4   10    1      3.94      0.00
    5   10    1      0.62      0.00
    6   10    1     -0.35      0.00
    7   10    1     -1.37      0.00
    8   10    1      1.70      0.00
    9   10    1      4.24      0.00
   10   10    1     -1.84      0.00
  -20   11    1      1.02      0.00
  -19   11    1      0.86      0.00
  -18   11    1      1.10      0.00
  -17   11    1      0.25      0.00
  -16   11    1      2.03      0.00
  -15   11    1     -0.93      0.00
  -14   11    1     -0.25      0.00
  -13   11    1     -1.61      0.00
  -12   11    1     -0.64      0.00
  -11   11    1      1.54      0.00
  -10   11    1      1.87      0.00
   -9   11    1     -2.34      0.00
   -8   11    1     -3.81      0.00
   -7   11    1      3.21      0.00
   -6   11    1      2.13      0.00
   -5   11    1     -0.40      0.00
   -4   11    1     -0.39      0.00
   -3   11    1      6.43      0.00
   -2   11    1     -8.07      0.00
   -1   11    1      4.58      0.00
    0   11    1      2.80      0.00
    1   11    1      0.74      0.00
    2   11    1     -2.59      0.00
    3   11    1      2.92      0.00
    4   11    1      1.34      0.00
    5   11    1     -1.90      0.00
    6   11    1     -2.61      0.00
    7   11    1      2.52      0.00
    8   11    1      0.36      0.00
    9   11    1     -6.52      0.00
  -20   12    1     -2.86      0.00
  -19   12    1     -2.99      0.00
  -18   12    1     -1.71      0.00
  -17   12    1      0.51      0.00
  -16   12    1      0.67      0.00
  -15   12    1      0.74      0.00
  -14   12    1     -2.62      0.00
  -13   12    1      1.93      0.00
  -12   12    1      3.35      0.00
  -11   12    1     -0.26      0.00
  -10   12    1     -1.71      0.00
   -9   12    1      0.84      0.00
   -8   12    1      1.54      0.00
   -7   12    1     -0.73      0.00
   -6   12    1     -1.98      0.00
   -5   12    1     -1.34      0.00
   -4   12    1      2.20      0.00
   -3   12    1     -5.05      0.00
   -2   12    1      5.39      0.00
   -1   12    1     -1.33      0.00
    0   12    1     -2.69      0.00
    1   12    1     -1.62      0.00
    2   12    1      0.49      0.00
    3   12    1     -0.82      0.00
    4   12    1     -1.74      0.00
    5   12    1      1.94      0.00
    6   12    1      4.23      0.00
    7   12    1     -1.16      0.00
    8   12    1      0.24      0.00
    9   12    1      5.75      0.00
  -20   13    1      3.33      0.00
  -19   13    1      4.51      0.00
  -18   13    1      0.29      0.00
  -17   13    1     -1.33      0.00
  -16   13    1     -1.39      0.00
  -15   13    1      2.04      0.00
  -14   13    1      3.27      0.00
  -13   13    1     -3.29      0.00
  -12   13    1     -4.45      0.00
  -11   13    1     -1.47      0.00
  -10   13    1      5.97      0.00
   -9   13    1      1.71      0.00
   -8   13    1     -0.20      0.00
   -7   13    1     -1.22      0.00
   -6   13    1     -0.67      0.00
   -5   13    1      5.50      0.00
   -4   13    1     -2.64      0.00
   -3   13    1     -0.46      0.00
   -2   13    1      0.66      0.00
   -1   13    1     -1.14      0.00
    0   13    1     -1.89      0.00
    1   13    1      5.08      0.00
    2   13    1      2.13      0.00
    3   13    1     -2.50      0.00
    4   13    1      0.83      0.00
    5   13    1     -1.09      0.00
    6   13    1     -4.02      0.00
    7   13    1     -1.42      0.00
    8   13    1      1.18      0.00
  -20   14    1     -4.25      0.00
  -19   14    1     -0.83      0.00
  -18   14    1      0.47      0.00
  -17   14    1     -0.69      0.00
  -16   14    1     -0.26      0.00
  -15   14    1     -0.32      0.00
  -14   14    1     -0.98      0.00
  -13   14    1      0.24      0.00
  -12   14    1      0.03      0.00
  -11   14    1     -1.01      0.00
  -10   14    1     -4.43      0.00
   -9   14    1      1.57      0.00
   -8   14    1     -1.44      0.00
   -7   14    1     -1.83      0.00
   -6   14    1      1.56      0.00
   -5   14    1     -3.55      0.00
   -4   14    1      4.07      0.00
   -3   14    1      1.35      0.00
   -2   14    1     -2.86      0.00
   -1   14    1      2.46      0.00
    0   14    1     -0.66      0.00
    1   14    1     -3.24      0.00
    2   14    1      1.67      0.00
    3   14    1      1.95      0.00
    4   14    1     -3.41      0.00
    5   14    1      0.52      0.00
    6   14    1      2.28      0.00
  -20   15    1      1.29      0.00
  -19   15    1      0.89      0.00
  -18   15    1      0.61      0.00
  -17   15    1      1.18      0.00
  -16   15    1      1.10      0.00
  -15   15    1     -2.81      0.00
  -14   15    1      1.42      0.00
  -13   15    1      2.27      0.00
  -12   15    1      1.97      0.00
  -11   15    1      3.46      0.00
  -10   15    1     -0.79      0.00
   -9   15    1     -3.04      0.00
   -8   15    1      4.11      0.00
   -7   15    1      0.40      0.00
   -6   15    1     -2.71      0.00
   -5   15    1      2.06      0.00
   -4   15    1     -2.44      0.00
   -3   15    1     -0.14      0.00
   -2   15    1      1.73      0.00
   -1   15    1     -0.88      0.00
    0   15    1      1.19      0.00
    1   15    1     -1.67      0.00
    2   15    1     -2.36      0.00
    3   15    1      2.01      0.00
    4   15    1      5.85      0.00
    5   15    1      0.23      0.00
  -19   16    1     -2.74      0.00
  -18   16    1      1.46      0.00
  -17   16    1     -0.89      0.00
  -16   16    1     -2.02      0.00
  -15   16    1      2.98      0.00
  -14   16    1     -0.65      0.00
  -13   16    1     -1.78      0.00
  -12   16    1      0.96      0.00
  -11   16    1     -2.07      0.00
  -10   16    1      1.52      0.00
   -9   16    1      2.13      0.00
   -8   16    1     -4.89      0.00
   -7   16    1      1.24      0.00
   -6   16    1      2.25      0.00
   -5   16    1     -2.62      0.00
   -4   16    1      1.27      0.00
   -3   16    1     -0.78      0.00
   -2   16    1     -1.16      0.00
   -1   16    1      5.13      0.00
    0   16    1     -0.72      0.00
    1   16    1     -2.33      0.00
    2   16    1      0.88      0.00
    3   16    1     -3.51      0.00
    4   16    1     -4.32      0.00
  -19   17    1      1.40      0.00
  -18   17    1     -1.39      0.00
  -17   17    1     -1.17      0.00
  -16   17    1      1.08      0.00
  -15   17    1     -1.82      0.00
  -14   17    1     -1.38      0.00
  -13   17    1      1.44      0.00
  -12   17    1     -5.07      0.00
  -11   17    1      0.67      0.00
  -10   17    1      1.52      0.00
   -9   17    1     -2.11      0.00
   -8   17    1      3.40      0.00
   -7   17    1      0.61      0.00
   -6   17    1      0.97      0.00
   -5   17    1      1.58      0.00
   -4   17    1     -2.29      0.00
   -3   17    1     -1.44      0.00
   -2   17    1     -3.73      0.00
   -1   17    1     -4.76      0.00
    0   17    1      6.99      0.00
    1   17    1      4.83      0.00
    2   17    1     -2.68      0.00
    3   17    1      0.59      0.00
  -18   18    1      0.93      0.00
  -17   18    1      3.49      0.00
  -16   18    1     -1.47      0.00
  -15   18    1     -0.44      0.00
  -14   18    1      4.63      0.00
  -13   18    1      1.48      0.00
  -12   18    1      2.92      0.00
  -11   18    1     -1.24      0.00
  -10   18    1     -1.62      0.00
   -9   18    1     -0.13      0.00
   -8   18    1     -2.83      0.00
   -7   18    1     -0.48      0.00
   -6   18    1     -1.55      0.00
   -5   18    1      2.97      0.00
   -4   18    1      4.06      0.00
   -3   18    1      3.41      0.00
   -2   18    1      2.47      0.00
   -1   18    1     -2.35      0.00
    0   18    1     -5.40      0.00
    1   18    1     -0.12      0.00
  -18   19    1     -1.48      0.00
  -17   19    1     -0.83      0.00
  -16   19    1      0.49      0.00
  -15   19    1     -0.84      0.00
  -14   19    1     -5.35      0.00
  -13   19    1      0.18      0.00
  -12   19    1      0.37      0.00
  -11   19    1     -3.39      0.00
  -10   19    1      2.99      0.00
   -9   19    1      5.08      0.00
   -8   19    1      1.56      0.00
   -7   19    1     -2.44      0.00
   -6   19    1     -2.12      0.00
   -5   19    1     -6.37      0.00
   -4   19    1     -3.38      0.00
   -3   19    1     -0.94      0.00
   -2   19    1      2.75      0.00
   -1   19    1      2.28      0.00
    0   19    1     -0.95      0.00
  -17   20    1      1.62      0.00
  -16   20    1      4.47      0.00
  -15   20    1     -0.32      0.00
  -14   20    1     -0.65      0.00
  -13   20    1      0.02      0.00
  -12   20    1      1.67      0.00
  -11   20    1      1.38      0.00
  -10   20    1     -5.58      0.00
   -9   20    1     -1.84      0.00
   -8   20    1     -0.63      0.00
   -7   20    1      2.41      0.00
   -6   20    1      5.67      0.00
   -5   20    1      5.42      0.00
   -4   20    1      0.75      0.00
   -3   20    1     -0.50      0.00
   -2   20    1     -2.99      0.00
  -16   21    1     -2.08      0.00
  -15   21    1      3.21      0.00
  -14   21    1     -0.37      0.00
  -13   21    1     -2.21      0.00
  -12   21    1      1.29      0.00
  -11   21    1      3.56      0.00
  -10   21    1      2.09      0.00
   -9   21    1     -1.59      0.00
   -8   21    1      2.68      0.00
   -7   21    1     -3.56      0.00
   -6   21    1     -7.09      0.00
   -5   21    1     -1.82      0.00
   -4   21    1      2.34      0.00
  -14   22    1      1.43      0.00
  -13   22    1     -1.56      0.00
  -12   22    1     -0.74      0.00
  -11   22    1     -2.13      0.00
  -10   22    1     -0.95      0.00
   -9   22    1      1.64      0.00
   -8   22    1     -3.26      0.00
   -7   22    1      3.87      0.00
    6  -22    2     -2.53      0.00
    7  -22    2      0.28      0.00
    8  -22    2      2.00      0.00
    9  -22    2      0.25      0.00
   10  -22    2      1.90      0.00
   11  -22    2      0.48      0.00
   12  -22    2     -3.60      0.00
   13  -22    2     -3.64      0.00
    3  -21    2      1.29      0.00
    4  -21    2     -2.89      0.00
    5  -21    2     -2.72      0.00
    6  -21    2      1.36      0.00
    7  -21    2     -0.04      0.00
    8  -21    2      1.31      0.00
    9  -21    2      0.78      0.00
   10  -21    2     -2.14      0.00
   11  -21    2     -2.31      0.00
   12  -21    2      6.09      0.00
   13  -21    2      6.27      0.00
   14  -21    2      5.37      0.00
   15  -21    2      0.90      0.00
    1  -20    2      2.64      0.00
    2  -20    2     -1.65      0.00
    3  -20    2     -1.75      0.00
    4  -20    2      5.29      0.00
    5  -20    2      2.61      0.00
    6  -20    2      0.15      0.00
    7  -20    2     -0.70      0.00
    8  -20    2     -3.93      0.00
    9  -20    2      1.51      0.00
   10  -20    2      0.26      0.00
   11  -20    2     -0.25      0.00
   12  -20    2     -7.17      0.00
   13  -20    2     -3.62      0.00
   14  -20    2     -1.80      0.00
   15  -20    2     -1.63      0.00
   16  -20    2      2.42      0.00
   -1  -19    2      1.74      0.00
    0  -19    2     -1.29      0.00
    1  -19    2     -0.07      0.00
    2  -19    2     -0.08      0.00
    3  -19    2     -0.56      0.00
    4  -19    2     -1.72      0.00
    5  -19    2     -1.20      0.00
    6  -19    2      0.00      0.00
    7  -19    2      1.19      0.00
    8  -19    2      0.66      0.00
    9  -19    2     -2.47      0.00
   10  -19    2      3.34      0.00
   11  -19    2      0.96      0.00
   12  -19    2      3.09      0.00
   13  -19    2      2.00      0.00
   14  -19    2      0.94      0.00
   15  -19    2     -0.57      0.00
   16  -19    2     -1.23      0.00
   17  -19    2      1.19      0.00
   -2  -18    2     -5.41      0.00
   -1  -18    2     -2.47      0.00
    0  -18    2      2.14      0.00
    1  -18    2     -0.92      0.00
    2  -18    2      1.91      0.00
    3  -18    2     -1.10      0.00
    4  -18    2     -1.65      0.00
    5  -18    2      2.87      0.00
    6  -18    2      0.26      0.00
    7  -18    2     -1.09      0.00
    8  -18    2     -0.06      0.00
    9  -18    2     -0.21      0.00
   10  -18    2     -1.21      0.00
   11  -18    2      2.08      0.00
   12  -18    2      0.37      0.00
   13  -18    2     -3.42      0.00
   14  -18    2     -0.21      0.00
   15  -18    2      1.88      0.00
   16  -18    2     -2.47      0.00
   17  -18    2     -1.97      0.00
   18  -18    2      2.24      0.00
   -4  -17    2     -2.36      0.00
   -3  -17    2     -4.58      0.00
   -2  -17    2      5.28      0.00
   -1  -17    2      1.76      0.00
    0  -17    2     -2.53      0.00
    1  -17    2      1.20      0.00
    2  -17    2     -0.19      0.00
    3  -17    2      1.62      0.00
    4  -17    2     -0.67      0.00
    5  -17    2     -1.97      0.00
    6  -17    2      1.69      0.00
    7  -17    2     -0.09      0.00
    8  -17    2      0.28      0.00
    9  -17    2      1.55      0.00
   10  -17    2     -0.76      0.00
   11  -17    2     -2.16      0.00
   12  -17    2     -1.96      0.00
   13  -17    2      1.24      0.00
   14  -17    2     -0.35      0.00
   15  -17    2      1.51      0.00
   16  -17    2      0.98      0.00
   17  -17    2      1.10      0.00
   18  -17    2     -0.37      0.00
   -5  -16    2     -2.10      0.00
   -4  -16    2      5.74      0.00
   -3  -16    2      5.11      0.00
   -2  -16    2     -2.99      0.00
   -1  -16    2     -2.19      0.00
    0  -16    2      0.46      0.00
    1  -16    2     -1.78      0.00
    2  -16    2      1.58      0.00
    3  -16    2     -0.17      0.00
    4  -16    2      2.15      0.00
    5  -16    2     -1.57      0.00
    6  -16    2     -6.21      0.00
    7  -16    2      2.62      0.00
    8  -16    2      2.75      0.00
    9  -16    2     -2.38      0.00
   10  -16    2      0.83      0.00
   11  -16    2      2.14      0.00
   12  -16    2      3.03      0.00
   13  -16    2      0.55      0.00
   14  -16    2     -1.45      0.00
   15  -16    2     -2.69      0.00
   16  -16    2      5.23      0.00
   17  -16    2     -0.96      0.00
   18  -16    2     -2.22      0.00
   19  -16    2     -0.64      0.00
   -6  -15    2     -1.35      0.00
   -5  -15    2     -3.41      0.00
   -4  -15    2     -4.86      0.00
   -3  -15    2     -2.03      0.00
   -2  -15    2      0.97      0.00
   -1  -15    2      0.56      0.00
    0  -15    2      0.87      0.00
    1  -15    2      1.26      0.00
    2  -15    2     -1.50      0.00
    3  -15    2      2.55      0.00
    4  -15    2     -2.56      0.00
    5  -15    2      1.00      0.00
    6  -15    2      5.87      0.00
    7  -15    2     -5.04      0.00
    8  -15    2     -3.20      0.00
    9  -15    2      2.96      0.00
   10  -15    2     -2.59      0.00
   11  -15    2     -3.87      0.00
   12  -15    2     -1.46      0.00
   13  -15    2      2.39      0.00
   14  -15    2     -0.59      0.00
   15  -15    2      0.46      0.00
   16  -15    2     -6.02      0.00
   17  -15    2      0.15      0.00
   18  -15    2      2.73      0.00
   19  -15    2     -0.54      0.00
   -7  -14    2     -2.02      0.00
   -6  -14    2      2.44      0.00
   -5  -14    2      4.66      0.00
   -4  -14    2      1.02      0.00
   -3  -14    2     -1.91      0.00
   -2  -14    2      3.11      0.00
   -1  -14    2      0.31      0.00
    0  -14    2     -1.05      0.00
    1  -14    2      0.90      0.00
    2  -14    2     -2.68      0.00
    3  -14    2     -3.29      0.00
    4  -14    2      3.99      0.00
    5  -14    2      2.78      0.00
    6  -14    2     -0.32      0.00
    7  -14    2      3.52      0.00
    8  -14    2     -0.82      0.00
    9  -14    2      0.58      0.00
   10  -14    2      4.10      0.00
   11  -14    2      1.11      0.00
   12  -14    2     -2.07      0.00
   13  -14    2     -2.49      0.00
   14  -14    2      5.16      0.00
   15  -14    2      0.14      0.00
   16  -14    2      3.39      0.00
   17  -14    2      0.90      0.00
   18  -14    2     -2.21      0.00
   19  -14    2      2.29      0.00
   -8  -13    2     -2.67      0.00
   -7  -13    2      1.41      0.00
   -6  -13    2     -1.48      0.00
   -5  -13    2     -1.65      0.00
   -4  -13    2      1.26      0.00
   -3  -13    2      0.84      0.00
   -2  -13    2     -4.82      0.00
   -1  -13    2      0.29      0.00
    0  -13    2      0.80      0.00
    1  -13    2     -0.13      0.00
    2  -13    2      3.17      0.00
    3  -13    2     -3.42      0.00
    4  -13    2     -5.11      0.00
    5  -13    2     -2.79      0.00
    6  -13    2      2.02      0.00
    7  -13    2      0.82      0.00
    8  -13    2      0.82      0.00
    9  -13    2     -5.35      0.00
   10  -13    2     -2.60      0.00
   11  -13    2      3.68      0.00
   12  -13    2      3.11      0.00
   13  -13    2      0.55      0.00
   14  -13    2     -5.45      0.00
   15  -13    2     -1.41      0.00
   16  -13    2     -0.68      0.00
   17  -13    2      0.04      0.00
   18  -13    2     -0.29      0.00
   19  -13    2     -3.08      0.00
   -9  -12    2     -1.13      0.00
   -8  -12    2      4.14      0.00
   -7  -12    2      0.52      0.00
   -6  -12    2     -2.31      0.00
   -5  -12    2     -1.79      0.00
   -4  -12    2      2.61      0.00
   -3  -12    2      0.84      0.00
   -2  -12    2      0.55      0.00
   -1  -12    2      1.52      0.00
    0  -12    2      0.05      0.00
    1  -12    2     -0.46      0.00
    2  -12    2     -0.09      0.00
    3  -12    2      7.75      0.00
    4  -12    2     -2.18      0.00
    5  -12    2     -0.13      0.00
    6  -12    2     -2.55      0.00
    7  -12    2     -0.85      0.00
    8  -12    2      0.02      0.00
    9  -12    2      2.65      0.00
   10  -12    2     -0.54      0.00
   11  -12    2     -3.79      0.00
   12  -12    2     -1.21      0.00
   13  -12    2      0.59      0.00
   14  -12    2      2.37      0.00
   15  -12    2      1.46      0.00
   16  -12    2     -0.80      0.00
   17  -12    2      0.00      0.00
   18  -12    2      1.64      0.00
   19  -12    2      2.71      0.00
  -10  -11    2      0.61      0.00
   -9  -11    2      0.77      0.00
   -8  -11    2     -4.91      0.00
   -7  -11    2      0.15      0.00
   -6  -11    2      3.97      0.00
   -5  -11    2     -0.45      0.00
   -4  -11    2     -3.82      0.00
   -3  -11    2      1.12      0.00
   -2  -11    2      2.35      0.00
   -1  -11    2     -1.66      0.00
    0  -11    2     -5.47      0.00
    1  -11    2     -2.06      0.00
    2  -11    2      5.87      0.00
    3  -11    2     -2.75      0.00
    4  -11    2      8.08      0.00
    5  -11    2     -4.42      0.00
    6  -11    2     -0.52      0.00
    7  -11    2      1.54      0.00
    8  -11    2      2.53      0.00
    9  -11    2      3.36      0.00
   10  -11    2      4.23      0.00
   11  -11    2      0.32      0.00
   12  -11    2     -2.05      0.00
   13  -11    2     -1.08      0.00
   14  -11    2      1.58      0.00
   15  -11    2     -1.09      0.00
   16  -11    2      0.95      0.00
   17  -11    2     -0.48      0.00
   18  -11    2     -3.06      0.00
   19  -11    2     -1.25      0.00
  -11  -10    2      0.56      0.00
  -10  -10    2      4.55      0.00
   -9  -10    2     -1.02      0.00
   -8  -10    2      0.41      0.00
   -7  -10    2      1.75      0.00
   -6  -10    2     -0.12      0.00
   -5  -10    2     -0.88      0.00
   -4  -10    2      0.67      0.00
   -3  -10    2      2.16      0.00
   -2  -10    2     -2.34      0.00
   -1  -10    2      0.53      0.00
    0  -10    2      5.52      0.00
    1  -10    2      1.11      0.00
    2  -10    2    -12.04      0.00
    3  -10    2      2.26      0.00
    4  -10    2     -3.06      0.00
    5  -10    2      5.86      0.00
    6  -10    2     -4.73      0.00
    7  -10    2     -2.24      0.00
    8  -10    2     -4.27      0.00
    9  -10    2     -5.58      0.00
   10  -10    2     -4.07      0.00
   11  -10    2      1.79      0.00
   12  -10    2      2.88      0.00
   13  -10    2      2.12      0.00
   14  -10    2     -3.52      0.00
   15  -10    2      0.18      0.00
   16  -10    2      0.50      0.00
   17  -10    2      2.29      0.00
   18  -10    2      3.47      0.00
   19  -10    2     -1.62      0.00
  -12   -9    2      0.10      0.00
  -11   -9    2     -2.05      0.00
  -10   -9    2     -6.25      0.00
   -9   -9    2      2.09      0.00
   -8   -9    2     -0.04      0.00
   -7   -9    2     -1.10      0.00
   -6   -9    2     -2.45      0.00
   -5   -9    2      0.36      0.00
   -4   -9    2      0.97      0.00
   -3   -9    2     -3.22      0.00
   -2   -9    2     -0.82      0.00
   -1   -9    2      0.74      0.00
    0   -9    2      4.52      0.00
    1   -9    2     -8.80      0.00
    2   -9    2     10.90      0.00
    3   -9    2      0.06      0.00
    4   -9    2      1.29      0.00
    5   -9    2     -6.47      0.00
    6   -9    2      9.71      0.00
    7   -9    2      2.86      0.00
    8   -9    2      4.20      0.00
    9   -9    2      4.14      0.00
   10   -9    2      0.82      0.00
   11   -9    2     -3.24      0.00
   12   -9    2     -3.65      0.00
   13   -9    2     -1.61      0.00
   14   -9    2      2.25      0.00
   15   -9    2     -0.19      0.00
   16   -9    2     -2.17      0.00
   17   -9    2     -0.18      0.00
   18   -9    2     -3.44      0.00
   19   -9    2     -0.39      0.00
  -13   -8    2     -1.35      0.00
  -12   -8    2      2.58      0.00
  -11   -8    2      0.58      0.00
  -10   -8    2      4.84      0.00
   -9   -8    2      0.23      0.00
   -8   -8    2      1.67      0.00
   -7   -8    2     -5.15      0.00
   -6   -8    2      4.61      0.00
   -5   -8    2      7.19      0.00
   -4   -8    2     -6.55      0.00
   -3   -8    2     -0.58      0.00
   -2   -8    2      8.43      0.00
   -1   -8    2     -1.31      0.00
    0   -8    2    -13.89      0.00
    1   -8    2     18.33      0.00
    3   -8    2     -5.78      0.00
    4   -8    2     -6.34      0.00
    5   -8    2     12.37      0.00
    6   -8    2     -9.33      0.00
    7   -8    2     -3.59      0.00
    8   -8    2     -2.02      0.00
    9   -8    2     -0.48      0.00
   10   -8    2      2.62      0.00
   11   -8    2      4.52      0.00
   12   -8    2      2.50      0.00
   13   -8    2      0.31      0.00
   14   -8    2      2.03      0.00
   15   -8    2     -0.98      0.00
   16   -8    2      0.32      0.00
   17   -8    2      0.08      0.00
   18   -8    2      4.14      0.00
   19   -8    2     -0.17      0.00
  -14   -7    2      3.87      0.00
  -13   -7    2      3.15      0.00
  -12   -7    2     -5.75      0.00
  -11   -7    2     -1.26      0.00
  -10   -7    2      0.14      0.00
   -9   -7    2     -0.06      0.00
   -8   -7    2     -3.70      0.00
   -7   -7    2      7.93      0.00
   -6   -7    2     -0.09      0.00
   -5   -7    2    -13.36      0.00
   -4   -7    2      6.50      0.00
   -3   -7    2      2.65      0.00
   -2   -7    2    -12.82      0.00
   -1   -7    2     -0.06      0.00
    0   -7    2     24.81      0.00
    2   -7    2     -1.71      0.00
    4   -7    2     10.99      0.00
    5   -7    2    -16.76      0.00
    6   -7    2      6.25      0.00
    7   -7    2      3.79      0.00
    8   -7    2     -0.73      0.00
    9   -7    2     -6.10      0.00
   10   -7    2     -1.54      0.00
   11   -7    2      1.24      0.00
   12   -7    2     -1.22      0.00
   13   -7    2     -2.45      0.00
   14   -7    2     -2.29      0.00
   15   -7    2      1.24      0.00
   16   -7    2      0.96      0.00
   17   -7    2     -0.47      0.00
   18   -7    2     -1.76      0.00
   19   -7    2      1.15      0.00
  -14   -6    2     -3.33      0.00
  -13   -6    2     -2.61      0.00
  -12   -6    2      8.37      0.00
  -11   -6    2     -1.88      0.00
  -10   -6    2     -3.76      0.00
   -9   -6    2     -0.50      0.00
   -8   -6    2      4.36      0.00
   -7   -6    2     -5.46      0.00
   -6   -6    2     -5.66      0.00
   -5   -6    2     14.81      0.00
   -4   -6    2     -1.36      0.00
   -3   -6    2     -4.54      0.00
   -2   -6    2      7.98      0.00
   -1   -6    2      3.66      0.00
    0   -6    2    -24.96      0.00
    1   -6    2     14.04      0.00
    2   -6    2      2.05      0.00
    3   -6    2      5.63      0.00
    4   -6    2    -11.22      0.00
    5   -6    2      9.50      0.00
    6   -6    2     -3.88      0.00
    7   -6    2     -0.73      0.00
    8   -6    2     -0.21      0.00
    9   -6    2      4.86      0.00
   10   -6    2     -3.09      0.00
   11   -6    2     -4.99      0.00
   12   -6    2      2.42      0.00
   13   -6    2      4.17      0.00
   14   -6    2      1.05      0.00
   15   -6    2     -1.01      0.00
   16   -6    2     -2.62      0.00
   17   -6    2     -0.49      0.00
   18   -6    2      2.38      0.00
   19   -6    2     -0.04      0.00
  -15   -5    2      0.32      0.00
  -14   -5    2      2.30      0.00
  -13   -5    2      0.15      0.00
  -12   -5    2     -1.44      0.00
  -11   -5    2      2.44      0.00
  -10   -5    2     -0.33      0.00
   -9   -5    2      3.68      0.00
   -8   -5    2     -4.21      0.00
   -7   -5    2     -1.00      0.00
   -6   -5    2      5.76      0.00
   -5   -5    2     -7.51      0.00
   -4   -5    2     -1.21      0.00
   -3   -5    2     -3.88      0.00
   -2   -5    2      5.45      0.00
   -1   -5    2     -3.45      0.00
    0   -5    2     19.64      0.00
    1   -5    2     -9.48      0.00
    2   -5    2     -3.76      0.00
    3   -5    2    -17.36      0.00
    4   -5    2     17.98      0.00
    5   -5    2      1.38      0.00
    6   -5    2      1.25      0.00
    7   -5    2     -2.48      0.00
    8   -5    2      7.06      0.00
    9   -5    2      0.52      0.00
   10   -5    2     -0.77      0.00
   11   -5    2      1.82      0.00
   12   -5    2     -0.10      0.00
   13   -5    2     -1.82      0.00
   14   -5    2     -1.57      0.00
   15   -5    2      1.37      0.00
   16   -5    2     -0.53      0.00
   17   -5    2     -0.03      0.00
   18   -5    2     -1.02      0.00
  -15   -4    2     -1.57      0.00
  -14   -4    2      0.00      0.00
  -13   -4    2     -1.62      0.00
  -12   -4    2     -2.22      0.00
  -11   -4    2      0.68      0.00
  -10   -4    2      3.11      0.00
   -9   -4    2     -5.27      0.00
   -8   -4    2      3.65      0.00
   -7   -4    2      5.35      0.00
   -6   -4    2     -4.53      0.00
   -5   -4    2     -0.28      0.00
   -4   -4    2      9.04      0.00
   -3   -4    2     14.71      0.00
   -2   -4    2    -27.69      0.00
   -1   -4    2      6.70      0.00
    0   -4    2    -14.01      0.00
    1   -4    2     13.33      0.00
    2   -4    2     -6.61      0.00
    3   -4    2     14.47      0.00
    4   -4    2     -7.77      0.00
    5   -4    2     -7.80      0.00
    6   -4    2     -7.38      0.00
    7   -4    2      4.00      0.00
    8   -4    2     -5.65      0.00
    9   -4    2      0.68      0.00
   10   -4    2      5.52      0.00
   11   -4    2     -2.68      0.00
   12   -4    2     -2.39      0.00
   13   -4    2      0.34      0.00
   14   -4    2      3.83      0.00
   15   -4    2      0.37      0.00
   16   -4    2      2.59      0.00
   17   -4    2     -0.02      0.00
   18   -4    2     -2.15      0.00
  -16   -3    2     -0.76      0.00
  -15   -3    2      2.10      0.00
  -14   -3    2     -2.40      0.00
  -13   -3    2      2.61      0.00
  -12   -3    2      1.85      0.00
  -11   -3    2      1.88      0.00
  -10   -3    2     -6.01      0.00
   -9   -3    2      2.74      0.00
   -8   -3    2      0.67      0.00
   -7   -3    2     -9.21      0.00
   -6   -3    2      1.52      0.00
   -5   -3    2     -1.70      0.00
   -4   -3    2     -2.99      0.00
   -3   -3    2    -13.88      0.00
   -2   -3    2     26.68      0.00
   -1   -3    2    -21.25      0.00
    0   -3    2     22.00      0.00
    1   -3    2     -7.26      0.00
    2   -3    2      3.37      0.00
    3   -3    2    -18.92      0.00
    4   -3    2      7.73      0.00
    5   -3    2     10.05      0.00
    6   -3    2      5.07      0.00
    7   -3    2     -8.50      0.00
    8   -3    2      1.16      0.00
    9   -3    2      3.10      0.00
   10   -3    2     -2.75      0.00
   11   -3    2      2.38      0.00
   12   -3    2     -3.08      0.00
   13   -3    2     -0.36      0.00
   14   -3    2     -3.21      0.00
   15   -3    2     -0.88      0.00
   16   -3    2     -0.05      0.00
   17   -3    2      0.31      0.00
   18   -3    2      3.90      0.00
  -17   -2    2      3.36      0.00
  -16   -2    2      0.80      0.00
  -15   -2    2      0.17      0.00
  -14   -2    2      1.28      0.00
  -13   -2    2     -2.86      0.00
  -12   -2    2     -1.14      0.00
  -11   -2    2     -4.30      0.00
  -10   -2    2      6.77      0.00
   -9   -2    2      1.40      0.00
   -8   -2    2     -1.56      0.00
   -7   -2    2      7.84      0.00
   -5   -2    2      5.45      0.00
   -4   -2    2     -8.24      0.00
   -3   -2    2     14.38      0.00
   -2   -2    2    -24.01      0.00
   -1   -2    2     43.72      0.00
    0   -2    2    -12.96      0.00
    1   -2    2     10.91      0.00
    2   -2    2      5.08      0.00
    3   -2    2     -6.36      0.00
    4   -2    2    -20.03      0.00
    5   -2    2     14.66      0.00
    6   -2    2      3.01      0.00
    7   -2    2      1.00      0.00
    8   -2    2     -4.73      0.00
    9   -2    2     -5.37      0.00
   10   -2    2      4.98      0.00
   11   -2    2      1.01      0.00
   12   -2    2      4.31      0.00
   13   -2    2     -1.64      0.00
   14   -2    2      2.50      0.00
   15   -2    2     -0.89      0.00
   16   -2    2     -2.94      0.00
   17   -2    2      0.27      0.00
  -17   -1    2     -1.17      0.00
  -16   -1    2     -1.00      0.00
  -15   -1    2     -1.34      0.00
  -14   -1    2      0.83      0.00
  -13   -1    2      2.62      0.00
  -12   -1    2     -0.94      0.00
  -11   -1    2      1.91      0.00
  -10   -1    2     -2.79      0.00
   -9   -1    2     -2.76      0.00
   -8   -1    2     -2.79      0.00
   -7   -1    2      0.38      0.00
   -6   -1    2      7.56      0.00
   -5   -1    2    -16.88      0.00
   -4   -1    2      4.30      0.00
   -3   -1    2     22.17      0.00
   -2   -1    2      5.04      0.00
   -1   -1    2   -135.33      0.00
    0   -1    2     24.28      0.00
    1   -1    2     36.32      0.00
    2   -1    2      5.75      0.00
    3   -1    2      8.46      0.00
    4   -1    2      6.88      0.00
    5   -1    2    -23.57      0.00
    6   -1    2      3.28      0.00
    7   -1    2     12.06      0.00
    8   -1    2      1.44      0.00
    9   -1    2     -3.61      0.00
   10   -1    2     -5.26      0.00
   11   -1    2      3.13      0.00
   12   -1    2     -2.89      0.00
   13   -1    2      1.40      0.00
   14   -1    2      0.04      0.00
   15   -1    2      3.03      0.00
   16   -1    2     -0.65      0.00
   17   -1    2     -1.21      0.00
  -18    0    2      1.63      0.00
  -17    0    2      0.06      0.00
  -16    0    2      0.68      0.00
  -15    0    2      2.86      0.00
  -14    0    2     -2.03      0.00
  -13    0    2     -4.05      0.00
  -12    0    2      4.65      0.00
  -11    0    2      1.14      0.00
  -10    0    2     -5.99      0.00
   -9    0    2     -1.01      0.00
   -8    0    2     12.50      0.00
   -7    0    2      0.55      0.00
   -6    0    2    -15.13      0.00
   -5    0    2     16.31      0.00
   -4    0    2    -10.06      0.00
   -3    0    2    -25.20      0.00
   -2    0    2     62.23      0.00
    0    0    2   -108.18      0.00
    1    0    2    -65.77      0.00
    2    0    2     22.50      0.00
    3    0    2     14.64      0.00
    4    0    2    -10.81      0.00
    5    0    2      6.13      0.00
    6    0    2     -2.12      0.00
    7    0    2    -12.44      0.00
    8    0    2      4.07      0.00
    9    0    2      3.66      0.00
   10    0    2      1.06      0.00
   11    0    2     -4.25      0.00
   12    0    2      4.06      0.00
   13    0    2     -1.85      0.00
   14    0    2     -1.16      0.00
   15    0    2      0.53      0.00
   16    0    2      1.76      0.00
  -18    1    2      0.37      0.00
  -17    1    2      0.22      0.00
  -16    1    2     -0.86      0.00
  -15    1    2      0.02      0.00
  -14    1    2      0.91      0.00
  -13    1    2      0.27      0.00
  -12    1    2     -3.85      0.00
  -11    1    2      4.65      0.00
  -10    1    2      6.85      0.00
   -9    1    2      0.05      0.00
   -8    1    2    -16.54      0.00
   -7    1    2     -7.15      0.00
   -6    1    2     24.52      0.00
   -5    1    2     -3.14      0.00
   -4    1    2    -18.47      0.00
   -3    1    2    -27.90      0.00
   -2    1    2    -11.38      0.00
   -1    1    2    -62.51      0.00
    0    1    2     76.14      0.00
    1    1    2     20.91      0.00
    2    1    2    -17.35      0.00
    3    1    2     -9.11      0.00
    4    1    2     13.15      0.00
    5    1    2      5.65      0.00
    6    1    2     -4.84      0.00
    7    1    2      3.94      0.00
    8    1    2      2.03      0.00
    9    1    2      2.73      0.00
   10    1    2     -4.07      0.00
   11    1    2      2.07      0.00
   12    1    2     -3.52      0.00
   13    1    2     -0.05      0.00
   14    1    2     -0.89      0.00
   15    1    2      0.38      0.00
   16    1    2      2.45      0.00
  -18    2    2     -1.77      0.00
  -17    2    2     -0.36      0.00
  -16    2    2     -1.00      0.00
  -15    2    2     -1.70      0.00
  -14    2    2      3.23      0.00
  -13    2    2      0.87      0.00
  -12    2    2     -2.84      0.00
  -11    2    2     -4.39      0.00
  -10    2    2      3.86      0.00
   -9    2    2     -1.11      0.00
   -8    2    2      3.22      0.00
   -7    2    2      9.51      0.00
   -6    2    2    -16.56      0.00
   -5    2    2     11.24      0.00
   -4    2    2     36.76      0.00
   -3    2    2     19.24      0.00
   -2    2    2    -75.02      0.00
   -1    2    2     26.79      0.00
    0    2    2     17.51      0.00
    1    2    2     -8.71      0.00
    2    2    2    -18.96      0.00
    3    2    2     10.70      0.00
    4    2    2      0.28      0.00
    5    2    2    -17.41      0.00
    6    2    2      5.04      0.00
    7    2    2      5.16      0.00
    8    2    2     -5.28      0.00
    9    2    2     -5.51      0.00
   10    2    2      5.83      0.00
   11    2    2      1.68      0.00
   12    2    2      3.08      0.00
   13    2    2     -1.67      0.00
   14    2    2      1.30      0.00
   15    2    2     -1.69      0.00
  -19    3    2      1.30      0.00
  -18    3    2      1.53      0.00
  -17    3    2     -1.54      0.00
  -16    3    2      0.55      0.00
  -15    3    2      0.12      0.00
  -14    3    2     -0.10      0.00
  -13    3    2      0.70      0.00
  -12    3    2      1.32      0.00
  -11    3    2     -1.09      0.00
  -10    3    2     -5.52      0.00
   -9    3    2      6.03      0.00
   -8    3    2      8.04      0.00
   -7    3    2    -18.92      0.00
   -6    3    2     -1.65      0.00
   -5    3    2     -1.09      0.00
   -4    3    2     -6.59      0.00
   -3    3    2    -15.33      0.00
   -2    3    2     59.05      0.00
   -1    3    2     -4.48      0.00
    0    3    2    -32.03      0.00
    1    3    2     -3.00      0.00
    2    3    2     28.61      0.00
    3    3    2     -7.75      0.00
    4    3    2     -7.74      0.00
    5    3    2     18.01      0.00
    6    3    2     -3.54      0.00
    7    3    2     -7.18      0.00
    8    3    2      0.52      0.00
    9    3    2      7.42      0.00
   10    3    2     -5.08      0.00
   11    3    2     -4.32      0.00
   12    3    2     -0.76      0.00
   13    3    2      2.35      0.00
   14    3    2     -3.06      0.00
   15    3    2      1.20      0.00
  -19    4    2     -2.26      0.00
  -18    4    2      1.55      0.00
  -17    4    2      1.44      0.00
  -16    4    2     -0.48      0.00
  -15    4    2      0.07      0.00
  -14    4    2     -1.20      0.00
  -13    4    2      1.46      0.00
  -12    4    2     -1.07      0.00
  -11    4    2     -0.16      0.00
  -10    4    2      2.98      0.00
   -9    4    2     -2.49      0.00
   -8    4    2     -6.81      0.00
   -7    4    2     19.37      0.00
   -6    4    2      5.68      0.00
   -5    4    2     -9.38      0.00
   -4    4    2     -6.70      0.00
   -3    4    2     23.42      0.00
   -2    4    2    -38.13      0.00
   -1    4    2     -9.22      0.00
    0    4    2     28.62      0.00
    1    4    2     13.01      0.00
    2    4    2    -27.53      0.00
    3    4    2     -2.59      0.00
    4    4    2      9.73      0.00
    5    4    2     -7.39      0.00
    6    4    2      2.43      0.00
    7    4    2     -0.15      0.00
    8    4    2      6.97      0.00
    9    4    2     -4.86      0.00
   10    4    2      2.84      0.00
   11    4    2      2.06      0.00
   12    4    2      1.85      0.00
   13    4    2      0.64      0.00
   14    4    2     -0.30      0.00
  -19    5    2      0.84      0.00
  -18    5    2     -3.54      0.00
  -17    5    2      1.14      0.00
  -16    5    2      0.92      0.00
  -15    5    2     -2.51      0.00
  -14    5    2      0.90      0.00
  -13    5    2      1.30      0.00
  -12    5    2      1.66      0.00
  -11    5    2     -1.92      0.00
  -10    5    2     -3.96      0.00
   -9    5    2     -5.04      0.00
   -8    5    2      6.27      0.00
   -7    5    2     -9.40      0.00
   -6    5    2     -9.66      0.00
   -5    5    2      1.41      0.00
   -4    5    2     15.87      0.00
   -3    5    2    -10.87      0.00
   -2    5    2     12.71      0.00
   -1    5    2     -7.39      0.00
    0    5    2     -6.72      0.00
    1    5    2     -4.39      0.00
    2    5    2     10.42      0.00
    3    5    2      5.70      0.00
    4    5    2     -4.35      0.00
    5    5    2      2.43      0.00
    6    5    2     -4.55      0.00
    7    5    2      4.71      0.00
    8    5    2     -9.17      0.00
    9    5    2      0.54      0.00
   10    5    2     -0.54      0.00
   11    5    2      1.92      0.00
   12    5    2     -2.51      0.00
   13    5    2     -1.28      0.00
   14    5    2      2.21      0.00
  -20    6    2      2.98      0.00
  -19    6    2     -2.46      0.00
  -18    6    2      5.46      0.00
  -17    6    2     -1.56      0.00
  -16    6    2     -0.37      0.00
  -15    6    2      3.51      0.00
  -14    6    2     -4.24      0.00
  -13    6    2     -1.50      0.00
  -12    6    2      3.36      0.00
  -11    6    2      5.04      0.00
  -10    6    2      2.48      0.00
   -9    6    2      7.28      0.00
   -8    6    2     -1.06      0.00
   -7    6    2      5.94      0.00
   -6    6    2     -0.59      0.00
   -5    6    2      2.35      0.00
   -4    6    2    -12.48      0.00
   -3    6    2     11.04      0.00
   -2    6    2      5.28      0.00
   -1    6    2      3.52      0.00
    1    6    2      0.31      0.00
    2    6    2      8.45      0.00
    3    6    2     -3.90      0.00
    4    6    2     -3.64      0.00
    5    6    2      0.61      0.00
    6    6    2      8.50      0.00
    7    6    2     -7.74      0.00
    8    6    2      2.91      0.00
    9    6    2      2.04      0.00
   10    6    2     -1.26      0.00
   11    6    2     -3.74      0.00
   12    6    2      1.45      0.00
   13    6    2      1.42      0.00
  -20    7    2     -5.28      0.00
  -19    7    2      3.79      0.00
  -18    7    2     -3.62      0.00
  -17    7    2      0.19      0.00
  -16    7    2     -0.19      0.00
  -15    7    2     -2.14      0.00
  -14    7    2      1.85      0.00
  -13    7    2     -2.21      0.00
  -12    7    2     -3.38      0.00
  -11    7    2     -5.38      0.00
  -10    7    2     -1.01      0.00
   -9    7    2     -4.20      0.00
   -8    7    2     -5.56      0.00
   -7    7    2     -2.23      0.00
   -6    7    2     12.78      0.00
   -5    7    2     -7.23      0.00
   -4    7    2     -1.97      0.00
   -3    7    2     -6.85      0.00
   -2    7    2      4.93      0.00
   -1    7    2      0.74      0.00
    0    7    2      8.95      0.00
    1    7    2      1.90      0.00
    2    7    2    -13.65      0.00
    3    7    2     -1.22      0.00
    4    7    2      4.60      0.00
    5    7    2      0.16      0.00
    6    7    2     -4.67      0.00
    7    7    2      8.50      0.00
    8    7    2      0.88      0.00
    9    7    2     -0.44      0.00
   10    7    2     -1.13      0.00
   11    7    2      2.01      0.00
   12    7    2      1.64      0.00
  -20    8    2      6.61      0.00
  -19    8    2     -3.88      0.00
  -18    8    2      1.35      0.00
  -17    8    2      1.23      0.00
  -16    8    2     -0.78      0.00
  -15    8    2      2.54      0.00
  -14    8    2      2.34      0.00
  -13    8    2      1.41      0.00
  -12    8    2     -0.20      0.00
  -11    8    2      5.05      0.00
  -10    8    2      2.48      0.00
   -9    8    2     -1.19      0.00
   -8    8    2      0.45      0.00
   -7    8    2      2.41      0.00
   -6    8    2     -6.59      0.00
   -5    8    2      1.98      0.00
   -4    8    2      4.27      0.00
   -3    8    2      0.63      0.00
   -2    8    2    -12.81      0.00
   -1    8    2      0.54      0.00
    0    8    2      1.97      0.00
    1    8    2     -1.70      0.00
    2    8    2      4.33      0.00
    3    8    2      8.47      0.00
    4    8    2     -4.09      0.00
    5    8    2     -7.42      0.00
    6    8    2      3.08      0.00
    7    8    2     -3.48      0.00
    8    8    2     -0.19      0.00
    9    8    2     -1.26      0.00
   10    8    2      2.27      0.00
   11    8    2     -2.14      0.00
   12    8    2     -0.50      0.00
  -20    9    2     -5.27      0.00
  -19    9    2      1.80      0.00
  -18    9    2     -0.89      0.00
  -17    9    2      0.67      0.00
  -16    9    2      0.24      0.00
  -15    9    2     -2.25      0.00
  -14    9    2     -0.86      0.00
  -13    9    2      0.00      0.00
  -12    9    2      0.82      0.00
  -11    9    2     -2.28      0.00
  -10    9    2     -1.84      0.00
   -9    9    2      4.92      0.00
   -8    9    2      5.78      0.00
   -7    9    2     -8.04      0.00
   -6    9    2     -1.79      0.00
   -5    9    2      9.26      0.00
   -4    9    2      2.76      0.00
   -3    9    2     -3.10      0.00
   -2    9    2      6.54      0.00
   -1    9    2      1.80      0.00
    0    9    2     -8.24      0.00
    1    9    2      2.44      0.00
    2    9    2      6.03      0.00
    3    9    2     -7.55      0.00
    4    9    2      0.98      0.00
    5    9    2      5.77      0.00
    6    9    2     -2.56      0.00
    7    9    2      0.44      0.00
    8    9    2     -2.20      0.00
    9    9    2      1.55      0.00
   10    9    2      1.39      0.00
   11    9    2     -0.31      0.00
  -20   10    2      2.83      0.00
  -19   10    2     -0.72      0.00
  -18   10    2      0.80      0.00
  -17   10    2     -1.58      0.00
  -16   10    2     -1.14      0.00
  -15   10    2      0.16      0.00
  -14   10    2     -0.14      0.00
  -13   10    2      0.82      0.00
  -12   10    2     -0.70      0.00
  -11   10    2     -2.22      0.00
  -10   10    2     -1.37      0.00
   -9   10    2     -1.57      0.00
   -8   10    2     -2.95      0.00
   -7   10    2      5.21      0.00
   -6   10    2      2.55      0.00
   -5   10    2     -9.66      0.00
   -4   10    2     -6.14      0.00
   -3   10    2      5.24      0.00
   -2   10    2     -0.70      0.00
   -1   10    2     -4.50      0.00
    0   10    2      6.25      0.00
    1   10    2     -2.11      0.00
    2   10    2     -6.51      0.00
    3   10    2      1.05      0.00
    4   10    2      4.65      0.00
    5   10    2     -1.89      0.00
    6   10    2     -1.20      0.00
    7   10    2     -0.02      0.00
    8   10    2      3.63      0.00
    9   10    2      1.66      0.00
   10   10    2     -2.07      0.00
  -20   11    2     -0.07      0.00
  -19   11    2     -0.53      0.00
  -18   11    2     -1.97      0.00
  -17   11    2      1.85      0.00
  -16   11    2      2.55      0.00
  -15   11    2     -0.80      0.00
  -14   11    2      0.59      0.00
  -13   11    2     -1.63      0.00
  -12   11    2      2.04      0.00
  -11   11    2      3.75      0.00
  -10   11    2     -0.28      0.00
   -9   11    2     -2.61      0.00
   -8   11    2      1.11      0.00
   -7   11    2      3.92      0.00
   -6   11    2     -1.50      0.00
   -5   11    2      0.70      0.00
   -4   11    2      4.62      0.00
   -3   11    2     -0.45      0.00
   -2   11    2     -2.09      0.00
   -1   11    2      6.23      0.00
    0   11    2     -1.08      0.00
    1   11    2     -0.58      0.00
    2   11    2      0.65      0.00
    3   11    2      3.10      0.00
    4   11    2     -2.16      0.00
    5   11    2     -1.56      0.00
    6   11    2      1.35      0.00
    7   11    2      1.42      0.00
    8   11    2     -4.66      0.00
    9   11    2     -5.22      0.00
  -20   12    2     -1.98      0.00
  -19   12    2     -0.19      0.00
  -18   12    2      2.44      0.00
  -17   12    2      0.43      0.00
  -16   12    2     -1.37      0.00
  -15   12    2     -1.00      0.00
  -14   12    2     -0.70      0.00
  -13   12    2      3.28      0.00
  -12   12    2     -1.90      0.00
  -11   12    2     -4.23      0.00
  -10   12    2     -0.34      0.00
   -9   12    2      0.90      0.00
   -8   12    2      0.78      0.00
   -7   12    2     -3.40      0.00
   -6   12    2     -1.86      0.00
   -5   12    2      0.09      0.00
   -4   12    2     -0.47      0.00
   -3   12    2     -0.78      0.00
   -2   12    2      2.32      0.00
   -1   12    2     -6.06      0.00
    0   12    2     -0.60      0.00
    1   12    2     -1.30      0.00
    2   12    2      2.36      0.00
    3   12    2     -2.53      0.00
    4   12    2     -0.02      0.00
    5   12    2      4.60      0.00
    6   12    2      0.08      0.00
    7   12    2     -1.79      0.00
    8   12    2      3.61      0.00
  -20   13    2      4.00      0.00
  -19   13    2     -0.51      0.00
  -18   13    2     -2.33      0.00
  -17   13    2     -1.18      0.00
  -16   13    2      2.31      0.00
  -15   13    2      2.00      0.00
  -14   13    2     -1.20      0.00
  -13   13    2     -1.73      0.00
  -12   13    2      0.79      0.00
  -11   13    2      7.59      0.00
  -10   13    2      3.13      0.00
   -9   13    2     -2.00      0.00
   -8   13    2     -1.38      0.00
   -7   13    2     -0.30      0.00
   -6   13    2      4.38      0.00
   -5   13    2      2.42      0.00
   -4   13    2     -5.86      0.00
   -3   13    2      4.01      0.00
   -2   13    2     -0.31      0.00
   -1   13    2     -0.72      0.00
    0   13    2      2.45      0.00
    1   13    2      5.00      0.00
    2   13    2     -4.48      0.00
    3   13    2      0.23      0.00
    4   13    2      0.50      0.00
    5   13    2     -4.02      0.00
    6   13    2     -1.75      0.00
    7   13    2      2.42      0.00
  -20   14    2     -0.19      0.00
  -19   14    2      1.25      0.00
  -18   14    2     -1.17      0.00
  -17   14    2      0.08      0.00
  -16   14    2     -0.46      0.00
  -15   14    2      0.16      0.00
  -14   14    2     -2.18      0.00
  -13   14    2     -3.74      0.00
  -12   14    2     -0.37      0.00
  -11   14    2     -5.38      0.00
  -10   14    2      0.35      0.00
   -9   14    2      2.12      0.00
   -8   14    2     -3.22      0.00
   -7   14    2      1.70      0.00
   -6   14    2     -1.05      0.00
   -5   14    2     -2.40      0.00
   -4   14    2      5.50      0.00
   -3   14    2     -5.71      0.00
   -2   14    2      1.29      0.00
   -1   14    2      1.41      0.00
    0   14    2     -2.23      0.00
    1   14    2     -1.27      0.00
    2   14    2      4.15      0.00
    3   14    2     -2.54      0.00
    4   14    2     -1.43      0.00
    5   14    2      2.87      0.00
    6   14    2      0.47      0.00
  -20   15    2     -0.80      0.00
  -19   15    2      1.74      0.00
  -18   15    2      1.16      0.00
  -17   15    2     -1.02      0.00
  -16   15    2     -2.20      0.00
  -15   15    2      0.25      0.00
  -14   15    2      5.20      0.00
  -13   15    2      4.23      0.00
  -12   15    2      0.13      0.00
  -11   15    2      1.03      0.00
  -10   15    2     -3.34      0.00
   -9   15    2      0.79      0.00
   -8   15    2      4.07      0.00
   -7   15    2     -2.33      0.00
   -6   15    2      0.41      0.00
   -5   15    2      3.22      0.00
   -4   15    2     -3.13      0.00
   -3   15    2      2.72      0.00
   -2   15    2     -0.55      0.00
   -1   15    2     -0.38      0.00
    0   15    2     -1.19      0.00
    1   15    2     -1.00      0.00
    2   15    2     -0.85      0.00
    3   15    2      5.40      0.00
    4   15    2      1.17      0.00
    5   15    2     -1.09      0.00
  -20   16    2     -2.37      0.00
  -19   16    2      0.36      0.00
  -18   16    2      1.18      0.00
  -17   16    2      0.25      0.00
  -16   16    2      1.45      0.00
  -15   16    2      1.35      0.00
  -14   16    2     -2.38      0.00
  -13   16    2     -2.15      0.00
  -12   16    2      0.67      0.00
  -11   16    2     -1.50      0.00
  -10   16    2      2.10      0.00
   -9   16    2     -2.65      0.00
   -8   16    2     -2.58      0.00
   -7   16    2      2.30      0.00
   -6   16    2     -2.83      0.00
   -5   16    2     -2.61      0.00
   -4   16    2      2.31      0.00
   -3   16    2     -1.54      0.00
   -2   16    2      3.94      0.00
   -1   16    2      2.26      0.00
    0   16    2     -3.66      0.00
    1   16    2     -0.72      0.00
    2   16    2      0.75      0.00
    3   16    2     -3.20      0.00
    4   16    2      0.06      0.00
  -19   17    2     -3.10      0.00
  -18   17    2     -1.93      0.00
  -17   17    2     -0.52      0.00
  -16   17    2      0.24      0.00
  -15   17    2     -2.73      0.00
  -14   17    2      1.53      0.00
  -13   17    2      0.09      0.00
  -12   17    2     -2.53      0.00
  -11   17    2      4.40      0.00
  -10   17    2     -0.06      0.00
   -9   17    2      1.69      0.00
   -8   17    2      2.63      0.00
   -7   17    2     -0.09      0.00
   -6   17    2      2.94      0.00
   -5   17    2     -1.09      0.00
   -4   17    2     -2.75      0.00
   -3   17    2     -1.97      0.00
   -2   17    2     -4.80      0.00
   -1   17    2      3.26      0.00
    0   17    2      6.61      0.00
    1   17    2     -1.32      0.00
    2   17    2     -3.59      0.00
  -19   18    2      2.40      0.00
  -18   18    2      2.55      0.00
  -17   18    2      0.69      0.00
  -16   18    2     -3.58      0.00
  -15   18    2      2.12      0.00
  -14   18    2      2.44      0.00
  -13   18    2     -0.65      0.00
  -12   18    2      0.10      0.00
  -11   18    2     -2.91      0.00
  -10   18    2     -0.84      0.00
   -9   18    2     -1.01      0.00
   -8   18    2     -1.68      0.00
   -7   18    2     -0.37      0.00
   -6   18    2      0.16      0.00
   -5   18    2      4.63      0.00
   -4   18    2      2.51      0.00
   -3   18    2      1.44      0.00
   -2   18    2     -1.96      0.00
   -1   18    2     -3.02      0.00
    0   18    2      0.50      0.00
    1   18    2      2.42      0.00
  -18   19    2      0.36      0.00
  -17   19    2      0.06      0.00
  -16   19    2      1.95      0.00
  -15   19    2     -2.93      0.00
  -14   19    2     -3.01      0.00
  -13   19    2      4.68      0.00
  -12   19    2     -2.16      0.00
  -11   19    2     -0.31      0.00
  -10   19    2      5.05      0.00
   -9   19    2     -0.43      0.00
   -8   19    2     -1.17      0.00
   -7   19    2     -2.21      0.00
   -6   19    2     -2.86      0.00
   -5   19    2     -4.78      0.00
   -4   19    2      0.99      0.00
   -3   19    2      2.76      0.00
   -2   19    2      2.03      0.00
   -1   19    2     -3.05      0.00
  -17   20    2      3.80      0.00
  -16   20    2      0.44      0.00
  -15   20    2     -3.10      0.00
  -14   20    2      0.31      0.00
  -13   20    2     -0.82      0.00
  -12   20    2      2.60      0.00
  -11   20    2     -1.49      0.00
  -10   20    2     -3.32      0.00
   -9   20    2      2.92      0.00
   -8   20    2     -1.22      0.00
   -7   20    2      5.35      0.00
   -6   20    2      4.13      0.00
   -5   20    2      1.97      0.00
   -4   20    2     -2.89      0.00
   -3   20    2     -1.99      0.00
   -2   20    2     -0.18      0.00
  -16   21    2      2.72      0.00
  -15   21    2      3.56      0.00
  -14   21    2     -2.47      0.00
  -13   21    2      0.58      0.00
  -12   21    2      2.57      0.00
  -11   21    2     -0.40      0.00
  -10   21    2     -1.33      0.00
   -9   21    2     -1.34      0.00
   -8   21    2      2.71      0.00
   -7   21    2     -8.29      0.00
   -6   21    2     -2.02      0.00
   -5   21    2      1.63      0.00
  -14   22    2     -0.43      0.00
  -13   22    2     -1.87      0.00
  -12   22    2     -1.05      0.00
  -11   22    2      0.51      0.00
  -10   22    2      1.68      0.00
   -9   22    2      0.50      0.00
   -8   22    2     -1.88      0.00
    6  -22    3      0.39      0.00
    7  -22    3      3.97      0.00
    8  -22    3      0.56      0.00
    9  -22    3      1.18      0.00
   10  -22    3      2.29      0.00
   11  -22    3     -0.67      0.00
   12  -22    3     -3.20      0.00
   13  -22    3     -3.54      0.00
    3  -21    3      0.36      0.00
    4  -21    3     -3.36      0.00
    5  -21    3      0.29      0.00
    6  -21    3     -0.19      0.00
    7  -21    3     -0.38      0.00
    8  -21    3      0.52      0.00
    9  -21    3     -2.07      0.00
   10  -21    3     -3.15      0.00
   11  -21    3      2.68      0.00
   12  -21    3      6.36      0.00
   13  -21    3      3.11      0.00
   14  -21    3      1.85      0.00
   15  -21    3     -3.82      0.00
    1  -20    3     -2.09      0.00
    2  -20    3     -3.27      0.00
    3  -20    3      3.08      0.00
    4  -20    3      4.85      0.00
    5  -20    3     -0.96      0.00
    6  -20    3      0.74      0.00
    7  -20    3     -3.42      0.00
    8  -20    3      0.25      0.00
    9  -20    3      1.41      0.00
   10  -20    3      0.13      0.00
   11  -20    3     -2.78      0.00
   12  -20    3     -4.74      0.00
   13  -20    3      1.11      0.00
   14  -20    3     -1.48      0.00
   15  -20    3      5.34      0.00
   16  -20    3      2.15      0.00
   -1  -19    3     -0.34      0.00
    0  -19    3      0.18      0.00
    1  -19    3      1.09      0.00
    2  -19    3     -0.05      0.00
    3  -19    3     -0.21      0.00
    4  -19    3     -1.92      0.00
    5  -19    3      0.10      0.00
    6  -19    3     -1.52      0.00
    7  -19    3      2.36      0.00
    8  -19    3     -1.24      0.00
    9  -19    3      1.83      0.00
   10  -19    3      1.56      0.00
   11  -19    3     -0.69      0.00
   12  -19    3      1.21      0.00
   13  -19    3     -2.71      0.00
   14  -19    3     -1.15      0.00
   15  -19    3     -4.24      0.00
   16  -19    3      1.42      0.00
   17  -19    3     -3.24      0.00
   -3  -18    3      0.57      0.00
   -2  -18    3     -6.48      0.00
   -1  -18    3      0.72      0.00
    0  -18    3      0.82      0.00
    1  -18    3      1.48      0.00
    2  -18    3     -0.22      0.00
    3  -18    3     -3.62      0.00
    4  -18    3      3.31      0.00
    5  -18    3      0.88      0.00
    6  -18    3     -1.78      0.00
    7  -18    3     -1.38      0.00
    8  -18    3      1.26      0.00
    9  -18    3     -1.50      0.00
   10  -18    3      1.30      0.00
   11  -18    3      4.28      0.00
   12  -18    3     -0.32      0.00
   13  -18    3      0.54      0.00
   14  -18    3      3.27      0.00
   15  -18    3      1.03      0.00
   16  -18    3     -3.06      0.00
   17  -18    3      3.93      0.00
   -4  -17    3     -5.52      0.00
   -3  -17    3      0.33      0.00
   -2  -17    3      5.84      0.00
   -1  -17    3     -2.35      0.00
    0  -17    3     -2.07      0.00
    1  -17    3      0.70      0.00
    2  -17    3      1.25      0.00
    3  -17    3      0.63      0.00
    4  -17    3     -3.39      0.00
    5  -17    3      3.24      0.00
    6  -17    3      3.17      0.00
    7  -17    3     -0.45      0.00
    8  -17    3     -0.25      0.00
    9  -17    3      0.00      0.00
   10  -17    3     -3.91      0.00
   11  -17    3     -5.59      0.00
   12  -17    3     -0.83      0.00
   13  -17    3      0.31      0.00
   14  -17    3     -0.95      0.00
   15  -17    3      0.28      0.00
   16  -17    3      1.05      0.00
   17  -17    3     -1.64      0.00
   18  -17    3     -0.18      0.00
   -5  -16    3      4.06      0.00
   -4  -16    3      5.84      0.00
   -3  -16    3     -1.13      0.00
   -2  -16    3     -2.81      0.00
   -1  -16    3      1.37      0.00
    0  -16    3      0.03      0.00
    1  -16    3     -0.33      0.00
    2  -16    3      0.12      0.00
    3  -16    3     -0.31      0.00
    4  -16    3      0.20      0.00
    5  -16    3     -7.61      0.00
    6  -16    3      0.29      0.00
    7  -16    3      4.85      0.00
    8  -16    3     -0.76      0.00
    9  -16    3      0.88      0.00
   10  -16    3      3.62      0.00
   11  -16    3      4.29      0.00
   12  -16    3      2.71      0.00
   13  -16    3     -0.73      0.00
   14  -16    3     -2.46      0.00
   15  -16    3      2.21      0.00
   16  -16    3      1.69      0.00
   17  -16    3     -2.49      0.00
   18  -16    3     -0.57      0.00
   -7  -15    3      0.12      0.00
   -6  -15    3     -4.55      0.00
   -5  -15    3     -4.24      0.00
   -4  -15    3     -2.22      0.00
   -3  -15    3      1.21      0.00
   -2  -15    3     -1.69      0.00
   -1  -15    3      1.90      0.00
    0  -15    3      2.05      0.00
    1  -15    3     -0.93      0.00
    2  -15    3      2.03      0.00
    3  -15    3      1.19      0.00
    4  -15    3     -2.55      0.00
    5  -15    3      5.91      0.00
    6  -15    3     -4.03      0.00
    7  -15    3     -6.20      0.00
    8  -15    3      2.43      0.00
    9  -15    3     -1.85      0.00
   10  -15    3     -3.76      0.00
   11  -15    3     -1.64      0.00
   12  -15    3      0.81      0.00
   13  -15    3     -0.08      0.00
   14  -15    3      0.92      0.00
   15  -15    3     -2.28      0.00
   16  -15    3     -3.10      0.00
   17  -15    3      3.52      0.00
   18  -15    3     -0.27      0.00
   -8  -14    3     -2.63      0.00
   -7  -14    3     -0.45      0.00
   -6  -14    3      5.69      0.00
   -5  -14    3      1.02      0.00
   -4  -14    3     -1.08      0.00
   -3  -14    3      0.61      0.00
   -2  -14    3      3.71      0.00
   -1  -14    3     -4.81      0.00
    0  -14    3      0.27      0.00
    1  -14    3     -2.31      0.00
    2  -14    3     -3.24      0.00
    3  -14    3      1.92      0.00
    4  -14    3      7.71      0.00
    5  -14    3      0.35      0.00
    6  -14    3      3.33      0.00
    7  -14    3     -0.26      0.00
    8  -14    3     -2.19      0.00
    9  -14    3      4.20      0.00
   10  -14    3      1.51      0.00
   11  -14    3     -2.05      0.00
   12  -14    3     -2.90      0.00
   13  -14    3      3.42      0.00
   14  -14    3      0.39      0.00
   15  -14    3     -0.05      0.00
   16  -14    3      3.50      0.00
   17  -14    3     -2.84      0.00
   18  -14    3      0.25      0.00
   19  -14    3      0.20      0.00
   -9  -13    3     -2.82      0.00
   -8  -13    3      2.46      0.00
   -7  -13    3      0.99      0.00
   -6  -13    3     -2.80      0.00
   -5  -13    3      1.53      0.00
   -4  -13    3      0.02      0.00
   -3  -13    3     -0.78      0.00
   -2  -13    3     -3.21      0.00
   -1  -13    3      5.37      0.00
    0  -13    3     -1.14      0.00
    1  -13    3      3.70      0.00
    2  -13    3     -3.69      0.00
    3  -13    3     -4.66      0.00
    4  -13    3     -5.94      0.00
    5  -13    3      0.72      0.00
    6  -13    3      1.36      0.00
    7  -13    3      2.33      0.00
    8  -13    3     -3.18      0.00
    9  -13    3     -4.19      0.00
   10  -13    3      3.50      0.00
   11  -13    3      2.71      0.00
   12  -13    3      1.72      0.00
   13  -13    3     -2.96      0.00
   14  -13    3     -1.42      0.00
   15  -13    3      0.01      0.00
   16  -13    3     -0.58      0.00
   17  -13    3      1.91      0.00
   18  -13    3     -0.99      0.00
   19  -13    3     -0.71      0.00
  -10  -12    3     -2.95      0.00
   -9  -12    3      3.12      0.00
   -8  -12    3      0.76      0.00
   -7  -12    3     -3.29      0.00
   -6  -12    3     -1.46      0.00
   -5  -12    3      0.48      0.00
   -4  -12    3      3.21      0.00
   -3  -12    3     -3.68      0.00
   -2  -12    3      3.75      0.00
   -1  -12    3     -4.78      0.00
    0  -12    3      1.14      0.00
    1  -12    3     -1.51      0.00
    2  -12    3      8.78      0.00
    3  -12    3     -0.51      0.00
    4  -12    3     -0.87      0.00
    5  -12    3     -0.36      0.00
    6  -12    3     -1.20      0.00
    7  -12    3      0.24      0.00
    8  -12    3      4.50      0.00
    9  -12    3      0.86      0.00
   10  -12    3     -4.82      0.00
   11  -12    3     -1.06      0.00
   12  -12    3     -0.90      0.00
   13  -12    3      1.18      0.00
   14  -12    3      1.09      0.00
   15  -12    3      0.48      0.00
   16  -12    3     -1.46      0.00
   17  -12    3     -0.78      0.00
   18  -12    3      1.93      0.00
   19  -12    3      0.41      0.00
  -11  -11    3      1.08      0.00
  -10  -11    3      1.82      0.00
   -9  -11    3     -3.36      0.00
   -8  -11    3     -1.13      0.00
   -7  -11    3      4.89      0.00
   -6  -11    3      0.38      0.00
   -5  -11    3     -1.88      0.00
   -4  -11    3     -1.65      0.00
   -3  -11    3      6.75      0.00
   -2  -11    3     -3.26      0.00
   -1  -11    3      0.14      0.00
    0  -11    3     -4.69      0.00
    1  -11    3      6.90      0.00
    2  -11    3     -3.32      0.00
    3  -11    3      4.16      0.00
    4  -11    3     -2.26      0.00
    5  -11    3     -6.12      0.00
    6  -11    3      1.61      0.00
    7  -11    3      1.14      0.00
    8  -11    3     -0.32      0.00
    9  -11    3      4.10      0.00
   10  -11    3      1.99      0.00
   11  -11    3     -3.07      0.00
   12  -11    3     -0.47      0.00
   13  -11    3      0.86      0.00
   14  -11    3      1.32      0.00
   15  -11    3     -0.80      0.00
   16  -11    3      1.98      0.00
   17  -11    3     -1.27      0.00
   18  -11    3     -1.68      0.00
   19  -11    3      0.17      0.00
  -11  -10    3      3.03      0.00
  -10  -10    3      0.40      0.00
   -9  -10    3     -1.95      0.00
   -8  -10    3      2.75      0.00
   -7  -10    3     -1.02      0.00
   -6  -10    3     -0.98      0.00
   -5  -10    3     -1.42      0.00
   -4  -10    3      2.95      0.00
   -3  -10    3     -6.15      0.00
   -2  -10    3      1.93      0.00
   -1  -10    3      1.20      0.00
    0  -10    3      4.26      0.00
    1  -10    3     -8.97      0.00
    2  -10    3      0.88      0.00
    3  -10    3      0.79      0.00
    4  -10    3      5.08      0.00
    5  -10    3      3.94      0.00
    6  -10    3     -4.06      0.00
    7  -10    3     -2.44      0.00
    8  -10    3     -3.58      0.00
    9  -10    3     -4.09      0.00
   10  -10    3      1.60      0.00
   11  -10    3      4.01      0.00
   12  -10    3      1.46      0.00
   13  -10    3     -1.72      0.00
   14  -10    3     -3.33      0.00
   15  -10    3      1.52      0.00
   16  -10    3     -0.40      0.00
   17  -10    3      2.79      0.00
   18  -10    3      0.09      0.00
   19  -10    3      0.80      0.00
  -12   -9    3     -2.02      0.00
  -11   -9    3     -4.13      0.00
  -10   -9    3     -0.19      0.00
   -9   -9    3      2.98      0.00
   -8   -9    3     -4.26      0.00
   -7   -9    3      1.69      0.00
   -6   -9    3      0.26      0.00
   -5   -9    3      2.69      0.00
   -4   -9    3     -4.02      0.00
   -3   -9    3      3.28      0.00
   -2   -9    3     -3.59      0.00
   -1   -9    3      7.17      0.00
    0   -9    3     -7.86      0.00
    1   -9    3      0.18      0.00
    2   -9    3      3.35      0.00
    3   -9    3     -2.19      0.00
    4   -9    3     -4.30      0.00
    5   -9    3     -0.13      0.00
    6   -9    3      8.69      0.00
    7   -9    3      0.90      0.00
    8   -9    3      3.36      0.00
    9   -9    3     -0.79      0.00
   10   -9    3     -2.47      0.00
   11   -9    3     -3.06      0.00
   12   -9    3     -1.27      0.00
   13   -9    3      0.70      0.00
   14   -9    3      2.76      0.00
   15   -9    3     -2.08      0.00
   16   -9    3      0.49      0.00
   17   -9    3     -2.45      0.00
   18   -9    3     -3.15      0.00
   19   -9    3     -0.02      0.00
  -13   -8    3      3.05      0.00
  -12   -8    3      2.26      0.00
  -11   -8    3      2.37      0.00
  -10   -8    3      2.38      0.00
   -9   -8    3     -1.23      0.00
   -8   -8    3     -0.89      0.00
   -7   -8    3     -4.00      0.00
   -6   -8    3      8.42      0.00
   -5   -8    3     -5.68      0.00
   -4   -8    3      0.33      0.00
   -3   -8    3      3.61      0.00
   -2   -8    3      8.51      0.00
   -1   -8    3    -15.34      0.00
    0   -8    3     10.39      0.00
    1   -8    3      7.51      0.00
    2   -8    3     -8.07      0.00
    3   -8    3     -1.86      0.00
    4   -8    3      3.90      0.00
    5   -8    3      1.77      0.00
    6   -8    3    -11.32      0.00
    7   -8    3      2.77      0.00
    8   -8    3     -1.86      0.00
    9   -8    3      4.90      0.00
   10   -8    3      2.61      0.00
   11   -8    3      2.18      0.00
   12   -8    3     -0.77      0.00
   13   -8    3      2.43      0.00
   14   -8    3     -1.94      0.00
   15   -8    3     -1.14      0.00
   16   -8    3      0.39      0.00
   17   -8    3      3.10      0.00
   18   -8    3      2.80      0.00
   19   -8    3     -2.12      0.00
  -14   -7    3      2.36      0.00
  -13   -7    3     -4.10      0.00
  -12   -7    3     -5.58      0.00
  -11   -7    3      3.29      0.00
  -10   -7    3     -1.45      0.00
   -9   -7    3      0.66      0.00
   -8   -7    3      1.44      0.00
   -7   -7    3      7.50      0.00
   -6   -7    3    -14.32      0.00
   -5   -7    3      2.43      0.00
   -4   -7    3      2.01      0.00
   -3   -7    3     -5.99      0.00
   -2   -7    3    -12.26      0.00
   -1   -7    3     24.05      0.00
    0   -7    3     -7.53      0.00
    1   -7    3    -19.89      0.00
    2   -7    3      8.76      0.00
    3   -7    3      8.85      0.00
    4   -7    3     -2.26      0.00
    5   -7    3     -7.77      0.00
    6   -7    3      9.80      0.00
    7   -7    3     -4.19      0.00
    8   -7    3     -1.97      0.00
    9   -7    3     -5.76      0.00
   10   -7    3      3.18      0.00
   11   -7    3     -0.18      0.00
   12   -7    3     -0.80      0.00
   13   -7    3     -2.71      0.00
   14   -7    3      1.77      0.00
   15   -7    3      2.43      0.00
   16   -7    3     -0.65      0.00
   17   -7    3     -2.25      0.00
   18   -7    3     -0.90      0.00
  -14   -6    3     -1.26      0.00
  -13   -6    3      5.58      0.00
  -12   -6    3      3.14      0.00
  -11   -6    3     -8.18      0.00
  -10   -6    3      2.07      0.00
   -9   -6    3      0.27      0.00
   -8   -6    3      3.18      0.00
   -7   -6    3    -11.65      0.00
   -6   -6    3     14.60      0.00
   -5   -6    3      5.46      0.00
   -4   -6    3     -4.56      0.00
   -3   -6    3     -0.51      0.00
   -2   -6    3     11.65      0.00
   -1   -6    3    -18.59      0.00
    0   -6    3      3.76      0.00
    1   -6    3     16.20      0.00
    2   -6    3      0.31      0.00
    3   -6    3     -5.80      0.00
    4   -6    3     -5.56      0.00
    5   -6    3      9.25      0.00
    6   -6    3     -5.81      0.00
    7   -6    3      4.24      0.00
    8   -6    3      0.07      0.00
    9   -6    3      2.62      0.00
   10   -6    3     -7.19      0.00
   11   -6    3      1.17      0.00
   12   -6    3      3.27      0.00
   13   -6    3      1.19      0.00
   14   -6    3     -1.50      0.00
   15   -6    3     -2.46      0.00
   16   -6    3      0.20      0.00
   17   -6    3      4.98      0.00
   18   -6    3      1.58      0.00
  -15   -5    3     -1.43      0.00
  -14   -5    3     -1.76      0.00
  -13   -5    3     -0.04      0.00
  -12   -5    3      0.31      0.00
  -11   -5    3      1.64      0.00
  -10   -5    3     -2.16      0.00
   -9   -5    3      1.45      0.00
   -8   -5    3     -8.66      0.00
   -7   -5    3      9.80      0.00
   -6   -5    3     -8.69      0.00
   -5   -5    3     -3.87      0.00
   -4   -5    3     -1.21      0.00
   -3   -5    3      9.31      0.00
   -2   -5    3     -6.10      0.00
   -1   -5    3      1.84      0.00
    0   -5    3      5.44      0.00
    1   -5    3     -6.44      0.00
    2   -5    3    -13.05      0.00
    3   -5    3      5.83      0.00
    4   -5    3     17.01      0.00
    5   -5    3     -9.70      0.00
    6   -5    3      0.36      0.00
    7   -5    3     -0.67      0.00
    8   -5    3      6.93      0.00
    9   -5    3     -6.37      0.00
   10   -5    3      2.47      0.00
   11   -5    3     -0.39      0.00
   12   -5    3     -0.73      0.00
   13   -5    3     -2.04      0.00
   14   -5    3      1.03      0.00
   15   -5    3     -1.09      0.00
   16   -5    3     -2.56      0.00
   17   -5    3     -3.51      0.00
   18   -5    3     -0.75      0.00
  -16   -4    3     -0.30      0.00
  -15   -4    3      0.55      0.00
  -14   -4    3      1.19      0.00
  -13   -4    3     -2.67      0.00
  -12   -4    3      2.31      0.00
  -11   -4    3      2.63      0.00
  -10   -4    3      0.68      0.00
   -9   -4    3     -3.86      0.00
   -8   -4    3     12.19      0.00
   -7   -4    3     -5.34      0.00
   -6   -4    3     -0.31      0.00
   -5   -4    3      2.77      0.00
   -4   -4    3     14.53      0.00
   -3   -4    3    -22.04      0.00
   -2   -4    3     -0.91      0.00
   -1   -4    3     10.60      0.00
    0   -4    3    -12.19      0.00
    1   -4    3     -4.86      0.00
    2   -4    3      7.62      0.00
    3   -4    3      5.82      0.00
    4   -4    3    -20.38      0.00
    5   -4    3      2.33      0.00
    6   -4    3      2.52      0.00
    7   -4    3      4.33      0.00
    8   -4    3     -6.31      0.00
    9   -4    3     10.76      0.00
   10   -4    3     -1.48      0.00
   11   -4    3     -2.84      0.00
   12   -4    3     -0.75      0.00
   13   -4    3      4.82      0.00
   14   -4    3      1.69      0.00
   15   -4    3      2.97      0.00
   16   -4    3      2.19      0.00
   17   -4    3     -0.77      0.00
   18   -4    3     -0.43      0.00
  -16   -3    3      2.04      0.00
  -15   -3    3     -1.07      0.00
  -14   -3    3      0.08      0.00
  -13   -3    3      1.69      0.00
  -12   -3    3     -1.97      0.00
  -11   -3    3     -2.59      0.00
  -10   -3    3     -3.67      0.00
   -9   -3    3      7.18      0.00
   -8   -3    3    -13.99      0.00
   -7   -3    3      3.43      0.00
   -6   -3    3      2.53      0.00
   -5   -3    3     -0.76      0.00
   -4   -3    3    -15.26      0.00
   -3   -3    3     17.81      0.00
   -2   -3    3      0.34      0.00
   -1   -3    3     -6.34      0.00
    0   -3    3     30.86      0.00
    1   -3    3      5.87      0.00
    2   -3    3    -13.73      0.00
    3   -3    3    -10.94      0.00
    4   -3    3     24.01      0.00
    5   -3    3     -3.08      0.00
    6   -3    3     -7.04      0.00
    7   -3    3    -10.05      0.00
    8   -3    3      8.85      0.00
    9   -3    3     -6.45      0.00
   10   -3    3      2.13      0.00
   11   -3    3     -1.23      0.00
   12   -3    3     -1.60      0.00
   13   -3    3     -2.54      0.00
   14   -3    3     -2.01      0.00
   15   -3    3     -0.94      0.00
   16   -3    3     -0.63      0.00
   17   -3    3      1.98      0.00
  -17   -2    3      1.38      0.00
  -16   -2    3     -0.48      0.00
  -15   -2    3      0.02      0.00
  -14   -2    3     -0.40      0.00
  -13   -2    3     -1.31      0.00
  -12   -2    3      1.15      0.00
  -11   -2    3      1.03      0.00
  -10   -2    3      7.79      0.00
   -9   -2    3     -7.16      0.00
   -8   -2    3     10.57      0.00
   -6   -2    3      1.95      0.00
   -5   -2    3     -5.61      0.00
   -4   -2    3     14.67      0.00
   -3   -2    3    -11.74      0.00
   -2   -2    3     -4.80      0.00
   -1   -2    3     13.60      0.00
    0   -2    3    -36.87      0.00
    1   -2    3      5.95      0.00
    2   -2    3     -1.48      0.00
    3   -2    3     -7.09      0.00
    4   -2    3     -0.10      0.00
    5   -2    3     16.14      0.00
    6   -2    3     -2.69      0.00
    7   -2    3      4.34      0.00
    8   -2    3    -11.45      0.00
    9   -2    3      5.91      0.00
   10   -2    3      1.02      0.00
   11   -2    3      3.99      0.00
   12   -2    3      0.32      0.00
   13   -2    3     -0.01      0.00
   14   -2    3      0.52      0.00
   15   -2    3     -1.98      0.00
   16   -2    3     -0.03      0.00
   17   -2    3      0.35      0.00
  -17   -1    3      0.49      0.00
  -16   -1    3     -1.34      0.00
  -15   -1    3     -0.27      0.00
  -14   -1    3     -0.59      0.00
  -13   -1    3      1.24      0.00
  -12   -1    3     -1.58      0.00
  -11   -1    3      1.61      0.00
  -10   -1    3     -7.29      0.00
   -9   -1    3      3.96      0.00
   -8   -1    3     -5.54      0.00
   -7   -1    3      6.90      0.00
   -5   -1    3     -1.46      0.00
   -4   -1    3      6.64      0.00
   -3   -1    3     24.68      0.00
   -2   -1    3    -43.98      0.00
   -1   -1    3    -32.09      0.00
    0   -1    3     72.05      0.00
    1   -1    3      1.78      0.00
    2   -1    3      8.94      0.00
    3   -1    3     -4.32      0.00
    4   -1    3    -14.74      0.00
    5   -1    3     -9.74      0.00
    6   -1    3     17.08      0.00
    7   -1    3     -2.28      0.00
    8   -1    3      2.66      0.00
    9   -1    3     -7.06      0.00
   10   -1    3      2.16      0.00
   11   -1    3     -1.85      0.00
   12   -1    3     -0.56      0.00
   13   -1    3      1.19      0.00
   14   -1    3      2.19      0.00
   15   -1    3      0.12      0.00
   16   -1    3     -1.26      0.00
  -18    0    3     -0.14      0.00
  -17    0    3     -1.17      0.00
  -16    0    3      4.11      0.00
  -15    0    3      0.22      0.00
  -14    0    3     -2.21      0.00
  -13    0    3     -0.55      0.00
  -12    0    3      4.51      0.00
  -11    0    3     -5.75      0.00
  -10    0    3      1.05      0.00
   -9    0    3      4.33      0.00
   -8    0    3     10.02      0.00
   -7    0    3    -12.17      0.00
   -6    0    3      6.60      0.00
   -5    0    3      0.55      0.00
   -4    0    3    -20.94      0.00
   -3    0    3      3.34      0.00
   -2    0    3     80.63      0.00
   -1    0    3    -14.66      0.00
    0    0    3   -101.17      0.00
    1    0    3     24.56      0.00
    2    0    3     11.96      0.00
    3    0    3      7.59      0.00
    4    0    3     -5.72      0.00
    5    0    3      4.00      0.00
    6    0    3    -15.40      0.00
    7    0    3      5.04      0.00
    8    0    3      0.56      0.00
    9    0    3      3.92      0.00
   10    0    3     -3.11      0.00
   11    0    3      1.87      0.00
   12    0    3      0.40      0.00
   13    0    3     -2.76      0.00
   14    0    3      0.35      0.00
   15    0    3      1.07      0.00
   16    0    3     -3.49      0.00
  -18    1    3      1.50      0.00
  -17    1    3     -0.96      0.00
  -16    1    3     -2.12      0.00
  -15    1    3      1.76      0.00
  -14    1    3      0.08      0.00
  -13    1    3     -0.91      0.00
  -12    1    3     -0.87      0.00
  -11    1    3      7.79      0.00
  -10    1    3     -3.01      0.00
   -9    1    3     -8.28      0.00
   -8    1    3    -15.28      0.00
   -7    1    3     16.27      0.00
   -6    1    3      7.52      0.00
   -5    1    3     -6.67      0.00
   -4    1    3    -14.59      0.00
   -3    1    3      6.24      0.00
   -2    1    3    -14.41      0.00
   -1    1    3      5.91      0.00
    0    1    3     48.13      0.00
    1    1    3    -26.17      0.00
    2    1    3      0.04      0.00
    3    1    3     -5.01      0.00
    4    1    3     16.32      0.00
    5    1    3     -4.06      0.00
    6    1    3      3.44      0.00
    7    1    3     -1.29      0.00
    8    1    3      5.72      0.00
    9    1    3     -5.88      0.00
   10    1    3     -0.67      0.00
   11    1    3     -0.30      0.00
   12    1    3     -0.97      0.00
   13    1    3      1.48      0.00
   14    1    3      0.52      0.00
   15    1    3      3.76      0.00
  -19    2    3     -1.30      0.00
  -18    2    3     -3.16      0.00
  -17    2    3      0.82      0.00
  -16    2    3     -0.57      0.00
  -15    2    3      1.31      0.00
  -14    2    3      3.46      0.00
  -13    2    3     -2.99      0.00
  -12    2    3     -2.44      0.00
  -11    2    3      0.01      0.00
  -10    2    3      5.85      0.00
   -9    2    3     -4.01      0.00
   -8    2    3     13.78      0.00
   -7    2    3     -7.69      0.00
   -6    2    3     -5.62      0.00
   -4    2    3     17.89      0.00
   -3    2    3    -46.62      0.00
   -2    2    3    -21.86      0.00
   -1    2    3     54.47      0.00
    0    2    3    -13.30      0.00
    1    2    3    -12.62      0.00
    2    2    3    -10.16      0.00
    3    2    3     18.27      0.00
    4    2    3    -18.96      0.00
    5    2    3     -1.03      0.00
    6    2    3      8.06      0.00
    7    2    3     -0.42      0.00
    8    2    3     -8.95      0.00
    9    2    3      5.83      0.00
   10    2    3      3.51      0.00
   11    2    3      0.75      0.00
   12    2    3     -1.08      0.00
   13    2    3     -2.23      0.00
   14    2    3     -1.46      0.00
   15    2    3     -2.27      0.00
  -19    3    3      3.10      0.00
  -18    3    3      0.25      0.00
  -17    3    3     -0.38      0.00
  -16    3    3     -0.58      0.00
  -15    3    3     -0.41      0.00
  -14    3    3     -1.06      0.00
  -13    3    3      2.45      0.00
  -12    3    3     -0.88      0.00
  -11    3    3     -3.17      0.00
  -10    3    3     -1.32      0.00
   -9    3    3     13.92      0.00
   -8    3    3    -13.73      0.00
   -7    3    3     -8.43      0.00
   -6    3    3      5.64      0.00
   -5    3    3      3.16      0.00
   -4    3    3    -11.67      0.00
   -3    3    3     21.93      0.00
   -2    3    3     34.57      0.00
   -1    3    3    -45.12      0.00
    0    3    3     -5.49      0.00
    1    3    3     20.48      0.00
    2    3    3     13.92      0.00
    3    3    3    -23.46      0.00
    4    3    3     15.28      0.00
    5    3    3      4.37      0.00
    6    3    3    -10.04      0.00
    7    3    3     -3.79      0.00
    8    3    3      8.78      0.00
    9    3    3     -2.27      0.00
   10    3    3     -5.58      0.00
   11    3    3     -0.54      0.00
   12    3    3      3.50      0.00
   13    3    3      0.53      0.00
   14    3    3     -0.54      0.00
  -19    4    3     -1.65      0.00
  -18    4    3      1.94      0.00
  -17    4    3     -1.03      0.00
  -16    4    3      0.79      0.00
  -15    4    3     -1.38      0.00
  -14    4    3      0.71      0.00
  -13    4    3     -1.52      0.00
  -12    4    3     -0.33      0.00
  -11    4    3      1.56      0.00
  -10    4    3      0.96      0.00
   -9    4    3    -10.78      0.00
   -8    4    3     10.31      0.00
   -7    4    3     12.17      0.00
   -6    4    3    -10.20      0.00
   -5    4    3    -12.71      0.00
   -4    4    3     17.95      0.00
   -3    4    3     -3.88      0.00
   -2    4    3    -39.80      0.00
   -1    4    3     29.34      0.00
    0    4    3     15.67      0.00
    1    4    3    -14.07      0.00
    2    4    3    -19.42      0.00
    3    4    3     18.94      0.00
    4    4    3     -6.02      0.00
    5    4    3     -1.88      0.00
    6    4    3      2.08      0.00
    7    4    3      7.34      0.00
    8    4    3     -2.46      0.00
    9    4    3     -1.21      0.00
   10    4    3      3.16      0.00
   11    4    3      0.84      0.00
   12    4    3     -0.98      0.00
   13    4    3     -2.50      0.00
   14    4    3     -0.83      0.00
  -20    5    3      0.75      0.00
  -19    5    3      1.15      0.00
  -18    5    3     -0.48      0.00
  -17    5    3      2.99      0.00
  -16    5    3     -2.47      0.00
  -15    5    3      0.18      0.00
  -14    5    3      2.07      0.00
  -13    5    3      3.04      0.00
  -12    5    3     -0.58      0.00
  -11    5    3     -1.40      0.00
  -10    5    3     -4.28      0.00
   -9    5    3      5.77      0.00
   -8    5    3     -0.66      0.00
   -7    5    3    -11.13      0.00
   -6    5    3      2.33      0.00
   -5    5    3     13.36      0.00
   -4    5    3     -4.43      0.00
   -3    5    3     -6.06      0.00
   -2    5    3     11.59      0.00
   -1    5    3    -11.97      0.00
    0    5    3     -0.52      0.00
    1    5    3     -1.83      0.00
    2    5    3     16.25      0.00
    3    5    3     -8.02      0.00
    4    5    3      1.91      0.00
    5    5    3     -3.95      0.00
    6    5    3      3.08      0.00
    7    5    3     -6.42      0.00
    8    5    3     -3.53      0.00
    9    5    3      3.84      0.00
   10    5    3      1.41      0.00
   11    5    3     -0.76      0.00
   12    5    3      0.04      0.00
   13    5    3      4.60      0.00
  -20    6    3     -2.27      0.00
  -19    6    3     -0.85      0.00
  -18    6    3      1.35      0.00
  -17    6    3     -3.77      0.00
  -16    6    3      3.96      0.00
  -15    6    3     -2.37      0.00
  -14    6    3     -3.43      0.00
  -13    6    3      0.59      0.00
  -12    6    3      3.34      0.00
  -11    6    3     -0.73      0.00
  -10    6    3      5.48      0.00
   -9    6    3     -1.46      0.00
   -8    6    3     -2.66      0.00
   -7    6    3      3.75      0.00
   -6    6    3      1.62      0.00
   -5    6    3     -6.79      0.00
   -4    6    3     -1.33      0.00
   -3    6    3     17.16      0.00
   -2    6    3     -3.87      0.00
   -1    6    3     -6.39      0.00
    0    6    3     -8.17      0.00
    1    6    3     16.95      0.00
    2    6    3     -6.63      0.00
    3    6    3     -2.27      0.00
    4    6    3     -0.92      0.00
    5    6    3      8.58      0.00
    6    6    3     -4.22      0.00
    7    6    3     -2.05      0.00
    8    6    3      4.85      0.00
    9    6    3     -3.27      0.00
   10    6    3     -4.19      0.00
   11    6    3      0.59      0.00
   12    6    3     -0.14      0.00
   13    6    3     -1.72      0.00
  -20    7    3      3.08      0.00
  -19    7    3      1.92      0.00
  -18    7    3     -3.16      0.00
  -17    7    3      2.25      0.00
  -16    7    3     -2.30      0.00
  -15    7    3      2.25      0.00
  -14    7    3     -0.59      0.00
  -13    7    3     -1.84      0.00
  -12    7    3     -2.70      0.00
  -11    7    3      1.37      0.00
  -10    7    3     -2.05      0.00
   -9    7    3     -2.11      0.00
   -8    7    3      1.48      0.00
   -7    7    3      5.79      0.00
   -6    7    3     -2.39      0.00
   -5    7    3     -5.33      0.00
   -4    7    3      2.12      0.00
   -3    7    3     -6.35      0.00
   -1    7    3      3.02      0.00
    1    7    3    -18.85      0.00
    2    7    3     -1.46      0.00
    3    7    3      3.37      0.00
    4    7    3      2.35      0.00
    5    7    3     -5.03      0.00
    6    7    3      4.11      0.00
    7    7    3      5.75      0.00
    8    7    3     -3.19      0.00
    9    7    3      0.32      0.00
   10    7    3      1.85      0.00
   11    7    3      1.43      0.00
   12    7    3      0.23      0.00
  -20    8    3     -2.88      0.00
  -19    8    3     -2.61      0.00
  -18    8    3      4.08      0.00
  -17    8    3     -1.67      0.00
  -16    8    3      0.91      0.00
  -15    8    3      0.95      0.00
  -14    8    3      1.72      0.00
  -13    8    3     -0.40      0.00
  -12    8    3      0.84      0.00
  -11    8    3     -0.09      0.00
  -10    8    3     -2.53      0.00
   -9    8    3     -1.49      0.00
   -8    8    3     -0.85      0.00
   -7    8    3     -1.35      0.00
   -6    8    3     -1.04      0.00
   -5    8    3      4.75      0.00
   -4    8    3     -2.98      0.00
   -3    8    3     -4.23      0.00
   -2    8    3     -4.61      0.00
   -1    8    3      7.83      0.00
    0    8    3     -3.02      0.00
    1    8    3      5.57      0.00
    2    8    3      5.09      0.00
    3    8    3      1.86      0.00
    4    8    3     -9.51      0.00
    5    8    3      3.02      0.00
    6    8    3      1.05      0.00
    7    8    3     -3.10      0.00
    8    8    3      0.26      0.00
    9    8    3      1.51      0.00
   10    8    3     -0.37      0.00
   11    8    3     -1.99      0.00
  -20    9    3      1.30      0.00
  -19    9    3     -0.01      0.00
  -18    9    3     -1.60      0.00
  -17    9    3      1.43      0.00
  -16    9    3     -0.66      0.00
  -15    9    3     -0.40      0.00
  -14    9    3     -0.34      0.00
  -13    9    3      1.36      0.00
  -12    9    3      1.28      0.00
  -11    9    3      0.65      0.00
  -10    9    3      3.71      0.00
   -9    9    3      6.60      0.00
   -8    9    3     -1.79      0.00
   -7    9    3     -6.77      0.00
   -6    9    3      8.38      0.00
   -5    9    3      2.93      0.00
   -4    9    3     -0.83      0.00
   -3    9    3      0.51      0.00
   -2    9    3      3.85      0.00
   -1    9    3    -10.96      0.00
    0    9    3     -0.10      0.00
    1    9    3      6.77      0.00
    2    9    3     -3.11      0.00
    3    9    3     -5.60      0.00
    4    9    3      6.96      0.00
    5    9    3     -2.89      0.00
    6    9    3     -1.73      0.00
    7    9    3      0.05      0.00
    8    9    3     -0.25      0.00
    9    9    3      0.37      0.00
   10    9    3     -0.48      0.00
  -21   10    3      1.16      0.00
  -20   10    3      1.22      0.00
  -19   10    3      2.09      0.00
  -18   10    3      0.27      0.00
  -17   10    3     -2.17      0.00
  -16   10    3     -0.93      0.00
  -15   10    3      0.45      0.00
  -14   10    3      0.30      0.00
  -13   10    3     -1.36      0.00
  -12   10    3     -2.91      0.00
  -11   10    3     -3.54      0.00
  -10   10    3     -0.60      0.00
   -9   10    3     -3.49      0.00
   -8   10    3      0.74      0.00
   -7   10    3      5.50      0.00
   -6   10    3     -8.22      0.00
   -5   10    3     -4.92      0.00
   -4   10    3      2.71      0.00
   -3   10    3      3.50      0.00
   -2   10    3     -4.06      0.00
   -1   10    3      5.96      0.00
    0   10    3      0.77      0.00
    1   10    3     -6.70      0.00
    2   10    3     -2.69      0.00
    3   10    3      7.71      0.00
    4   10    3     -0.81      0.00
    5   10    3     -1.74      0.00
    6   10    3      0.31      0.00
    7   10    3      2.48      0.00
    8   10    3      3.30      0.00
    9   10    3     -0.96      0.00
   10   10    3     -0.87      0.00
  -21   11    3      0.32      0.00
  -20   11    3     -3.37      0.00
  -19   11    3     -3.31      0.00
  -18   11    3     -0.82      0.00
  -17   11    3      4.04      0.00
  -16   11    3     -0.24      0.00
  -15   11    3     -1.16      0.00
  -14   11    3     -1.04      0.00
  -13   11    3      1.12      0.00
  -12   11    3      3.91      0.00
  -11   11    3      2.63      0.00
  -10   11    3     -2.09      0.00
   -9   11    3      1.00      0.00
   -8   11    3      4.43      0.00
   -7   11    3     -1.80      0.00
   -6   11    3      0.14      0.00
   -5   11    3      2.48      0.00
   -4   11    3      1.26      0.00
   -3   11    3     -3.31      0.00
   -2   11    3      3.35      0.00
   -1   11    3      0.70      0.00
    0   11    3     -1.62      0.00
    1   11    3      1.00      0.00
    2   11    3      3.60      0.00
    3   11    3     -2.03      0.00
    4   11    3     -1.33      0.00
    5   11    3     -0.08      0.00
    6   11    3      1.31      0.00
    7   11    3     -2.49      0.00
    8   11    3     -5.76      0.00
    9   11    3      0.47      0.00
  -21   12    3     -0.67      0.00
  -20   12    3      1.80      0.00
  -19   12    3      3.69      0.00
  -18   12    3      3.06      0.00
  -17   12    3     -2.43      0.00
  -16   12    3     -0.09      0.00
  -15   12    3      0.41      0.00
  -14   12    3      2.52      0.00
  -13   12    3     -1.35      0.00
  -12   12    3     -4.57      0.00
  -11   12    3     -2.41      0.00
  -10   12    3      0.98      0.00
   -9   12    3      0.49      0.00
   -8   12    3     -2.90      0.00
   -7   12    3     -0.97      0.00
   -6   12    3      0.60      0.00
   -5   12    3      0.60      0.00
   -4   12    3      0.10      0.00
   -3   12    3      0.94      0.00
   -2   12    3     -3.97      0.00
   -1   12    3     -3.03      0.00
    0   12    3      0.10      0.00
    1   12    3      1.71      0.00
    2   12    3     -0.10      0.00
    3   12    3     -2.45      0.00
    4   12    3      3.51      0.00
    5   12    3      3.13      0.00
    6   12    3     -3.47      0.00
    7   12    3      1.02      0.00
    8   12    3      4.53      0.00
  -20   13    3     -0.93      0.00
  -19   13    3     -3.13      0.00
  -18   13    3     -3.03      0.00
  -17   13    3      1.50      0.00
  -16   13    3      1.11      0.00
  -15   13    3     -1.79      0.00
  -14   13    3     -0.35      0.00
  -13   13    3      1.82      0.00
  -12   13    3      5.56      0.00
  -11   13    3      4.92      0.00
  -10   13    3     -4.01      0.00
   -9   13    3     -2.26      0.00
   -8   13    3      0.20      0.00
   -7   13    3      1.15      0.00
   -6   13    3      3.50      0.00
   -5   13    3     -4.21      0.00
   -4   13    3     -0.99      0.00
   -3   13    3      4.09      0.00
   -2   13    3     -1.47      0.00
   -1   13    3      2.49      0.00
    0   13    3      3.68      0.00
    1   13    3     -2.01      0.00
    2   13    3     -3.72      0.00
    3   13    3      2.61      0.00
    4   13    3     -2.13      0.00
    5   13    3     -3.98      0.00
    6   13    3      3.47      0.00
    7   13    3      1.38      0.00
  -20   14    3      1.54      0.00
  -19   14    3     -1.67      0.00
  -18   14    3      1.19      0.00
  -17   14    3      0.82      0.00
  -16   14    3      0.62      0.00
  -15   14    3     -0.55      0.00
  -14   14    3     -4.93      0.00
  -13   14    3     -0.45      0.00
  -12   14    3     -1.81      0.00
  -11   14    3     -2.27      0.00
  -10   14    3      5.35      0.00
   -9   14    3     -1.29      0.00
   -8   14    3     -0.17      0.00
   -7   14    3      2.96      0.00
   -6   14    3     -4.92      0.00
   -5   14    3      2.48      0.00
   -4   14    3     -0.42      0.00
   -3   14    3     -3.72      0.00
   -2   14    3      3.71      0.00
   -1   14    3     -2.28      0.00
    0   14    3     -1.42      0.00
    1   14    3      1.53      0.00
    2   14    3      2.08      0.00
    3   14    3     -3.60      0.00
    4   14    3      1.52      0.00
    5   14    3      2.99      0.00
    6   14    3     -3.15      0.00
  -20   15    3      2.53      0.00
  -19   15    3      2.13      0.00
  -18   15    3     -2.80      0.00
  -17   15    3     -3.19      0.00
  -16   15    3     -0.20      0.00
  -15   15    3      3.06      0.00
  -14   15    3      4.82      0.00
  -13   15    3     -1.04      0.00
  -12   15    3     -1.58      0.00
  -11   15    3     -0.45      0.00
  -10   15    3     -2.16      0.00
   -9   15    3      3.65      0.00
   -8   15    3      0.41      0.00
   -7   15    3     -3.10      0.00
   -6   15    3      5.18      0.00
   -5   15    3     -0.45      0.00
   -4   15    3     -1.39      0.00
   -3   15    3      2.90      0.00
   -2   15    3     -1.13      0.00
   -1   15    3     -0.21      0.00
    0   15    3     -1.14      0.00
    1   15    3      0.19      0.00
    2   15    3      1.80      0.00
    3   15    3      2.46      0.00
    4   15    3     -1.57      0.00
    5   15    3     -0.58      0.00
  -20   16    3     -2.19      0.00
  -19   16    3      2.23      0.00
  -18   16    3      1.76      0.00
  -17   16    3      2.45      0.00
  -16   16    3      1.30      0.00
  -15   16    3      0.43      0.00
  -14   16    3     -4.16      0.00
  -13   16    3     -0.58      0.00
  -12   16    3     -0.14      0.00
  -11   16    3     -0.41      0.00
  -10   16    3     -0.01      0.00
   -9   16    3     -2.90      0.00
   -8   16    3      0.59      0.00
   -7   16    3     -0.44      0.00
   -6   16    3     -4.37      0.00
   -5   16    3      1.64      0.00
   -4   16    3      0.77      0.00
   -3   16    3     -0.32      0.00
   -2   16    3      2.51      0.00
   -1   16    3     -3.18      0.00
    0   16    3     -1.39      0.00
    1   16    3      0.80      0.00
    2   16    3     -0.26      0.00
    3   16    3      0.25      0.00
  -19   17    3     -3.27      0.00
  -18   17    3      0.20      0.00
  -17   17    3     -0.99      0.00
  -16   17    3     -0.85      0.00
  -15   17    3     -0.22      0.00
  -14   17    3      3.78      0.00
  -13   17    3     -0.42      0.00
  -12   17    3      2.36      0.00
  -11   17    3      2.62      0.00
  -10   17    3     -0.13      0.00
   -9   17    3      1.27      0.00
   -8   17    3     -0.40      0.00
   -7   17    3      2.10      0.00
   -6   17    3      0.66      0.00
   -5   17    3     -2.60      0.00
   -4   17    3     -0.24      0.00
   -3   17    3     -2.27      0.00
   -2   17    3      1.25      0.00
   -1   17    3      5.93      0.00
    0   17    3      0.19      0.00
    1   17    3     -3.50      0.00
    2   17    3     -2.83      0.00
  -19   18    3      2.76      0.00
  -18   18    3     -0.95      0.00
  -17   18    3     -2.71      0.00
  -16   18    3     -3.59      0.00
  -15   18    3      2.81      0.00
  -14   18    3     -0.51      0.00
  -13   18    3     -2.25      0.00
  -12   18    3     -1.15      0.00
  -11   18    3     -1.32      0.00
  -10   18    3      0.33      0.00
   -9   18    3      0.34      0.00
   -8   18    3      0.24      0.00
   -7   18    3     -0.98      0.00
   -6   18    3      2.20      0.00
   -5   18    3      1.92      0.00
   -4   18    3     -0.71      0.00
   -3   18    3     -1.46      0.00
   -2   18    3     -1.94      0.00
   -1   18    3      1.59      0.00
    0   18    3      1.56      0.00
    1   18    3      0.63      0.00
  -18   19    3      2.67      0.00
  -17   19    3      1.83      0.00
  -16   19    3      2.04      0.00
  -15   19    3     -4.79      0.00
  -14   19    3      3.38      0.00
  -13   19    3      2.94      0.00
  -12   19    3     -4.23      0.00
  -11   19    3      2.40      0.00
  -10   19    3     -0.59      0.00
   -9   19    3     -3.04      0.00
   -8   19    3     -0.66      0.00
   -7   19    3     -0.31      0.00
   -6   19    3     -2.31      0.00
   -5   19    3      0.32      0.00
   -4   19    3      3.13      0.00
   -3   19    3      0.99      0.00
   -2   19    3     -3.68      0.00
   -1   19    3     -3.66      0.00
  -17   20    3      2.53      0.00
  -16   20    3     -4.24      0.00
  -15   20    3     -0.99      0.00
  -14   20    3     -0.19      0.00
  -13   20    3      0.97      0.00
  -12   20    3      3.07      0.00
  -11   20    3     -2.26      0.00
  -10   20    3      3.04      0.00
   -9   20    3      0.33      0.00
   -8   20    3      0.53      0.00
   -7   20    3      4.14      0.00
   -6   20    3      0.67      0.00
   -5   20    3     -1.71      0.00
   -4   20    3     -1.47      0.00
   -3   20    3      1.16      0.00
  -16   21    3      5.13      0.00
  -15   21    3     -0.29      0.00
  -14   21    3     -2.82      0.00
  -13   21    3      2.02      0.00
  -12   21    3     -1.95      0.00
  -11   21    3     -1.76      0.00
  -10   21    3     -1.89      0.00
   -9   21    3      2.63      0.00
   -8   21    3     -2.57      0.00
   -7   21    3     -5.62      0.00
   -6   21    3      2.20      0.00
   -5   21    3      1.06      0.00
  -13   22    3     -1.14      0.00
  -12   22    3      1.30      0.00
  -11   22    3      1.62      0.00
  -10   22    3      1.15      0.00
   -9   22    3     -1.72      0.00
    6  -22    4      5.01      0.00
    7  -22    4     -0.68      0.00
    8  -22    4     -1.31      0.00
    9  -22    4      1.79      0.00
   10  -22    4      1.82      0.00
   11  -22    4     -1.35      0.00
   12  -22    4     -2.82      0.00
    3  -21    4     -1.56      0.00
    4  -21    4     -2.60      0.00
    5  -21    4      2.42      0.00
    6  -21    4     -1.91      0.00
    7  -21    4      2.37      0.00
    8  -21    4     -0.82      0.00
    9  -21    4     -2.09      0.00
   10  -21    4      0.61      0.00
   11  -21    4      4.17      0.00
   12  -21    4      1.80      0.00
   13  -21    4     -0.22      0.00
   14  -21    4     -3.37      0.00
    0  -20    4     -1.60      0.00
    1  -20    4     -3.41      0.00
    2  -20    4      2.27      0.00
    3  -20    4      4.65      0.00
    4  -20    4      0.74      0.00
    5  -20    4     -3.24      0.00
    6  -20    4     -0.23      0.00
    7  -20    4     -3.31      0.00
    8  -20    4      2.33      0.00
    9  -20    4     -1.32      0.00
   10  -20    4     -0.59      0.00
   11  -20    4     -2.56      0.00
   12  -20    4      1.42      0.00
   13  -20    4      1.31      0.00
   14  -20    4      4.44      0.00
   15  -20    4      6.73      0.00
   -1  -19    4      0.04      0.00
    0  -19    4      0.78      0.00
    1  -19    4      0.10      0.00
    2  -19    4     -0.63      0.00
    3  -19    4     -0.89      0.00
    4  -19    4     -1.70      0.00
    5  -19    4      0.50      0.00
    6  -19    4     -0.14      0.00
    7  -19    4      4.09      0.00
    8  -19    4     -0.36      0.00
    9  -19    4      3.00      0.00
   10  -19    4     -2.33      0.00
   11  -19    4     -1.12      0.00
   12  -19    4     -3.26      0.00
   13  -19    4     -3.25      0.00
   14  -19    4     -3.36      0.00
   15  -19    4     -2.33      0.00
   16  -19    4      0.25      0.00
   -3  -18    4     -5.29      0.00
   -2  -18    4     -3.03      0.00
   -1  -18    4      2.65      0.00
    0  -18    4      2.44      0.00
    1  -18    4      0.58      0.00
    2  -18    4     -3.56      0.00
    3  -18    4      1.26      0.00
    4  -18    4      4.15      0.00
    5  -18    4     -4.59      0.00
    6  -18    4     -1.00      0.00
    7  -18    4     -0.89      0.00
    8  -18    4      0.39      0.00
    9  -18    4     -1.41      0.00
   10  -18    4      5.01      0.00
   11  -18    4      3.29      0.00
   12  -18    4      0.30      0.00
   13  -18    4      3.45      0.00
   14  -18    4      1.81      0.00
   15  -18    4     -0.71      0.00
   16  -18    4      0.63      0.00
   17  -18    4      3.98      0.00
   -4  -17    4     -2.52      0.00
   -3  -17    4      5.55      0.00
   -2  -17    4      0.29      0.00
   -1  -17    4     -4.65      0.00
    0  -17    4     -0.18      0.00
    1  -17    4      1.00      0.00
    2  -17    4      0.91      0.00
    3  -17    4     -2.73      0.00
    4  -17    4      0.78      0.00
    5  -17    4      8.77      0.00
    6  -17    4     -1.44      0.00
    7  -17    4     -1.32      0.00
    8  -17    4     -0.25      0.00
    9  -17    4     -2.42      0.00
   10  -17    4     -6.50      0.00
   11  -17    4     -2.63      0.00
   12  -17    4      2.15      0.00
   13  -17    4     -2.06      0.00
   14  -17    4      0.13      0.00
   15  -17    4      0.42      0.00
   16  -17    4      0.31      0.00
   17  -17    4     -2.11      0.00
   -6  -16    4      2.37      0.00
   -5  -16    4      4.30      0.00
   -4  -16    4      0.11      0.00
   -3  -16    4     -3.11      0.00
   -2  -16    4      1.93      0.00
   -1  -16    4      0.86      0.00
    0  -16    4     -1.11      0.00
    1  -16    4      0.69      0.00
    2  -16    4     -1.48      0.00
    3  -16    4      0.17      0.00
    4  -16    4     -4.46      0.00
    5  -16    4     -4.71      0.00
    6  -16    4      6.67      0.00
    7  -16    4     -0.12      0.00
    8  -16    4      0.42      0.00
    9  -16    4      3.69      0.00
   10  -16    4      3.11      0.00
   11  -16    4      3.14      0.00
   12  -16    4     -0.62      0.00
   13  -16    4     -1.60      0.00
   14  -16    4     -2.16      0.00
   15  -16    4      2.29      0.00
   16  -16    4     -2.30      0.00
   17  -16    4      0.00      0.00
   18  -16    4     -0.96      0.00
   -7  -15    4     -3.66      0.00
   -6  -15    4     -4.66      0.00
   -5  -15    4     -1.02      0.00
   -4  -15    4      1.29      0.00
   -3  -15    4     -0.05      0.00
   -2  -15    4     -1.24      0.00
   -1  -15    4      4.83      0.00
    0  -15    4     -0.94      0.00
    1  -15    4     -0.24      0.00
    2  -15    4      3.73      0.00
    3  -15    4     -2.48      0.00
    4  -15    4      1.09      0.00
    5  -15    4     -0.25      0.00
    6  -15    4     -8.17      0.00
    7  -15    4      3.15      0.00
    8  -15    4     -0.20      0.00
    9  -15    4     -3.40      0.00
   10  -15    4      0.41      0.00
   11  -15    4     -0.32      0.00
   12  -15    4      0.10      0.00
   13  -15    4      1.09      0.00
   14  -15    4      2.90      0.00
   15  -15    4     -3.93      0.00
   16  -15    4      2.31      0.00
   17  -15    4      0.49      0.00
   18  -15    4      0.66      0.00
   -8  -14    4     -4.25      0.00
   -7  -14    4      5.17      0.00
   -6  -14    4      3.20      0.00
   -5  -14    4     -2.54      0.00
   -4  -14    4      0.18      0.00
   -3  -14    4      0.97      0.00
   -2  -14    4     -1.00      0.00
   -1  -14    4     -4.85      0.00
    0  -14    4      0.41      0.00
    1  -14    4     -1.85      0.00
    2  -14    4      0.90      0.00
    3  -14    4      6.94      0.00
    4  -14    4      4.77      0.00
    5  -14    4      0.41      0.00
    6  -14    4      1.09      0.00
    7  -14    4     -5.44      0.00
    8  -14    4      3.18      0.00
    9  -14    4      2.91      0.00
   10  -14    4     -3.32      0.00
   11  -14    4     -2.66      0.00
   12  -14    4      1.76      0.00
   13  -14    4      0.83      0.00
   14  -14    4     -3.59      0.00
   15  -14    4      3.89      0.00
   16  -14    4     -1.37      0.00
   17  -14    4     -2.15      0.00
   18  -14    4     -0.43      0.00
   -9  -13    4     -0.08      0.00
   -8  -13    4      3.95      0.00
   -7  -13    4     -2.99      0.00
   -6  -13    4     -0.83      0.00
   -5  -13    4      2.64      0.00
   -4  -13    4     -0.91      0.00
   -3  -13    4      0.34      0.00
   -2  -13    4      0.85      0.00
   -1  -13    4      4.24      0.00
    0  -13    4      0.06      0.00
    1  -13    4     -1.86      0.00
    2  -13    4     -6.74      0.00
    3  -13    4     -3.16      0.00
    4  -13    4     -3.88      0.00
    5  -13    4      2.87      0.00
    6  -13    4      1.59      0.00
    7  -13    4      0.23      0.00
    8  -13    4     -5.73      0.00
    9  -13    4      1.67      0.00
   10  -13    4      3.25      0.00
   11  -13    4      1.10      0.00
   12  -13    4     -0.87      0.00
   13  -13    4     -1.42      0.00
   14  -13    4      0.85      0.00
   15  -13    4     -1.19      0.00
   16  -13    4      2.32      0.00
   17  -13    4      1.86      0.00
   18  -13    4     -1.40      0.00
  -10  -12    4      0.61      0.00
   -9  -12    4      4.11      0.00
   -8  -12    4     -3.82      0.00
   -7  -12    4     -1.62      0.00
   -6  -12    4      1.07      0.00
   -5  -12    4      0.53      0.00
   -4  -12    4     -2.16      0.00
   -3  -12    4     -1.55      0.00
   -2  -12    4      0.27      0.00
   -1  -12    4     -4.98      0.00
    0  -12    4      2.91      0.00
    1  -12    4      4.56      0.00
    2  -12    4      5.71      0.00
    3  -12    4     -5.79      0.00
    4  -12    4      4.48      0.00
    5  -12    4     -0.67      0.00
    6  -12    4      1.96      0.00
    7  -12    4      3.63      0.00
    8  -12    4      3.87      0.00
    9  -12    4     -5.01      0.00
   10  -12    4     -1.05      0.00
   11  -12    4      0.34      0.00
   12  -12    4      0.25      0.00
   13  -12    4      1.52      0.00
   14  -12    4      0.86      0.00
   15  -12    4     -0.44      0.00
   16  -12    4     -2.87      0.00
   17  -12    4      0.14      0.00
   18  -12    4      1.51      0.00
  -11  -11    4      2.45      0.00
  -10  -11    4     -0.59      0.00
   -9  -11    4     -4.47      0.00
   -8  -11    4      4.16      0.00
   -7  -11    4      2.23      0.00
   -6  -11    4     -1.58      0.00
   -5  -11    4     -0.20      0.00
   -4  -11    4      4.68      0.00
   -3  -11    4      3.13      0.00
   -2  -11    4     -3.84      0.00
   -1  -11    4      1.49      0.00
    0  -11    4      0.22      0.00
    1  -11    4      1.83      0.00
    2  -11    4     -5.18      0.00
    3  -11    4      3.47      0.00
    4  -11    4    -11.67      0.00
    5  -11    4     -0.07      0.00
    6  -11    4      0.03      0.00
    7  -11    4     -1.12      0.00
    8  -11    4      0.37      0.00
    9  -11    4      4.19      0.00
   10  -11    4     -4.27      0.00
   11  -11    4     -2.02      0.00
   12  -11    4     -0.08      0.00
   13  -11    4      1.40      0.00
   14  -11    4     -0.26      0.00
   15  -11    4      0.37      0.00
   16  -11    4      1.49      0.00
   17  -11    4     -1.63      0.00
   18  -11    4     -0.48      0.00
  -12  -10    4      2.82      0.00
  -11  -10    4      0.88      0.00
  -10  -10    4     -3.49      0.00
   -9  -10    4      3.39      0.00
   -8  -10    4      0.68      0.00
   -7  -10    4     -3.69      0.00
   -6  -10    4     -1.79      0.00
   -5  -10    4      0.81      0.00
   -4  -10    4     -3.83      0.00
   -3  -10    4     -4.65      0.00
   -2  -10    4      6.27      0.00
   -1  -10    4     -1.38      0.00
    0  -10    4      0.30      0.00
    1  -10    4     -4.36      0.00
    2  -10    4      7.65      0.00
    3  -10    4      0.53      0.00
    4  -10    4     10.52      0.00
    5  -10    4     -3.04      0.00
    6  -10    4     -2.91      0.00
    7  -10    4     -2.87      0.00
    8  -10    4     -1.32      0.00
    9  -10    4      0.28      0.00
   10  -10    4      5.88      0.00
   11  -10    4      1.48      0.00
   12  -10    4      0.08      0.00
   13  -10    4     -3.82      0.00
   14  -10    4     -0.21      0.00
   15  -10    4      0.65      0.00
   16  -10    4      0.69      0.00
   17  -10    4      1.75      0.00
   18  -10    4      1.13      0.00
  -13   -9    4      0.13      0.00
  -12   -9    4     -2.91      0.00
  -11   -9    4     -1.20      0.00
  -10   -9    4      4.22      0.00
   -9   -9    4     -4.42      0.00
   -8   -9    4      0.30      0.00
   -7   -9    4      5.00      0.00
   -6   -9    4      1.37      0.00
   -5   -9    4     -1.39      0.00
   -4   -9    4      0.94      0.00
   -3   -9    4      2.06      0.00
   -2   -9    4     -1.48      0.00
   -1   -9    4      1.80      0.00
    0   -9    4    -12.33      0.00
    1   -9    4      7.39      0.00
    2   -9    4     -4.53      0.00
    3   -9    4     -0.01      0.00
    4   -9    4     -6.22      0.00
    5   -9    4      9.17      0.00
    6   -9    4      2.73      0.00
    7   -9    4      1.82      0.00
    8   -9    4     -1.79      0.00
    9   -9    4     -2.12      0.00
   10   -9    4     -2.32      0.00
   11   -9    4     -0.94      0.00
   12   -9    4     -0.73      0.00
   13   -9    4      2.96      0.00
   14   -9    4      0.25      0.00
   15   -9    4     -0.68      0.00
   16   -9    4     -0.46      0.00
   17   -9    4     -4.51      0.00
   18   -9    4     -0.64      0.00
  -13   -8    4      0.66      0.00
  -12   -8    4      1.39      0.00
  -11   -8    4      2.23      0.00
  -10   -8    4     -1.34      0.00
   -9   -8    4     -0.87      0.00
   -8   -8    4     -4.09      0.00
   -7   -8    4      2.47      0.00
   -6   -8    4     -0.26      0.00
   -5   -8    4     -2.48      0.00
   -4   -8    4      5.65      0.00
   -3   -8    4      4.05      0.00
   -2   -8    4     -2.25      0.00
   -1   -8    4     -5.99      0.00
    0   -8    4     19.53      0.00
    1   -8    4     -8.90      0.00
    2   -8    4      0.82      0.00
    3   -8    4     -3.06      0.00
    4   -8    4      4.60      0.00
    5   -8    4    -11.51      0.00
    6   -8    4      0.26      0.00
    7   -8    4     -0.27      0.00
    8   -8    4      3.42      0.00
    9   -8    4      3.24      0.00
   10   -8    4      0.53      0.00
   11   -8    4     -0.75      0.00
   12   -8    4      1.61      0.00
   13   -8    4     -0.93      0.00
   14   -8    4     -3.85      0.00
   15   -8    4      0.65      0.00
   16   -8    4      1.22      0.00
   17   -8    4      3.87      0.00
   18   -8    4     -1.54      0.00
  -14   -7    4     -1.70      0.00
  -13   -7    4     -5.59      0.00
  -12   -7    4      2.79      0.00
  -11   -7    4      0.81      0.00
  -10   -7    4     -0.44      0.00
   -9   -7    4      1.94      0.00
   -8   -7    4      3.48      0.00
   -7   -7    4     -6.49      0.00
   -6   -7    4     -5.63      0.00
   -5   -7    4      4.55      0.00
   -4   -7    4     -5.87      0.00
   -3   -7    4     -7.82      0.00
   -2   -7    4      5.74      0.00
   -1   -7    4     14.08      0.00
    0   -7    4    -30.86      0.00
    1   -7    4      5.73      0.00
    2   -7    4      6.29      0.00
    3   -7    4      8.89      0.00
    4   -7    4     -8.18      0.00
    5   -7    4      5.19      0.00
    6   -7    4      0.08      0.00
    7   -7    4     -1.47      0.00
    8   -7    4     -4.75      0.00
    9   -7    4     -0.06      0.00
   10   -7    4      2.39      0.00
   11   -7    4     -0.35      0.00
   12   -7    4     -1.85      0.00
   13   -7    4      1.24      0.00
   14   -7    4      4.71      0.00
   15   -7    4      0.08      0.00
   16   -7    4     -1.67      0.00
   17   -7    4     -2.34      0.00
   18   -7    4     -1.41      0.00
  -15   -6    4      0.96      0.00
  -14   -6    4      1.73      0.00
  -13   -6    4      4.63      0.00
  -12   -6    4     -7.62      0.00
  -11   -6    4     -0.96      0.00
  -10   -6    4      3.97      0.00
   -9   -6    4      2.36      0.00
   -8   -6    4     -3.53      0.00
   -7   -6    4      3.19      0.00
   -6   -6    4     15.96      0.00
   -5   -6    4     -6.95      0.00
   -4   -6    4     -2.26      0.00
   -3   -6    4      4.38      0.00
   -2   -6    4      0.64      0.00
   -1   -6    4    -11.17      0.00
    0   -6    4     25.62      0.00
    1   -6    4     -2.66      0.00
    2   -6    4      0.05      0.00
    3   -6    4    -15.47      0.00
    4   -6    4      7.36      0.00
    5   -6    4      1.62      0.00
    6   -6    4      0.63      0.00
    7   -6    4      0.64      0.00
    8   -6    4      2.30      0.00
    9   -6    4     -2.57      0.00
   10   -6    4     -2.38      0.00
   11   -6    4      3.60      0.00
   12   -6    4      0.77      0.00
   13   -6    4     -2.09      0.00
   14   -6    4     -2.55      0.00
   15   -6    4     -0.57      0.00
   16   -6    4      6.00      0.00
   17   -6    4      3.45      0.00
   18   -6    4      0.64      0.00
  -15   -5    4     -3.35      0.00
  -14   -5    4      1.54      0.00
  -13   -5    4      0.13      0.00
  -12   -5    4      0.83      0.00
  -11   -5    4     -1.91      0.00
  -10   -5    4     -2.68      0.00
   -9   -5    4     -4.72      0.00
   -8   -5    4      0.35      0.00
   -7   -5    4      2.76      0.00
   -6   -5    4    -13.59      0.00
   -5   -5    4      4.99      0.00
   -4   -5    4      5.46      0.00
   -3   -5    4      5.19      0.00
   -2   -5    4    -19.25      0.00
   -1   -5    4     10.71      0.00
    0   -5    4     -4.01      0.00
    1   -5    4     -6.53      0.00
    2   -5    4    -10.25      0.00
    3   -5    4     24.75      0.00
    4   -5    4     -4.72      0.00
    5   -5    4     -7.88      0.00
    6   -5    4     -0.39      0.00
    7   -5    4      5.18      0.00
    8   -5    4     -3.91      0.00
    9   -5    4     -4.17      0.00
   10   -5    4      2.30      0.00
   11   -5    4     -1.40      0.00
   12   -5    4     -0.95      0.00
   13   -5    4      1.06      0.00
   14   -5    4     -1.10      0.00
   15   -5    4     -3.09      0.00
   16   -5    4     -5.25      0.00
   17   -5    4     -1.12      0.00
  -16   -4    4     -0.37      0.00
  -15   -4    4      2.23      0.00
  -14   -4    4     -2.54      0.00
  -13   -4    4      1.55      0.00
  -12   -4    4      3.79      0.00
  -11   -4    4      1.63      0.00
  -10   -4    4     -0.95      0.00
   -9   -4    4      5.36      0.00
   -8   -4    4      6.51      0.00
   -7   -4    4    -10.88      0.00
   -6   -4    4      4.76      0.00
   -5   -4    4      6.25      0.00
   -4   -4    4     -5.44      0.00
   -3   -4    4    -17.16      0.00
   -2   -4    4     31.13      0.00
   -1   -4    4    -13.51      0.00
    0   -4    4    -11.78      0.00
    1   -4    4     -0.09      0.00
    2   -4    4     22.90      0.00
    3   -4    4    -22.54      0.00
    4   -4    4     -4.05      0.00
    5   -4    4      9.41      0.00
    6   -4    4      5.37      0.00
    7   -4    4     -2.90      0.00
    8   -4    4      5.25      0.00
    9   -4    4      7.20      0.00
   10   -4    4     -6.12      0.00
   11   -4    4     -0.51      0.00
   12   -4    4      3.41      0.00
   13   -4    4      2.67      0.00
   14   -4    4      2.00      0.00
   15   -4    4      2.86      0.00
   16   -4    4      0.96      0.00
   17   -4    4     -0.38      0.00
  -17   -3    4      2.37      0.00
  -16   -3    4      0.81      0.00
  -15   -3    4     -0.53      0.00
  -14   -3    4      1.71      0.00
  -13   -3    4     -2.64      0.00
  -12   -3    4     -3.05      0.00
  -11   -3    4     -3.71      0.00
  -10   -3    4      3.24      0.00
   -9   -3    4     -4.50      0.00
   -8   -3    4     -9.14      0.00
   -7   -3    4     16.10      0.00
   -6   -3    4     -3.53      0.00
   -5   -3    4     -9.34      0.00
   -4   -3    4     -3.53      0.00
   -3   -3    4     21.17      0.00
   -2   -3    4    -22.49      0.00
   -1   -3    4     27.76      0.00
    0   -3    4     17.48      0.00
    1   -3    4     -4.87      0.00
    2   -3    4    -30.48      0.00
    3   -3    4     23.84      0.00
    4   -3    4      6.51      0.00
    5   -3    4    -12.77      0.00
    6   -3    4    -11.75      0.00
    7   -3    4      2.62      0.00
    8   -3    4      2.17      0.00
    9   -3    4     -6.08      0.00
   10   -3    4      4.33      0.00
   11   -3    4     -3.47      0.00
   12   -3    4     -1.07      0.00
   13   -3    4     -2.47      0.00
   14   -3    4     -0.77      0.00
   15   -3    4     -1.40      0.00
   16   -3    4     -0.29      0.00
   17   -3    4      1.83      0.00
  -17   -2    4     -1.19      0.00
  -16   -2    4     -1.49      0.00
  -15   -2    4     -0.09      0.00
  -14   -2    4     -1.59      0.00
  -13   -2    4      3.29      0.00
  -12   -2    4      1.59      0.00
  -11   -2    4      5.60      0.00
  -10   -2    4     -1.26      0.00
   -9   -2    4     -0.81      0.00
   -8   -2    4      6.54      0.00
   -7   -2    4    -10.56      0.00
   -6   -2    4      4.17      0.00
   -5   -2    4      5.14      0.00
   -4   -2    4     15.15      0.00
   -3   -2    4    -32.85      0.00
   -2   -2    4     14.90      0.00
   -1   -2    4    -29.97      0.00
    0   -2    4     -6.63      0.00
    1   -2    4      3.23      0.00
    2   -2    4      6.83      0.00
    3   -2    4     -3.88      0.00
    4   -2    4     11.85      0.00
    5   -2    4      2.07      0.00
    6   -2    4      3.63      0.00
    7   -2    4     -4.53      0.00
    8   -2    4     -4.74      0.00
    9   -2    4      8.49      0.00
   10   -2    4     -0.24      0.00
   11   -2    4      3.67      0.00
   12   -2    4     -2.61      0.00
   13   -2    4      1.44      0.00
   14   -2    4     -0.46      0.00
   15   -2    4      0.31      0.00
   16   -2    4      1.60      0.00
  -18   -1    4      1.16      0.00
  -17   -1    4      0.09      0.00
  -16   -1    4     -1.03      0.00
  -15   -1    4     -1.24      0.00
  -14   -1    4      1.66      0.00
  -13   -1    4     -1.42      0.00
  -12   -1    4      0.40      0.00
  -11   -1    4     -5.13      0.00
  -10   -1    4     -1.44      0.00
   -9   -1    4      4.52      0.00
   -8   -1    4     -6.30      0.00
   -6   -1    4     -8.92      0.00
   -5   -1    4      7.27      0.00
   -4   -1    4      3.12      0.00
   -3   -1    4     16.76      0.00
   -2   -1    4    -39.64      0.00
   -1   -1    4     41.44      0.00
    0   -1    4     11.73      0.00
    1   -1    4      2.92      0.00
    2   -1    4     -6.83      0.00
    3   -1    4    -18.55      0.00
    4   -1    4     -9.26      0.00
    5   -1    4     14.10      0.00
    6   -1    4      2.33      0.00
    7   -1    4     -2.96      0.00
    8   -1    4      1.54      0.00
    9   -1    4     -6.39      0.00
   10   -1    4      1.62      0.00
   11   -1    4     -3.71      0.00
   12   -1    4      2.19      0.00
   13   -1    4      0.53      0.00
   14   -1    4      0.55      0.00
   15   -1    4     -1.43      0.00
   16   -1    4     -0.02      0.00
  -18    0    4     -2.74      0.00
  -17    0    4      2.67      0.00
  -16    0    4      2.95      0.00
  -15    0    4     -2.71      0.00
  -14    0    4     -1.93      0.00
  -13    0    4      2.61      0.00
  -12    0    4     -0.70      0.00
  -11    0    4     -0.66      0.00
  -10    0    4      5.57      0.00
   -9    0    4      3.39      0.00
   -7    0    4     -4.84      0.00
   -6    0    4      8.64      0.00
   -5    0    4    -20.18      0.00
   -4    0    4     -1.99      0.00
   -3    0    4     19.40      0.00
   -2    0    4     28.00      0.00
   -1    0    4    -63.97      0.00
    0    0    4      6.55      0.00
    1    0    4     16.64      0.00
    2    0    4      9.64      0.00
    3    0    4      2.92      0.00
    4    0    4     -2.88      0.00
    5    0    4    -10.65      0.00
    6    0    4      0.10      0.00
    7    0    4      7.28      0.00
    8    0    4     -2.08      0.00
    9    0    4      4.61      0.00
   10    0    4     -1.97      0.00
   11    0    4      3.88      0.00
   12    0    4     -3.35      0.00
   13    0    4      0.69      0.00
   14    0    4      0.60      0.00
   15    0    4     -2.52      0.00
   16    0    4     -2.30      0.00
  -18    1    4      1.10      0.00
  -17    1    4     -2.40      0.00
  -16    1    4      1.28      0.00
  -15    1    4      2.73      0.00
  -14    1    4     -1.48      0.00
  -13    1    4     -2.15      0.00
  -12    1    4      3.63      0.00
  -11    1    4     -0.13      0.00
  -10    1    4     -9.28      0.00
   -9    1    4     -7.72      0.00
   -8    1    4      0.40      0.00
   -7    1    4     15.66      0.00
   -6    1    4     -5.11      0.00
   -5    1    4     -1.20      0.00
   -3    1    4      9.38      0.00
   -2    1    4    -21.25      0.00
   -1    1    4     25.24      0.00
    0    1    4    -15.48      0.00
    1    1    4     -6.18      0.00
    2    1    4     -2.22      0.00
    3    1    4      4.65      0.00
    4    1    4      7.82      0.00
    5    1    4     -2.58      0.00
    6    1    4     -0.97      0.00
    7    1    4     -0.34      0.00
    8    1    4      1.03      0.00
    9    1    4     -8.28      0.00
   10    1    4      3.07      0.00
   11    1    4     -2.32      0.00
   12    1    4      2.63      0.00
   13    1    4     -0.15      0.00
   14    1    4      2.88      0.00
   15    1    4      2.25      0.00
  -19    2    4     -4.17      0.00
  -18    2    4     -0.98      0.00
  -17    2    4      0.17      0.00
  -16    2    4      0.07      0.00
  -15    2    4      2.13      0.00
  -14    2    4      0.01      0.00
  -13    2    4     -2.29      0.00
  -12    2    4     -0.76      0.00
  -11    2    4      5.60      0.00
  -10    2    4     -0.38      0.00
   -9    2    4      2.40      0.00
   -8    2    4      6.99      0.00
   -7    2    4    -15.14      0.00
   -6    2    4      8.38      0.00
   -5    2    4     10.32      0.00
   -4    2    4     -7.45      0.00
   -3    2    4    -33.48      0.00
   -2    2    4     44.76      0.00
   -1    2    4     10.10      0.00
    0    2    4    -13.80      0.00
    1    2    4    -11.29      0.00
    2    2    4     10.39      0.00
    3    2    4      1.50      0.00
    4    2    4    -13.74      0.00
    5    2    4     12.08      0.00
    6    2    4      1.71      0.00
    7    2    4     -4.80      0.00
    8    2    4     -1.33      0.00
    9    2    4      9.09      0.00
   10    2    4     -2.13      0.00
   11    2    4     -0.07      0.00
   12    2    4     -3.57      0.00
   13    2    4     -0.93      0.00
   14    2    4     -0.88      0.00
   15    2    4      2.82      0.00
  -19    3    4      3.61      0.00
  -18    3    4      1.11      0.00
  -17    3    4     -0.07      0.00
  -16    3    4     -1.62      0.00
  -15    3    4      0.07      0.00
  -14    3    4      0.66      0.00
  -13    3    4      0.89      0.00
  -12    3    4     -2.46      0.00
  -11    3    4     -2.42      0.00
  -10    3    4     10.25      0.00
   -9    3    4      1.19      0.00
   -8    3    4    -18.04      0.00
   -7    3    4      8.51      0.00
   -6    3    4      1.29      0.00
   -5    3    4     -2.12      0.00
   -4    3    4     -9.58      0.00
   -3    3    4     36.80      0.00
   -2    3    4    -21.22      0.00
   -1    3    4    -25.66      0.00
    0    3    4     17.57      0.00
    1    3    4     16.49      0.00
    2    3    4    -13.27      0.00
    3    3    4     -7.86      0.00
    4    3    4     16.40      0.00
    5    3    4    -11.75      0.00
    6    3    4     -5.36      0.00
    7    3    4      4.00      0.00
    8    3    4      4.93      0.00
    9    3    4     -7.87      0.00
   10    3    4      0.57      0.00
   11    3    4      2.70      0.00
   12    3    4      2.96      0.00
   13    3    4     -1.14      0.00
   14    3    4     -0.33      0.00
  -20    4    4     -4.32      0.00
  -19    4    4     -1.45      0.00
  -18    4    4     -1.69      0.00
  -17    4    4     -1.09      0.00
  -16    4    4      0.53      0.00
  -15    4    4     -1.88      0.00
  -14    4    4      1.06      0.00
  -13    4    4     -1.61      0.00
  -12    4    4      1.31      0.00
  -11    4    4     -0.02      0.00
  -10    4    4     -8.60      0.00
   -9    4    4     -3.07      0.00
   -8    4    4     17.07      0.00
   -7    4    4     -6.78      0.00
   -6    4    4     -9.32      0.00
   -5    4    4      5.33      0.00
   -4    4    4     19.88      0.00
   -3    4    4    -39.49      0.00
   -2    4    4      4.60      0.00
   -1    4    4     30.18      0.00
    0    4    4     -9.10      0.00
    1    4    4    -16.88      0.00
    2    4    4      6.12      0.00
    3    4    4     11.26      0.00
    4    4    4    -10.92      0.00
    5    4    4      5.75      0.00
    6    4    4      4.65      0.00
    7    4    4      3.29      0.00
    8    4    4     -6.55      0.00
    9    4    4      3.25      0.00
   10    4    4     -0.56      0.00
   11    4    4     -0.73      0.00
   12    4    4     -4.21      0.00
   13    4    4     -2.19      0.00
  -20    5    4      5.82      0.00
  -19    5    4      2.05      0.00
  -18    5    4      2.56      0.00
  -17    5    4      0.90      0.00
  -16    5    4     -2.38      0.00
  -15    5    4      3.57      0.00
  -14    5    4      0.81      0.00
  -13    5    4      1.96      0.00
  -12    5    4     -0.78      0.00
  -11    5    4     -0.67      0.00
  -10    5    4      2.86      0.00
   -9    5    4      7.07      0.00
   -8    5    4     -9.63      0.00
   -7    5    4     -0.35      0.00
   -6    5    4      6.89      0.00
   -5    5    4      3.40      0.00
   -4    5    4    -15.93      0.00
   -3    5    4     12.96      0.00
   -2    5    4     -0.66      0.00
   -1    5    4     -7.86      0.00
    0    5    4     -2.31      0.00
    1    5    4      8.36      0.00
    2    5    4      4.81      0.00
    3    5    4     -9.75      0.00
    4    5    4      1.02      0.00
    5    5    4     -1.73      0.00
    6    5    4     -0.48      0.00
    7    5    4     -9.36      0.00
    8    5    4      7.02      0.00
    9    5    4      2.55      0.00
   10    5    4      0.70      0.00
   11    5    4     -0.79      0.00
   12    5    4      6.76      0.00
   13    5    4      4.04      0.00
  -20    6    4     -7.23      0.00
  -19    6    4      0.23      0.00
  -18    6    4     -3.16      0.00
  -17    6    4      0.40      0.00
  -16    6    4      1.88      0.00
  -15    6    4     -5.39      0.00
  -14    6    4      0.78      0.00
  -13    6    4      0.67      0.00
  -12    6    4     -1.53      0.00
  -11    6    4      1.00      0.00
  -10    6    4      1.43      0.00
   -9    6    4     -7.96      0.00
   -8    6    4      3.21      0.00
   -7    6    4      4.67      0.00
   -6    6    4     -0.31      0.00
   -5    6    4    -10.91      0.00
   -4    6    4     17.17      0.00
   -3    6    4      1.72      0.00
   -2    6    4     -9.49      0.00
   -1    6    4     -6.57      0.00
    0    6    4     12.13      0.00
    1    6    4      5.54      0.00
    2    6    4    -11.10      0.00
    3    6    4      5.65      0.00
    4    6    4      4.53      0.00
    5    6    4      1.59      0.00
    6    6    4     -6.11      0.00
    7    6    4      7.25      0.00
    8    6    4     -2.77      0.00
    9    6    4     -5.28      0.00
   10    6    4      0.03      0.00
   11    6    4      0.80      0.00
   12    6    4     -4.88      0.00
  -20    7    4      7.65      0.00
  -19    7    4     -3.34      0.00
  -18    7    4      1.83      0.00
  -17    7    4      0.52      0.00
  -16    7    4     -0.55      0.00
  -15    7    4      2.16      0.00
  -14    7    4     -3.05      0.00
  -13    7    4      0.05      0.00
  -12    7    4      2.71      0.00
  -11    7    4      0.81      0.00
  -10    7    4     -2.27      0.00
   -9    7    4      3.36      0.00
   -8    7    4      2.98      0.00
   -7    7    4     -2.45      0.00
   -6    7    4     -6.95      0.00
   -5    7    4      8.43      0.00
   -4    7    4     -7.53      0.00
   -3    7    4      0.93      0.00
   -2    7    4      4.74      0.00
    0    7    4    -12.59      0.00
    1    7    4    -13.68      0.00
    2    7    4      9.29      0.00
    3    7    4     -1.64      0.00
    4    7    4     -1.76      0.00
    5    7    4     -2.60      0.00
    6    7    4      7.29      0.00
    7    7    4     -3.30      0.00
    8    7    4     -2.20      0.00
    9    7    4      2.75      0.00
   10    7    4      0.59      0.00
   11    7    4      0.40      0.00
  -20    8    4     -7.01      0.00
  -19    8    4      4.81      0.00
  -18    8    4     -1.16      0.00
  -17    8    4     -1.72      0.00
  -16    8    4      2.13      0.00
  -15    8    4      0.21      0.00
  -14    8    4      2.41      0.00
  -13    8    4     -2.81      0.00
  -12    8    4     -2.40      0.00
  -11    8    4     -3.09      0.00
  -10    8    4     -0.99      0.00
   -9    8    4     -0.65      0.00
   -8    8    4     -1.82      0.00
   -7    8    4      0.57      0.00
   -6    8    4      3.76      0.00
   -5    8    4     -3.78      0.00
   -4    8    4     -2.01      0.00
   -3    8    4     -1.74      0.00
   -2    8    4      6.95      0.00
   -1    8    4      1.73      0.00
    0    8    4      0.93      0.00
    1    8    4      9.44      0.00
    2    8    4      0.50      0.00
    3    8    4     -4.43      0.00
    4    8    4     -0.80      0.00
    5    8    4      7.27      0.00
    6    8    4     -2.89      0.00
    7    8    4     -0.85      0.00
    8    8    4      3.43      0.00
    9    8    4      0.40      0.00
   10    8    4     -2.35      0.00
   11    8    4     -0.34      0.00
  -21    9    4     -0.98      0.00
  -20    9    4      2.57      0.00
  -19    9    4     -3.27      0.00
  -18    9    4      1.58      0.00
  -17    9    4      0.96      0.00
  -16    9    4     -1.56      0.00
  -15    9    4      0.09      0.00
  -14    9    4     -1.05      0.00
  -13    9    4      4.09      0.00
  -12    9    4      2.26      0.00
  -11    9    4      2.23      0.00
  -10    9    4      4.61      0.00
   -9    9    4      0.47      0.00
   -8    9    4     -4.09      0.00
   -7    9    4      2.10      0.00
   -6    9    4      5.03      0.00
   -5    9    4     -1.87      0.00
   -4    9    4     -0.29      0.00
   -3    9    4      1.71      0.00
   -2    9    4     -9.65      0.00
   -1    9    4     -6.43      0.00
    0    9    4      9.38      0.00
    1    9    4     -2.57      0.00
    2    9    4     -5.93      0.00
    3    9    4      2.21      0.00
    4    9    4      0.28      0.00
    5    9    4     -5.23      0.00
    6    9    4     -0.13      0.00
    7    9    4      0.56      0.00
    8    9    4     -2.17      0.00
    9    9    4     -0.38      0.00
   10    9    4      1.25      0.00
  -21   10    4      3.43      0.00
  -20   10    4      1.71      0.00
  -19   10    4      1.81      0.00
  -18   10    4     -1.31      0.00
  -17   10    4     -2.05      0.00
  -16   10    4      1.84      0.00
  -15   10    4      0.66      0.00
  -14   10    4     -0.31      0.00
  -13   10    4     -2.73      0.00
  -12   10    4     -3.00      0.00
  -11   10    4     -0.15      0.00
  -10   10    4     -2.05      0.00
   -9   10    4     -1.77      0.00
   -8   10    4      2.83      0.00
   -7   10    4     -2.36      0.00
   -6   10    4     -6.84      0.00
   -5   10    4      4.32      0.00
   -4   10    4      3.31      0.00
   -3   10    4     -1.35      0.00
   -2   10    4      4.00      0.00
   -1   10    4      5.35      0.00
    0   10    4     -6.85      0.00
    1   10    4     -3.65      0.00
    2   10    4      5.34      0.00
    3   10    4      4.42      0.00
    4   10    4     -4.15      0.00
    5   10    4      1.26      0.00
    6   10    4      3.07      0.00
    7   10    4      2.34      0.00
    8   10    4      1.11      0.00
    9   10    4     -2.40      0.00
  -21   11    4     -5.50      0.00
  -20   11    4     -2.96      0.00
  -19   11    4     -2.36      0.00
  -18   11    4      1.94      0.00
  -17   11    4      1.84      0.00
  -16   11    4     -3.90      0.00
  -15   11    4     -1.67      0.00
  -14   11    4     -0.33      0.00
  -13   11    4      2.52      0.00
  -12   11    4      2.36      0.00
  -11   11    4     -0.54      0.00
  -10   11    4     -0.06      0.00
   -9   11    4      4.52      0.00
   -8   11    4      0.70      0.00
   -7   11    4     -3.24      0.00
   -6   11    4      3.81      0.00
   -5   11    4     -0.69      0.00
   -4   11    4     -2.71      0.00
   -3   11    4      0.01      0.00
   -2   11    4      1.65      0.00
   -1   11    4     -3.15      0.00
    0   11    4      0.98      0.00
    1   11    4      3.01      0.00
    2   11    4      0.13      0.00
    3   11    4     -3.99      0.00
    4   11    4      1.00      0.00
    5   11    4     -0.79      0.00
    6   11    4     -0.96      0.00
    7   11    4     -3.44      0.00
    8   11    4     -1.74      0.00
  -21   12    4      2.80      0.00
  -20   12    4      3.05      0.00
  -19   12    4      4.21      0.00
  -18   12    4     -0.36      0.00
  -17   12    4     -1.67      0.00
  -16   12    4      2.92      0.00
  -15   12    4      2.79      0.00
  -14   12    4      0.49      0.00
  -13   12    4     -3.13      0.00
  -12   12    4     -1.67      0.00
  -11   12    4     -0.80      0.00
  -10   12    4      1.18      0.00
   -9   12    4     -2.64      0.00
   -8   12    4     -1.77      0.00
   -7   12    4      4.68      0.00
   -6   12    4     -1.59      0.00
   -5   12    4      1.35      0.00
   -4   12    4      1.42      0.00
   -3   12    4     -2.10      0.00
   -2   12    4     -3.06      0.00
   -1   12    4      0.63      0.00
    0   12    4      1.85      0.00
    1   12    4      2.00      0.00
    2   12    4     -3.79      0.00
    3   12    4      2.83      0.00
    4   12    4      3.42      0.00
    5   12    4     -0.89      0.00
    6   12    4     -2.44      0.00
    7   12    4      3.52      0.00
  -21   13    4     -0.41      0.00
  -20   13    4     -2.63      0.00
  -19   13    4     -3.07      0.00
  -18   13    4     -1.50      0.00
  -17   13    4      2.19      0.00
  -16   13    4     -2.69      0.00
  -15   13    4     -1.21      0.00
  -14   13    4      1.01      0.00
  -13   13    4      1.99      0.00
  -12   13    4      3.64      0.00
  -11   13    4     -2.22      0.00
  -10   13    4     -4.85      0.00
   -9   13    4      1.21      0.00
   -8   13    4      0.63      0.00
   -7   13    4     -1.12      0.00
   -6   13    4      0.92      0.00
   -5   13    4     -4.12      0.00
   -4   13    4      2.73      0.00
   -3   13    4      0.34      0.00
   -2   13    4      0.65      0.00
   -1   13    4      2.94      0.00
    0   13    4     -1.58      0.00
    1   13    4     -5.00      0.00
    2   13    4      2.20      0.00
    3   13    4      0.13      0.00
    4   13    4     -3.65      0.00
    5   13    4     -0.47      0.00
    6   13    4      3.72      0.00
  -21   14    4      1.21      0.00
  -20   14    4     -2.52      0.00
  -19   14    4      0.32      0.00
  -18   14    4      3.91      0.00
  -17   14    4     -0.58      0.00
  -16   14    4      1.15      0.00
  -15   14    4     -2.06      0.00
  -14   14    4     -0.50      0.00
  -13   14    4      2.03      0.00
  -12   14    4     -2.28      0.00
  -11   14    4      4.05      0.00
  -10   14    4      3.48      0.00
   -9   14    4     -2.24      0.00
   -8   14    4      3.13      0.00
   -7   14    4     -1.41      0.00
   -6   14    4     -3.56      0.00
   -5   14    4      4.01      0.00
   -4   14    4     -3.35      0.00
   -3   14    4      1.77      0.00
   -2   14    4     -0.06      0.00
   -1   14    4     -2.25      0.00
    0   14    4      0.78      0.00
    1   14    4      3.07      0.00
    2   14    4     -2.06      0.00
    3   14    4     -0.41      0.00
    4   14    4      3.47      0.00
    5   14    4      1.22      0.00
  -20   15    4      4.20      0.00
  -19   15    4     -2.58      0.00
  -18   15    4     -4.74      0.00
  -17   15    4      0.29      0.00
  -16   15    4      0.45      0.00
  -15   15    4      1.12      0.00
  -14   15    4      0.16      0.00
  -13   15    4     -3.77      0.00
  -12   15    4      0.55      0.00
  -11   15    4     -1.37      0.00
  -10   15    4     -0.14      0.00
   -9   15    4      2.83      0.00
   -8   15    4     -3.72      0.00
   -7   15    4      2.01      0.00
   -6   15    4      4.46      0.00
   -5   15    4     -4.79      0.00
   -4   15    4      2.96      0.00
   -3   15    4      0.99      0.00
   -2   15    4     -0.85      0.00
   -1   15    4     -0.20      0.00
    0   15    4     -0.59      0.00
    1   15    4      1.28      0.00
    2   15    4      1.13      0.00
    3   15    4     -2.70      0.00
    4   15    4     -0.39      0.00
  -20   16    4      0.31      0.00
  -19   16    4      2.52      0.00
  -18   16    4      2.64      0.00
  -17   16    4      1.64      0.00
  -16   16    4      1.71      0.00
  -15   16    4     -1.86      0.00
  -14   16    4     -4.26      0.00
  -13   16    4      1.16      0.00
  -12   16    4     -0.47      0.00
  -11   16    4      0.40      0.00
  -10   16    4     -0.80      0.00
   -9   16    4     -1.30      0.00
   -8   16    4      1.34      0.00
   -7   16    4     -2.61      0.00
   -6   16    4     -1.16      0.00
   -5   16    4      3.26      0.00
   -4   16    4     -2.82      0.00
   -3   16    4      0.22      0.00
   -2   16    4     -1.36      0.00
   -1   16    4     -1.90      0.00
    0   16    4      1.94      0.00
    1   16    4     -0.58      0.00
    2   16    4      2.36      0.00
    3   16    4      2.04      0.00
  -20   17    4     -1.65      0.00
  -19   17    4      0.10      0.00
  -18   17    4     -0.59      0.00
  -17   17    4     -1.55      0.00
  -16   17    4      1.07      0.00
  -15   17    4      2.87      0.00
  -14   17    4      3.05      0.00
  -13   17    4      0.43      0.00
  -12   17    4      1.49      0.00
  -11   17    4     -0.10      0.00
  -10   17    4     -0.93      0.00
   -9   17    4     -0.27      0.00
   -8   17    4      0.56      0.00
   -7   17    4      1.30      0.00
   -6   17    4     -1.33      0.00
   -5   17    4      0.24      0.00
   -4   17    4      0.51      0.00
   -3   17    4      0.15      0.00
   -2   17    4      4.16      0.00
   -1   17    4      1.21      0.00
    0   17    4     -3.68      0.00
    1   17    4     -3.30      0.00
    2   17    4     -2.51      0.00
  -19   18    4     -1.01      0.00
  -18   18    4     -3.59      0.00
  -17   18    4     -4.04      0.00
  -16   18    4     -0.84      0.00
  -15   18    4      3.82      0.00
  -14   18    4     -2.93      0.00
  -13   18    4     -1.44      0.00
  -12   18    4      0.95      0.00
  -11   18    4     -0.50      0.00
  -10   18    4      2.62      0.00
   -9   18    4      0.76      0.00
   -8   18    4     -0.71      0.00
   -7   18    4     -0.85      0.00
   -6   18    4      0.88      0.00
   -5   18    4     -1.39      0.00
   -4   18    4     -0.80      0.00
   -3   18    4     -0.58      0.00
   -2   18    4      1.78      0.00
   -1   18    4      1.46      0.00
    0   18    4      0.63      0.00
  -18   19    4      4.01      0.00
  -17   19    4      1.82      0.00
  -16   19    4     -3.05      0.00
  -15   19    4     -2.08      0.00
  -14   19    4      5.34      0.00
  -13   19    4     -3.30      0.00
  -12   19    4     -2.85      0.00
  -11   19    4      1.45      0.00
  -10   19    4     -4.77      0.00
   -9   19    4      0.21      0.00
   -8   19    4      1.18      0.00
   -7   19    4      1.43      0.00
   -6   19    4     -0.45      0.00
   -5   19    4      1.42      0.00
   -4   19    4     -0.37      0.00
   -3   19    4     -3.57      0.00
   -2   19    4     -4.31      0.00
  -17   20    4      0.28      0.00
  -16   20    4     -2.85      0.00
  -15   20    4      0.94      0.00
  -14   20    4      0.99      0.00
  -13   20    4      3.76      0.00
  -12   20    4      1.21      0.00
  -11   20    4      0.15      0.00
  -10   20    4      3.02      0.00
   -9   20    4     -3.16      0.00
   -8   20    4      2.91      0.00
   -7   20    4     -0.65      0.00
   -6   20    4     -0.39      0.00
   -5   20    4      0.61      0.00
   -4   20    4      2.20      0.00
   -3   20    4      1.54      0.00
  -16   21    4      2.47      0.00
  -15   21    4     -4.69      0.00
  -14   21    4     -1.14      0.00
  -13   21    4     -0.29      0.00
  -12   21    4     -2.76      0.00
  -11   21    4      0.33      0.00
  -10   21    4      0.07      0.00
   -9   21    4      2.33      0.00
   -8   21    4     -6.30      0.00
   -7   21    4      1.27      0.00
   -6   21    4      0.14      0.00
  -13   22    4     -0.22      0.00
  -12   22    4      1.83      0.00
  -11   22    4     -0.47      0.00
  -10   22    4      0.43      0.00
    6  -22    5      0.58      0.00
    7  -22    5     -5.51      0.00
    8  -22    5      0.31      0.00
    9  -22    5      2.07      0.00
   10  -22    5     -0.40      0.00
   11  -22    5     -3.58      0.00
    3  -21    5     -3.37      0.00
    4  -21    5      1.87      0.00
    5  -21    5      1.44      0.00
    6  -21    5      0.63      0.00
    7  -21    5      3.15      0.00
    8  -21    5     -1.16      0.00
    9  -21    5      1.39      0.00
   10  -21    5      3.21      0.00
   11  -21    5      1.81      0.00
   12  -21    5     -0.32      0.00
   13  -21    5     -1.08      0.00
   14  -21    5     -4.79      0.00
    0  -20    5     -2.16      0.00
    1  -20    5      1.28      0.00
    2  -20    5      4.67      0.00
    3  -20    5      1.79      0.00
    4  -20    5     -4.68      0.00
    5  -20    5     -1.75      0.00
    6  -20    5     -1.24      0.00
    7  -20    5     -0.76      0.00
    8  -20    5     -1.46      0.00
    9  -20    5     -2.80      0.00
   10  -20    5     -1.25      0.00
   11  -20    5      0.19      0.00
   12  -20    5      1.47      0.00
   13  -20    5      1.35      0.00
   14  -20    5      7.85      0.00
   15  -20    5     -0.93      0.00
   -1  -19    5      0.14      0.00
    0  -19    5     -0.72      0.00
    1  -19    5     -0.99      0.00
    2  -19    5     -1.14      0.00
    3  -19    5     -2.01      0.00
    4  -19    5      0.67      0.00
    5  -19    5      0.28      0.00
    6  -19    5      4.17      0.00
    7  -19    5      2.15      0.00
    8  -19    5      1.82      0.00
    9  -19    5      0.00      0.00
   10  -19    5     -1.29      0.00
   11  -19    5     -1.11      0.00
   12  -19    5     -2.71      0.00
   13  -19    5     -0.37      0.00
   14  -19    5     -3.36      0.00
   15  -19    5      1.05      0.00
   16  -19    5     -2.61      0.00
   -3  -18    5     -5.08      0.00
   -2  -18    5      3.17      0.00
   -1  -18    5      3.03      0.00
    0  -18    5      1.64      0.00
    1  -18    5     -2.58      0.00
    2  -18    5     -0.66      0.00
    3  -18    5      5.26      0.00
    4  -18    5     -2.89      0.00
    5  -18    5     -3.80      0.00
    6  -18    5     -0.42      0.00
    7  -18    5     -0.17      0.00
    8  -18    5     -1.68      0.00
    9  -18    5      1.48      0.00
   10  -18    5      3.23      0.00
   11  -18    5     -0.65      0.00
   12  -18    5      0.63      0.00
   13  -18    5      0.48      0.00
   14  -18    5     -0.03      0.00
   15  -18    5      0.26      0.00
   16  -18    5      3.33      0.00
   -4  -17    5      2.23      0.00
   -3  -17    5      2.73      0.00
   -2  -17    5     -5.51      0.00
   -1  -17    5     -1.01      0.00
    0  -17    5      0.74      0.00
    1  -17    5      0.41      0.00
    2  -17    5     -0.43      0.00
    3  -17    5     -1.30      0.00
    4  -17    5      8.94      0.00
    5  -17    5      2.35      0.00
    6  -17    5     -5.26      0.00
    7  -17    5      0.24      0.00
    8  -17    5     -0.38      0.00
    9  -17    5     -3.76      0.00
   10  -17    5     -1.54      0.00
   11  -17    5      3.99      0.00
   12  -17    5      0.10      0.00
   13  -17    5     -1.05      0.00
   14  -17    5      2.02      0.00
   15  -17    5     -0.40      0.00
   16  -17    5     -1.43      0.00
   17  -17    5      0.54      0.00
   -6  -16    5      3.08      0.00
   -5  -16    5      0.32      0.00
   -4  -16    5     -1.90      0.00
   -3  -16    5      0.72      0.00
   -2  -16    5      2.28      0.00
   -1  -16    5     -2.13      0.00
    0  -16    5      0.46      0.00
    1  -16    5     -0.71      0.00
    2  -16    5     -2.30      0.00
    3  -16    5     -1.05      0.00
    4  -16    5     -5.91      0.00
    5  -16    5      3.58      0.00
    6  -16    5      3.27      0.00
    7  -16    5     -1.69      0.00
    8  -16    5      3.30      0.00
    9  -16    5      0.58      0.00
   10  -16    5      0.39      0.00
   11  -16    5     -1.17      0.00
   12  -16    5     -1.63      0.00
   13  -16    5     -3.16      0.00
   14  -16    5     -1.58      0.00
   15  -16    5      1.44      0.00
   16  -16    5     -1.08      0.00
   17  -16    5      0.84      0.00
   -7  -15    5     -5.66      0.00
   -6  -15    5     -1.49      0.00
   -5  -15    5      1.57      0.00
   -4  -15    5      1.56      0.00
   -3  -15    5     -2.26      0.00
   -2  -15    5      2.93      0.00
   -1  -15    5      1.90      0.00
    0  -15    5     -1.82      0.00
    1  -15    5      3.20      0.00
    2  -15    5      1.54      0.00
    3  -15    5     -2.69      0.00
    4  -15    5      0.66      0.00
    5  -15    5     -5.91      0.00
    6  -15    5      1.80      0.00
    7  -15    5      3.12      0.00
    8  -15    5     -4.07      0.00
    9  -15    5      2.97      0.00
   10  -15    5      0.65      0.00
   11  -15    5      0.16      0.00
   12  -15    5      1.22      0.00
   13  -15    5      4.86      0.00
   14  -15    5     -0.42      0.00
   15  -15    5     -2.51      0.00
   16  -15    5      2.49      0.00
   17  -15    5     -0.94      0.00
   18  -15    5      5.55      0.00
   -8  -14    5      1.87      0.00
   -7  -14    5      6.63      0.00
   -6  -14    5     -1.71      0.00
   -5  -14    5     -0.78      0.00
   -4  -14    5     -1.18      0.00
   -3  -14    5      1.19      0.00
   -2  -14    5     -3.77      0.00
   -1  -14    5     -1.72      0.00
    0  -14    5      0.24      0.00
    1  -14    5      1.19      0.00
    2  -14    5      2.25      0.00
    3  -14    5      5.56      0.00
    4  -14    5      0.41      0.00
    5  -14    5      0.89      0.00
    6  -14    5     -5.58      0.00
    7  -14    5     -0.12      0.00
    8  -14    5      5.46      0.00
    9  -14    5     -4.93      0.00
   10  -14    5     -2.85      0.00
   11  -14    5      0.42      0.00
   12  -14    5      1.83      0.00
   13  -14    5     -4.58      0.00
   14  -14    5      1.30      0.00
   15  -14    5      2.77      0.00
   16  -14    5     -4.50      0.00
   17  -14    5     -0.20      0.00
   18  -14    5     -4.27      0.00
   -9  -13    5      2.19      0.00
   -8  -13    5     -0.36      0.00
   -7  -13    5     -4.70      0.00
   -6  -13    5      2.66      0.00
   -5  -13    5     -0.02      0.00
   -4  -13    5      1.60      0.00
   -3  -13    5     -1.50      0.00
   -2  -13    5      3.42      0.00
   -1  -13    5      1.83      0.00
    0  -13    5     -1.49      0.00
    1  -13    5     -7.11      0.00
    2  -13    5     -0.19      0.00
    3  -13    5     -2.56      0.00
    4  -13    5      0.12      0.00
    5  -13    5      0.70      0.00
    6  -13    5      1.29      0.00
    7  -13    5     -3.75      0.00
    8  -13    5     -1.80      0.00
    9  -13    5      4.80      0.00
   10  -13    5     -0.35      0.00
   11  -13    5      0.57      0.00
   12  -13    5     -2.31      0.00
   13  -13    5      1.23      0.00
   14  -13    5     -0.82      0.00
   15  -13    5     -0.21      0.00
   16  -13    5      4.30      0.00
   17  -13    5     -1.43      0.00
   18  -13    5      0.42      0.00
  -10  -12    5      5.10      0.00
   -9  -12    5      0.74      0.00
   -8  -12    5     -3.99      0.00
   -7  -12    5      3.19      0.00
   -6  -12    5     -0.49      0.00
   -5  -12    5     -1.56      0.00
   -4  -12    5     -3.31      0.00
   -3  -12    5      2.74      0.00
   -2  -12    5     -4.57      0.00
   -1  -12    5      1.31      0.00
    0  -12    5      3.05      0.00
    1  -12    5      6.42      0.00
    2  -12    5     -5.52      0.00
    3  -12    5      1.51      0.00
    4  -12    5      4.77      0.00
    5  -12    5      2.40      0.00
    6  -12    5      2.67      0.00
    7  -12    5      2.83      0.00
    8  -12    5     -2.47      0.00
    9  -12    5     -3.02      0.00
   10  -12    5      3.68      0.00
   11  -12    5     -1.05      0.00
   12  -12    5      3.16      0.00
   13  -12    5      0.38      0.00
   14  -12    5      0.76      0.00
   15  -12    5     -1.70      0.00
   16  -12    5     -2.29      0.00
   17  -12    5      1.84      0.00
   18  -12    5      0.47      0.00
  -11  -11    5      1.58      0.00
  -10  -11    5     -4.46      0.00
   -9  -11    5     -1.74      0.00
   -8  -11    5      5.14      0.00
   -7  -11    5     -1.75      0.00
   -6  -11    5      0.35      0.00
   -5  -11    5      1.83      0.00
   -4  -11    5      6.22      0.00
   -3  -11    5     -4.60      0.00
   -2  -11    5      1.25      0.00
   -1  -11    5      0.25      0.00
    0  -11    5      1.96      0.00
    1  -11    5     -5.16      0.00
    2  -11    5      1.26      0.00
    3  -11    5     -6.23      0.00
    4  -11    5     -6.58      0.00
    5  -11    5      1.72      0.00
    6  -11    5     -0.65      0.00
    7  -11    5     -0.44      0.00
    8  -11    5      3.12      0.00
    9  -11    5     -1.56      0.00
   10  -11    5     -5.88      0.00
   11  -11    5      1.04      0.00
   12  -11    5     -1.07      0.00
   13  -11    5      1.68      0.00
   14  -11    5     -1.67      0.00
   15  -11    5      1.28      0.00
   16  -11    5      0.01      0.00
   17  -11    5     -0.85      0.00
   18  -11    5     -1.28      0.00
  -12  -10    5      1.57      0.00
  -11  -10    5     -3.07      0.00
  -10  -10    5      0.24      0.00
   -9  -10    5      6.01      0.00
   -8  -10    5     -6.35      0.00
   -7  -10    5     -2.40      0.00
   -6  -10    5     -0.06      0.00
   -5  -10    5      0.38      0.00
   -4  -10    5     -8.69      0.00
   -3  -10    5      6.85      0.00
   -2  -10    5     -0.12      0.00
   -1  -10    5     -0.76      0.00
    0  -10    5     -2.09      0.00
    1  -10    5      2.69      0.00
    2  -10    5      3.70      0.00
    3  -10    5      4.62      0.00
    4  -10    5      3.93      0.00
    5  -10    5     -7.12      0.00
    6  -10    5     -2.90      0.00
    7  -10    5     -0.99      0.00
    8  -10    5      0.99      0.00
    9  -10    5      3.77      0.00
   10  -10    5      3.19      0.00
   11  -10    5     -1.28      0.00
   12  -10    5     -1.15      0.00
   13  -10    5     -2.84      0.00
   14  -10    5      1.92      0.00
   15  -10    5      0.51      0.00
   16  -10    5      1.71      0.00
   17  -10    5      1.06      0.00
   18  -10    5      1.89      0.00
  -13   -9    5     -0.15      0.00
  -12   -9    5     -1.85      0.00
  -11   -9    5      2.72      0.00
  -10   -9    5     -0.30      0.00
   -9   -9    5     -4.43      0.00
   -8   -9    5      9.03      0.00
   -7   -9    5      0.31      0.00
   -6   -9    5      0.59      0.00
   -5   -9    5     -2.99      0.00
   -4   -9    5      6.12      0.00
   -3   -9    5     -4.39      0.00
   -2   -9    5      2.22      0.00
   -1   -9    5     -7.99      0.00
    0   -9    5      1.17      0.00
    1   -9    5      6.28      0.00
    2   -9    5     -3.92      0.00
    3   -9    5     -0.48      0.00
    4   -9    5      1.42      0.00
    5   -9    5      9.90      0.00
    6   -9    5      0.19      0.00
    7   -9    5      0.79      0.00
    8   -9    5     -3.38      0.00
    9   -9    5      0.94      0.00
   10   -9    5     -0.90      0.00
   11   -9    5     -0.03      0.00
   12   -9    5      0.87      0.00
   13   -9    5      2.25      0.00
   14   -9    5     -0.94      0.00
   15   -9    5      0.18      0.00
   16   -9    5     -3.39      0.00
   17   -9    5     -1.06      0.00
   18   -9    5      2.57      0.00
  -14   -8    5     -0.83      0.00
  -13   -8    5     -1.12      0.00
  -12   -8    5      1.68      0.00
  -11   -8    5      0.36      0.00
  -10   -8    5     -3.61      0.00
   -9   -8    5     -1.12      0.00
   -8   -8    5     -2.46      0.00
   -7   -8    5      4.45      0.00
   -6   -8    5     -5.36      0.00
   -5   -8    5      9.15      0.00
   -4   -8    5     -1.08      0.00
   -3   -8    5      2.67      0.00
   -2   -8    5     -8.19      0.00
   -1   -8    5      8.91      0.00
    0   -8    5      2.31      0.00
    1   -8    5     -9.26      0.00
    2   -8    5      1.45      0.00
    3   -8    5     -5.41      0.00
    4   -8    5     -3.87      0.00
    5   -8    5     -7.87      0.00
    6   -8    5      3.26      0.00
    7   -8    5     -2.67      0.00
    8   -8    5      5.69      0.00
    9   -8    5     -2.71      0.00
   10   -8    5     -0.58      0.00
   11   -8    5     -0.20      0.00
   12   -8    5      1.10      0.00
   13   -8    5     -4.91      0.00
   14   -8    5     -0.62      0.00
   15   -8    5      0.16      0.00
   16   -8    5      1.91      0.00
   17   -8    5     -0.57      0.00
   18   -8    5     -2.26      0.00
  -14   -7    5     -3.29      0.00
  -13   -7    5      1.75      0.00
  -12   -7    5      3.50      0.00
  -11   -7    5     -2.10      0.00
  -10   -7    5      3.81      0.00
   -9   -7    5     -1.29      0.00
   -8   -7    5     -1.84      0.00
   -7   -7    5     -9.42      0.00
   -6   -7    5      5.98      0.00
   -5   -7    5     -7.82      0.00
   -4   -7    5     -0.51      0.00
   -3   -7    5     -2.61      0.00
   -2   -7    5     17.39      0.00
   -1   -7    5    -14.12      0.00
    0   -7    5    -11.09      0.00
    1   -7    5     15.02      0.00
    2   -7    5      4.82      0.00
    3   -7    5      7.71      0.00
    4   -7    5     -5.39      0.00
    5   -7    5      6.73      0.00
    6   -7    5     -3.09      0.00
    7   -7    5      1.50      0.00
    8   -7    5     -5.78      0.00
    9   -7    5      5.28      0.00
   10   -7    5      0.48      0.00
   11   -7    5     -0.68      0.00
   12   -7    5     -0.60      0.00
   13   -7    5      6.43      0.00
   14   -7    5      1.29      0.00
   15   -7    5     -0.54      0.00
   16   -7    5     -1.61      0.00
   17   -7    5     -2.10      0.00
   18   -7    5     -1.18      0.00
  -15   -6    5     -0.75      0.00
  -14   -6    5      2.49      0.00
  -13   -6    5     -4.37      0.00
  -12   -6    5     -5.73      0.00
  -11   -6    5      6.33      0.00
  -10   -6    5      1.71      0.00
   -9   -6    5      3.02      0.00
   -8   -6    5     -2.51      0.00
   -7   -6    5     17.12      0.00
   -6   -6    5     -4.49      0.00
   -5   -6    5     -3.39      0.00
   -4   -6    5     -3.25      0.00
   -3   -6    5      5.34      0.00
   -2   -6    5     -8.76      0.00
    0   -6    5      8.08      0.00
    1   -6    5     -9.37      0.00
    2   -6    5     -6.41      0.00
    3   -6    5    -11.55      0.00
    4   -6    5     14.24      0.00
    5   -6    5     -3.48      0.00
    6   -6    5      2.33      0.00
    7   -6    5     -2.94      0.00
    8   -6    5      3.67      0.00
    9   -6    5     -5.42      0.00
   10   -6    5      2.69      0.00
   11   -6    5      1.26      0.00
   12   -6    5     -1.37      0.00
   13   -6    5     -4.10      0.00
   14   -6    5     -0.52      0.00
   15   -6    5      3.78      0.00
   16   -6    5      4.79      0.00
   17   -6    5     -0.36      0.00
  -16   -5    5     -3.70      0.00
  -15   -5    5      1.59      0.00
  -14   -5    5      2.84      0.00
  -13   -5    5     -1.55      0.00
  -12   -5    5      1.77      0.00
  -11   -5    5     -5.24      0.00
  -10   -5    5     -2.71      0.00
   -9   -5    5     -4.35      0.00
   -8   -5    5      6.48      0.00
   -7   -5    5    -13.50      0.00
   -6   -5    5      2.74      0.00
   -5   -5    5      5.93      0.00
   -4   -5    5     10.70      0.00
   -3   -5    5    -15.00      0.00
   -2   -5    5     -5.20      0.00
   -1   -5    5     11.26      0.00
    0   -5    5     -7.52      0.00
    1   -5    5     -7.90      0.00
    2   -5    5      8.74      0.00
    3   -5    5     16.66      0.00
    4   -5    5    -18.87      0.00
    5   -5    5      1.17      0.00
    6   -5    5      2.08      0.00
    7   -5    5      2.99      0.00
    8   -5    5     -9.42      0.00
    9   -5    5      3.37      0.00
   10   -5    5     -0.20      0.00
   11   -5    5     -0.70      0.00
   12   -5    5      0.47      0.00
   13   -5    5      1.01      0.00
   14   -5    5     -3.98      0.00
   15   -5    5     -3.05      0.00
   16   -5    5     -2.20      0.00
   17   -5    5      2.19      0.00
  -16   -4    5      1.33      0.00
  -15   -4    5     -0.92      0.00
  -14   -4    5     -2.03      0.00
  -13   -4    5      4.73      0.00
  -12   -4    5     -0.33      0.00
  -11   -4    5      1.42      0.00
  -10   -4    5      0.95      0.00
   -9   -4    5     10.08      0.00
   -8   -4    5     -9.48      0.00
   -7   -4    5     -1.33      0.00
   -6   -4    5      5.02      0.00
   -5   -4    5      1.48      0.00
   -4   -4    5    -18.17      0.00
   -3   -4    5     18.63      0.00
   -2   -4    5     11.33      0.00
   -1   -4    5    -26.84      0.00
    0   -4    5     -0.36      0.00
    1   -4    5     19.00      0.00
    2   -4    5      0.52      0.00
    3   -4    5    -24.35      0.00
    4   -4    5     15.42      0.00
    5   -4    5      2.44      0.00
    6   -4    5      2.26      0.00
    7   -4    5     -3.22      0.00
    8   -4    5     10.91      0.00
    9   -4    5     -4.99      0.00
   10   -4    5     -3.38      0.00
   11   -4    5      2.35      0.00
   12   -4    5      3.35      0.00
   13   -4    5     -0.71      0.00
   14   -4    5      3.40      0.00
   15   -4    5     -0.32      0.00
   16   -4    5      1.11      0.00
   17   -4    5     -0.78      0.00
  -17   -3    5      2.16      0.00
  -16   -3    5      0.51      0.00
  -15   -3    5      0.51      0.00
  -14   -3    5      1.27      0.00
  -13   -3    5     -4.18      0.00
  -12   -3    5     -1.71      0.00
  -11   -3    5      0.03      0.00
  -10   -3    5      1.45      0.00
   -9   -3    5    -12.61      0.00
   -8   -3    5     12.91      0.00
   -7   -3    5      6.45      0.00
   -6   -3    5    -10.93      0.00
   -5   -3    5    -10.55      0.00
   -4   -3    5     16.42      0.00
   -3   -3    5     -4.58      0.00
   -2   -3    5     -4.56      0.00
   -1   -3    5     30.67      0.00
    0   -3    5     -2.36      0.00
    1   -3    5    -23.92      0.00
    2   -3    5     -3.04      0.00
    3   -3    5     27.78      0.00
    4   -3    5    -15.22      0.00
    5   -3    5     -8.03      0.00
    6   -3    5     -5.93      0.00
    7   -3    5     11.84      0.00
    8   -3    5     -7.13      0.00
    9   -3    5      2.69      0.00
   10   -3    5     -0.08      0.00
   11   -3    5     -1.50      0.00
   12   -3    5     -2.05      0.00
   13   -3    5      1.00      0.00
   14   -3    5     -2.05      0.00
   15   -3    5     -0.22      0.00
   16   -3    5      0.33      0.00
  -17   -2    5     -2.38      0.00
  -16   -2    5     -1.28      0.00
  -15   -2    5     -1.11      0.00
  -14   -2    5     -0.08      0.00
  -13   -2    5      5.15      0.00
  -12   -2    5      0.76      0.00
  -11   -2    5      3.14      0.00
  -10   -2    5     -5.92      0.00
   -9   -2    5      7.25      0.00
   -8   -2    5     -6.96      0.00
   -7   -2    5     -0.53      0.00
   -6   -2    5      6.39      0.00
   -5   -2    5     18.23      0.00
   -4   -2    5    -17.31      0.00
   -3   -2    5    -14.57      0.00
   -2   -2    5      3.73      0.00
   -1   -2    5    -19.34      0.00
    0   -2    5     12.19      0.00
    1   -2    5     -0.81      0.00
    2   -2    5     12.02      0.00
    3   -2    5     -3.30      0.00
    4   -2    5      5.81      0.00
    5   -2    5     -2.23      0.00
    6   -2    5      5.10      0.00
    7   -2    5    -13.82      0.00
    8   -2    5      7.68      0.00
    9   -2    5      3.35      0.00
   10   -2    5      1.20      0.00
   11   -2    5     -2.07      0.00
   12   -2    5      0.38      0.00
   13   -2    5      0.49      0.00
   14   -2    5      1.08      0.00
   15   -2    5      0.29      0.00
   16   -2    5     -0.49      0.00
  -18   -1    5     -0.19      0.00
  -17   -1    5     -0.86      0.00
  -16   -1    5     -0.42      0.00
  -15   -1    5      1.31      0.00
  -14   -1    5      2.23      0.00
  -13   -1    5     -3.02      0.00
  -12   -1    5     -0.35      0.00
  -11   -1    5     -6.96      0.00
  -10   -1    5      8.87      0.00
   -9   -1    5     -6.04      0.00
   -8   -1    5     -2.87      0.00
   -7   -1    5     -3.27      0.00
   -6   -1    5      3.60      0.00
   -5   -1    5     -3.76      0.00
   -4   -1    5     12.65      0.00
   -3   -1    5     -2.89      0.00
   -2   -1    5     -7.24      0.00
   -1   -1    5     20.41      0.00
    0   -1    5    -11.06      0.00
    1   -1    5      9.82      0.00
    2   -1    5    -31.12      0.00
    3   -1    5     -4.95      0.00
    4   -1    5     11.70      0.00
    5   -1    5     10.77      0.00
    6   -1    5    -11.06      0.00
    7   -1    5      7.27      0.00
    8   -1    5     -6.54      0.00
    9   -1    5     -3.04      0.00
   10   -1    5     -0.65      0.00
   11   -1    5      0.44      0.00
   12   -1    5      0.71      0.00
   13   -1    5      0.06      0.00
   14   -1    5     -1.09      0.00
   15   -1    5      0.44      0.00
   16   -1    5      0.61      0.00
  -18    0    5      0.86      0.00
  -17    0    5      4.56      0.00
  -16    0    5     -3.44      0.00
  -15    0    5     -2.26      0.00
  -14    0    5     -1.78      0.00
  -13    0    5      3.57      0.00
  -12    0    5     -2.46      0.00
  -11    0    5      7.11      0.00
  -10    0    5     -0.53      0.00
   -9    0    5      5.60      0.00
   -8    0    5     -0.67      0.00
   -6    0    5    -11.75      0.00
   -5    0    5     -5.50      0.00
   -4    0    5     11.92      0.00
   -3    0    5     15.54      0.00
   -2    0    5     -7.86      0.00
   -1    0    5    -12.90      0.00
    0    0    5     27.18      0.00
    1    0    5     -5.57      0.00
    2    0    5     17.22      0.00
    3    0    5     -6.52      0.00
    4    0    5     -9.18      0.00
    5    0    5     -6.18      0.00
    6    0    5     14.73      0.00
    7    0    5     -4.86      0.00
    8    0    5      4.04      0.00
    9    0    5      1.33      0.00
   10    0    5      1.76      0.00
   11    0    5     -0.21      0.00
   12    0    5     -1.03      0.00
   13    0    5      1.56      0.00
   14    0    5     -1.78      0.00
   15    0    5     -2.09      0.00
  -19    1    5      2.35      0.00
  -18    1    5     -1.20      0.00
  -17    1    5      0.17      0.00
  -16    1    5      4.91      0.00
  -15    1    5     -1.56      0.00
  -14    1    5     -1.13      0.00
  -13    1    5     -0.79      0.00
  -12    1    5      3.96      0.00
  -11    1    5     -9.72      0.00
  -10    1    5     -3.44      0.00
   -9    1    5     -1.37      0.00
   -8    1    5      9.54      0.00
   -7    1    5      2.43      0.00
   -6    1    5     -0.70      0.00
   -5    1    5     -6.35      0.00
   -4    1    5     -3.15      0.00
   -3    1    5     -8.84      0.00
   -2    1    5     -6.79      0.00
   -1    1    5      1.18      0.00
    0    1    5    -21.09      0.00
    1    1    5     11.98      0.00
    2    1    5     -6.88      0.00
    3    1    5     10.84      0.00
    4    1    5     -2.10      0.00
    5    1    5     -0.76      0.00
    6    1    5     -6.70      0.00
    7    1    5      5.09      0.00
    8    1    5     -6.96      0.00
    9    1    5     -0.68      0.00
   10    1    5      0.43      0.00
   11    1    5      0.01      0.00
   12    1    5      0.92      0.00
   13    1    5     -0.57      0.00
   14    1    5      2.40      0.00
   15    1    5     -2.63      0.00
  -19    2    5     -3.19      0.00
  -18    2    5      0.45      0.00
  -17    2    5     -0.69      0.00
  -16    2    5      0.78      0.00
  -15    2    5      1.11      0.00
  -14    2    5     -1.99      0.00
  -13    2    5     -0.06      0.00
  -12    2    5      1.46      0.00
  -11    2    5      4.74      0.00
  -10    2    5     -5.14      0.00
   -9    2    5      6.41      0.00
   -8    2    5     -8.37      0.00
   -7    2    5     -2.92      0.00
   -6    2    5     10.76      0.00
   -5    2    5      4.44      0.00
   -4    2    5    -13.04      0.00
   -3    2    5     10.73      0.00
   -2    2    5     27.11      0.00
   -1    2    5    -13.81      0.00
    0    2    5     -1.10      0.00
    1    2    5     -5.64      0.00
    2    2    5     14.29      0.00
    3    2    5    -11.78      0.00
    4    2    5      6.33      0.00
    5    2    5      4.52      0.00
    6    2    5     -1.04      0.00
    7    2    5     -5.19      0.00
    8    2    5      7.07      0.00
    9    2    5      1.13      0.00
   10    2    5     -2.56      0.00
   11    2    5     -0.52      0.00
   12    2    5     -1.47      0.00
   13    2    5      1.89      0.00
   14    2    5      1.98      0.00
  -19    3    5      3.01      0.00
  -18    3    5     -0.47      0.00
  -17    3    5     -1.86      0.00
  -16    3    5     -0.46      0.00
  -15    3    5      1.29      0.00
  -14    3    5      0.99      0.00
  -13    3    5     -2.62      0.00
  -12    3    5     -0.60      0.00
  -11    3    5      4.27      0.00
  -10    3    5     10.47      0.00
   -9    3    5    -14.15      0.00
   -8    3    5      0.46      0.00
   -7    3    5      6.67      0.00
   -6    3    5     -2.41      0.00
   -5    3    5    -10.23      0.00
   -4    3    5     12.19      0.00
   -3    3    5     13.22      0.00
   -2    3    5    -34.51      0.00
   -1    3    5     10.58      0.00
    0    3    5     12.28      0.00
    1    3    5      0.38      0.00
    2    3    5    -19.33      0.00
    3    3    5     10.65      0.00
    4    3    5     -2.20      0.00
    5    3    5     -8.32      0.00
    6    3    5      1.28      0.00
    7    3    5      7.13      0.00
    8    3    5     -3.60      0.00
    9    3    5     -2.59      0.00
   10    3    5      3.48      0.00
   11    3    5      1.18      0.00
   12    3    5     -0.23      0.00
   13    3    5     -1.42      0.00
   14    3    5      0.28      0.00
  -20    4    5     -5.71      0.00
  -19    4    5     -1.47      0.00
  -18    4    5     -1.04      0.00
  -17    4    5      0.86      0.00
  -16    4    5     -0.86      0.00
  -15    4    5      0.62      0.00
  -14    4    5      0.28      0.00
  -13    4    5      0.94      0.00
  -12    4    5     -1.71      0.00
  -11    4    5     -5.17      0.00
  -10    4    5     -9.97      0.00
   -9    4    5     11.04      0.00
   -8    4    5      2.93      0.00
   -7    4    5    -10.27      0.00
   -6    4    5      1.51      0.00
   -5    4    5     15.95      0.00
   -4    4    5    -15.00      0.00
   -3    4    5    -25.29      0.00
   -2    4    5     34.77      0.00
   -1    4    5     -2.53      0.00
    0    4    5    -11.77      0.00
    1    4    5     -4.03      0.00
    2    4    5     15.75      0.00
    3    4    5     -4.54      0.00
    4    4    5     -0.02      0.00
    5    4    5      5.50      0.00
    6    4    5      3.50      0.00
    7    4    5     -5.34      0.00
    8    4    5     -1.85      0.00
    9    4    5      1.65      0.00
   10    4    5     -1.17      0.00
   11    4    5     -1.98      0.00
   12    4    5     -3.92      0.00
   13    4    5     -1.26      0.00
  -20    5    5      6.61      0.00
  -19    5    5     -0.27      0.00
  -18    5    5      1.88      0.00
  -17    5    5     -1.78      0.00
  -16    5    5      0.67      0.00
  -15    5    5      0.82      0.00
  -14    5    5      0.61      0.00
  -13    5    5      0.41      0.00
  -12    5    5      1.37      0.00
  -11    5    5      1.12      0.00
  -10    5    5      8.29      0.00
   -9    5    5     -2.47      0.00
   -8    5    5     -6.77      0.00
   -7    5    5      4.11      0.00
   -6    5    5      2.31      0.00
   -5    5    5     -7.33      0.00
   -4    5    5     -0.82      0.00
   -3    5    5     17.11      0.00
   -2    5    5    -12.13      0.00
   -1    5    5     -2.06      0.00
    0    5    5      0.43      0.00
    1    5    5     10.43      0.00
    2    5    5     -8.97      0.00
    3    5    5     -5.32      0.00
    4    5    5     -0.07      0.00
    5    5    5      1.81      0.00
    6    5    5     -8.63      0.00
    7    5    5      2.92      0.00
    8    5    5      7.28      0.00
    9    5    5     -0.94      0.00
   10    5    5     -1.92      0.00
   11    5    5      4.42      0.00
   12    5    5      7.48      0.00
  -20    6    5     -4.37      0.00
  -19    6    5      1.17      0.00
  -18    6    5     -1.78      0.00
  -17    6    5      2.47      0.00
  -16    6    5     -2.02      0.00
  -15    6    5     -1.42      0.00
  -14    6    5      1.31      0.00
  -13    6    5     -1.89      0.00
  -12    6    5     -2.26      0.00
  -11    6    5      3.70      0.00
  -10    6    5     -6.39      0.00
   -9    6    5     -0.87      0.00
   -8    6    5      9.36      0.00
   -7    6    5      2.66      0.00
   -6    6    5     -9.05      0.00
   -5    6    5      1.78      0.00
   -4    6    5     14.89      0.00
   -3    6    5    -16.04      0.00
   -2    6    5     -4.12      0.00
   -1    6    5      5.25      0.00
    0    6    5     14.38      0.00
    1    6    5    -10.03      0.00
    2    6    5      2.04      0.00
    3    6    5      8.36      0.00
    4    6    5      0.99      0.00
    5    6    5     -5.74      0.00
    6    6    5      5.12      0.00
    7    6    5      1.93      0.00
    8    6    5     -7.18      0.00
    9    6    5      1.28      0.00
   10    6    5      2.97      0.00
   11    6    5     -4.86      0.00
   12    6    5     -5.04      0.00
  -21    7    5      5.25      0.00
  -20    7    5      0.94      0.00
  -19    7    5     -2.32      0.00
  -18    7    5      2.90      0.00
  -17    7    5     -1.50      0.00
  -16    7    5      0.33      0.00
  -15    7    5     -0.61      0.00
  -14    7    5     -1.05      0.00
  -13    7    5      3.65      0.00
  -12    7    5      3.14      0.00
  -11    7    5     -4.73      0.00
  -10    7    5      1.84      0.00
   -9    7    5      1.42      0.00
   -8    7    5     -4.03      0.00
   -7    7    5     -5.96      0.00
   -6    7    5      5.61      0.00
   -5    7    5      4.00      0.00
   -4    7    5    -10.73      0.00
   -3    7    5      9.08      0.00
   -2    7    5      3.50      0.00
   -1    7    5     -4.25      0.00
    0    7    5    -21.53      0.00
    1    7    5      5.56      0.00
    2    7    5      2.77      0.00
    3    7    5     -3.65      0.00
    4    7    5     -3.09      0.00
    5    7    5      4.16      0.00
    6    7    5      0.25      0.00
    7    7    5     -6.39      0.00
    8    7    5      2.86      0.00
    9    7    5     -0.07      0.00
   10    7    5     -0.77      0.00
   11    7    5      2.23      0.00
  -21    8    5     -4.15      0.00
  -20    8    5      0.77      0.00
  -19    8    5      2.57      0.00
  -18    8    5     -3.70      0.00
  -17    8    5      2.55      0.00
  -16    8    5      1.48      0.00
  -15    8    5      1.32      0.00
  -14    8    5     -1.66      0.00
  -13    8    5     -4.90      0.00
  -12    8    5     -3.03      0.00
  -11    8    5      2.23      0.00
  -10    8    5      1.20      0.00
   -9    8    5     -0.85      0.00
   -8    8    5      0.74      0.00
   -7    8    5      3.38      0.00
   -6    8    5     -0.70      0.00
   -5    8    5     -7.19      0.00
   -4    8    5      3.45      0.00
   -3    8    5      2.23      0.00
   -2    8    5      6.73      0.00
   -1    8    5     -2.97      0.00
    0    8    5     10.67      0.00
    1    8    5      3.75      0.00
    2    8    5     -4.86      0.00
    3    8    5     -1.25      0.00
    4    8    5      7.87      0.00
    5    8    5      0.01      0.00
    6    8    5     -3.86      0.00
    7    8    5      4.67      0.00
    8    8    5      1.63      0.00
    9    8    5     -2.92      0.00
   10    8    5     -1.17      0.00
  -21    9    5      0.54      0.00
  -20    9    5     -0.80      0.00
  -19    9    5     -1.08      0.00
  -18    9    5      1.57      0.00
  -17    9    5     -1.50      0.00
  -16    9    5     -1.20      0.00
  -15    9    5     -0.85      0.00
  -14    9    5      2.85      0.00
  -13    9    5      4.49      0.00
  -12    9    5      0.95      0.00
  -11    9    5      0.31      0.00
  -10    9    5      0.34      0.00
   -9    9    5     -2.33      0.00
   -8    9    5     -0.48      0.00
   -7    9    5      3.96      0.00
   -6    9    5     -1.31      0.00
   -5    9    5      1.59      0.00
   -4    9    5      0.40      0.00
   -3    9    5     -5.24      0.00
   -2    9    5    -12.07      0.00
   -1    9    5      8.81      0.00
    0    9    5      0.78      0.00
    1    9    5     -8.12      0.00
    2    9    5      1.52      0.00
    3    9    5      1.09      0.00
    4    9    5     -4.92      0.00
    5    9    5     -1.10      0.00
    6    9    5      1.65      0.00
    7    9    5     -1.69      0.00
    8    9    5     -1.60      0.00
    9    9    5      3.66      0.00
   10    9    5      2.45      0.00
  -21   10    5      3.88      0.00
  -20   10    5      0.05      0.00
  -19   10    5      1.15      0.00
  -18   10    5     -1.21      0.00
  -17   10    5     -0.11      0.00
  -16   10    5      2.64      0.00
  -15   10    5     -0.93      0.00
  -14   10    5     -1.12      0.00
  -13   10    5     -2.57      0.00
  -12   10    5     -0.02      0.00
  -11   10    5      0.44      0.00
  -10   10    5     -2.56      0.00
   -9   10    5      0.57      0.00
   -8   10    5     -0.39      0.00
   -7   10    5     -5.51      0.00
   -6   10    5      1.65      0.00
   -5   10    5      3.25      0.00
   -4   10    5     -0.57      0.00
   -3   10    5      1.03      0.00
   -2   10    5      8.51      0.00
   -1   10    5     -3.46      0.00
    0   10    5     -5.94      0.00
    1   10    5      4.35      0.00
    2   10    5      5.16      0.00
    3   10    5     -3.10      0.00
    4   10    5     -0.94      0.00
    5   10    5      3.64      0.00
    6   10    5      2.16      0.00
    7   10    5     -0.86      0.00
    8   10    5     -1.37      0.00
    9   10    5     -3.07      0.00
  -21   11    5     -4.23      0.00
  -20   11    5     -0.43      0.00
  -19   11    5     -1.14      0.00
  -18   11    5      1.85      0.00
  -17   11    5     -1.48      0.00
  -16   11    5     -3.89      0.00
  -15   11    5      0.62      0.00
  -14   11    5      1.01      0.00
  -13   11    5      1.42      0.00
  -12   11    5      0.55      0.00
  -11   11    5     -0.47      0.00
  -10   11    5      3.56      0.00
   -9   11    5      3.06      0.00
   -8   11    5     -2.58      0.00
   -7   11    5      1.55      0.00
   -6   11    5      2.18      0.00
   -5   11    5     -3.75      0.00
   -4   11    5     -1.67      0.00
   -3   11    5      2.07      0.00
   -2   11    5     -3.85      0.00
   -1   11    5     -1.85      0.00
    0   11    5      3.79      0.00
    1   11    5      0.16      0.00
    2   11    5     -3.73      0.00
    3   11    5     -0.10      0.00
    4   11    5      0.05      0.00
    5   11    5     -0.89      0.00
    6   11    5     -1.16      0.00
    7   11    5     -0.29      0.00
    8   11    5      2.15      0.00
  -21   12    5      2.89      0.00
  -20   12    5      2.51      0.00
  -19   12    5      1.31      0.00
  -18   12    5     -1.86      0.00
  -17   12    5      0.85      0.00
  -16   12    5      3.96      0.00
  -15   12    5      0.41      0.00
  -14   12    5     -1.79      0.00
  -13   12    5     -0.43      0.00
  -12   12    5     -2.01      0.00
  -11   12    5     -0.18      0.00
  -10   12    5     -0.67      0.00
   -9   12    5     -3.62      0.00
   -8   12    5      4.87      0.00
   -7   12    5      1.57      0.00
   -6   12    5     -3.67      0.00
   -5   12    5      3.85      0.00
   -4   12    5      0.26      0.00
   -3   12    5     -1.94      0.00
   -2   12    5      0.75      0.00
   -1   12    5      2.99      0.00
    0   12    5      2.45      0.00
    1   12    5     -2.29      0.00
    2   12    5      0.34      0.00
    3   12    5      4.01      0.00
    4   12    5      0.21      0.00
    5   12    5     -2.91      0.00
    6   12    5      1.23      0.00
    7   12    5      2.61      0.00
  -21   13    5     -2.35      0.00
  -20   13    5     -1.57      0.00
  -19   13    5     -2.38      0.00
  -18   13    5      1.37      0.00
  -17   13    5      0.68      0.00
  -16   13    5     -2.31      0.00
  -15   13    5      0.27      0.00
  -14   13    5     -0.57      0.00
  -13   13    5      1.68      0.00
  -12   13    5      0.45      0.00
  -11   13    5     -4.03      0.00
  -10   13    5     -0.92      0.00
   -9   13    5      3.06      0.00
   -8   13    5     -3.56      0.00
   -7   13    5     -0.63      0.00
   -6   13    5      1.12      0.00
   -5   13    5     -2.24      0.00
   -4   13    5      0.69      0.00
   -3   13    5     -0.58      0.00
   -2   13    5      1.95      0.00
   -1   13    5     -2.18      0.00
    0   13    5     -4.63      0.00
    1   13    5      0.48      0.00
    2   13    5      2.68      0.00
    3   13    5     -3.22      0.00
    4   13    5     -3.27      0.00
    5   13    5      2.21      0.00
    6   13    5     -0.33      0.00
  -21   14    5     -2.09      0.00
  -20   14    5     -1.07      0.00
  -19   14    5      4.81      0.00
  -18   14    5      0.11      0.00
  -17   14    5     -2.01      0.00
  -16   14    5      1.03      0.00
  -15   14    5      0.18      0.00
  -14   14    5      2.83      0.00
  -13   14    5     -1.44      0.00
  -12   14    5      1.48      0.00
  -11   14    5      4.98      0.00
  -10   14    5     -0.49      0.00
   -9   14    5     -0.94      0.00
   -8   14    5      1.49      0.00
   -7   14    5     -3.68      0.00
   -6   14    5      1.30      0.00
   -5   14    5      1.63      0.00
   -4   14    5     -0.54      0.00
   -3   14    5      1.31      0.00
   -2   14    5     -1.77      0.00
   -1   14    5      0.67      0.00
    0   14    5      2.73      0.00
    1   14    5      0.02      0.00
    2   14    5     -2.00      0.00
    3   14    5      4.32      0.00
    4   14    5      3.80      0.00
    5   14    5     -1.30      0.00
  -20   15    5     -1.64      0.00
  -19   15    5     -4.30      0.00
  -18   15    5      0.12      0.00
  -17   15    5      1.75      0.00
  -16   15    5     -2.92      0.00
  -15   15    5      0.79      0.00
  -14   15    5     -1.61      0.00
  -13   15    5      0.16      0.00
  -12   15    5     -0.07      0.00
  -11   15    5     -1.86      0.00
  -10   15    5      1.86      0.00
   -9   15    5     -0.37      0.00
   -8   15    5     -1.46      0.00
   -7   15    5      5.43      0.00
   -6   15    5     -2.94      0.00
   -5   15    5     -1.10      0.00
   -4   15    5      3.34      0.00
   -3   15    5     -1.39      0.00
   -2   15    5     -0.06      0.00
   -1   15    5     -0.96      0.00
    0   15    5     -0.05      0.00
    1   15    5      0.83      0.00
    2   15    5     -3.94      0.00
    3   15    5     -2.34      0.00
    4   15    5     -0.66      0.00
  -20   16    5      2.57      0.00
  -19   16    5      0.85      0.00
  -18   16    5      2.01      0.00
  -17   16    5      0.65      0.00
  -16   16    5      0.54      0.00
  -15   16    5     -5.81      0.00
  -14   16    5     -0.94      0.00
  -13   16    5      0.96      0.00
  -12   16    5      0.80      0.00
  -11   16    5     -0.39      0.00
  -10   16    5     -1.62      0.00
   -9   16    5      0.31      0.00
   -8   16    5      0.65      0.00
   -7   16    5     -2.64      0.00
   -6   16    5      2.65      0.00
   -5   16    5     -1.12      0.00
   -4   16    5     -2.67      0.00
   -3   16    5      0.21      0.00
   -2   16    5     -1.33      0.00
   -1   16    5      2.44      0.00
    0   16    5      0.62      0.00
    1   16    5      1.74      0.00
    2   16    5      6.00      0.00
  -20   17    5     -0.27      0.00
  -19   17    5      0.82      0.00
  -18   17    5     -2.72      0.00
  -17   17    5      2.63      0.00
  -16   17    5      2.80      0.00
  -15   17    5      2.94      0.00
  -14   17    5      1.05      0.00
  -13   17    5     -0.72      0.00
  -12   17    5     -0.76      0.00
  -11   17    5      0.25      0.00
  -10   17    5     -0.63      0.00
   -9   17    5      1.03      0.00
   -8   17    5     -0.17      0.00
   -7   17    5     -0.21      0.00
   -6   17    5      0.89      0.00
   -5   17    5      1.07      0.00
   -4   17    5      0.04      0.00
   -3   17    5      2.33      0.00
   -2   17    5      1.09      0.00
   -1   17    5     -3.33      0.00
    0   17    5     -4.82      0.00
    1   17    5     -3.54      0.00
  -19   18    5     -3.90      0.00
  -18   18    5     -3.15      0.00
  -17   18    5     -3.02      0.00
  -16   18    5      4.83      0.00
  -15   18    5      1.13      0.00
  -14   18    5     -3.92      0.00
  -13   18    5      1.95      0.00
  -12   18    5     -0.22      0.00
  -11   18    5      0.39      0.00
  -10   18    5      2.96      0.00
   -9   18    5     -1.99      0.00
   -8   18    5     -1.08      0.00
   -7   18    5     -0.92      0.00
   -6   18    5     -1.51      0.00
   -5   18    5      0.55      0.00
   -4   18    5      0.75      0.00
   -3   18    5      0.74      0.00
   -2   18    5      2.10      0.00
   -1   18    5      1.28      0.00
    0   18    5      3.97      0.00
  -18   19    5      2.32      0.00
  -17   19    5     -3.29      0.00
  -16   19    5     -4.37      0.00
  -15   19    5      3.14      0.00
  -14   19    5      0.83      0.00
  -13   19    5     -5.14      0.00
  -12   19    5      1.31      0.00
  -11   19    5     -1.56      0.00
  -10   19    5     -2.87      0.00
   -9   19    5      3.99      0.00
   -8   19    5      2.31      0.00
   -7   19    5      1.29      0.00
   -6   19    5     -0.88      0.00
   -5   19    5     -2.07      0.00
   -4   19    5     -2.92      0.00
   -3   19    5     -3.35      0.00
   -2   19    5     -1.39      0.00
  -17   20    5     -0.17      0.00
  -16   20    5     -1.46      0.00
  -15   20    5      1.81      0.00
  -14   20    5      2.94      0.00
  -13   20    5      2.42      0.00
  -12   20    5     -0.47      0.00
  -11   20    5      1.16      0.00
  -10   20    5     -0.69      0.00
   -9   20    5     -1.59      0.00
   -8   20    5      0.33      0.00
   -7   20    5     -2.46      0.00
   -6   20    5      3.11      0.00
   -5   20    5      3.10      0.00
   -4   20    5      0.77      0.00
  -16   21    5     -1.63      0.00
  -15   21    5     -4.28      0.00
  -14   21    5      0.80      0.00
  -13   21    5     -1.13      0.00
  -12   21    5      0.16      0.00
  -11   21    5      0.94      0.00
  -10   21    5      0.71      0.00
   -9   21    5     -1.60      0.00
   -8   21    5     -1.37      0.00
   -7   21    5      2.59      0.00
  -12   22    5     -0.15      0.00
    6  -22    6     -5.86      0.00
    7  -22    6     -2.10      0.00
    8  -22    6      2.35      0.00
    9  -22    6     -0.01      0.00
   10  -22    6     -4.07      0.00
    3  -21    6     -2.05      0.00
    4  -21    6      6.05      0.00
    5  -21    6     -1.37      0.00
    6  -21    6      3.39      0.00
    7  -21    6      0.40      0.00
    8  -21    6      1.09      0.00
    9  -21    6      3.37      0.00
   10  -21    6      1.66      0.00
   11  -21    6      0.72      0.00
   12  -21    6      1.30      0.00
   13  -21    6     -1.15      0.00
    0  -20    6     -0.40      0.00
    1  -20    6      5.32      0.00
    2  -20    6      1.62      0.00
    3  -20    6     -1.83      0.00
    4  -20    6     -5.70      0.00
    5  -20    6      2.96      0.00
    6  -20    6     -1.52      0.00
    7  -20    6     -1.52      0.00
    8  -20    6     -4.01      0.00
    9  -20    6     -1.18      0.00
   10  -20    6     -0.34      0.00
   11  -20    6      0.39      0.00
   12  -20    6     -1.56      0.00
   13  -20    6      3.77      0.00
   14  -20    6      1.31      0.00
   -2  -19    6     -0.25      0.00
   -1  -19    6     -1.56      0.00
    0  -19    6     -1.50      0.00
    1  -19    6     -2.41      0.00
    2  -19    6     -1.09      0.00
    3  -19    6     -1.52      0.00
    4  -19    6      2.27      0.00
    5  -19    6      0.52      0.00
    6  -19    6      4.02      0.00
    7  -19    6     -0.39      0.00
    8  -19    6      0.87      0.00
    9  -19    6     -0.56      0.00
   10  -19    6      1.92      0.00
   11  -19    6     -1.38      0.00
   12  -19    6      1.98      0.00
   13  -19    6     -0.12      0.00
   14  -19    6     -1.12      0.00
   15  -19    6      0.15      0.00
   -3  -18    6      2.43      0.00
   -2  -18    6      3.49      0.00
   -1  -18    6      1.17      0.00
    0  -18    6     -0.03      0.00
    1  -18    6     -1.43      0.00
    2  -18    6      3.16      0.00
    3  -18    6      2.02      0.00
    4  -18    6     -5.96      0.00
    5  -18    6      0.87      0.00
    6  -18    6     -0.06      0.00
    7  -18    6      0.90      0.00
    8  -18    6     -0.87      0.00
    9  -18    6      1.33      0.00
   10  -18    6     -2.36      0.00
   11  -18    6     -1.29      0.00
   12  -18    6     -1.64      0.00
   13  -18    6     -1.01      0.00
   14  -18    6      2.01      0.00
   15  -18    6      2.67      0.00
   16  -18    6      1.92      0.00
   -5  -17    6     -0.25      0.00
   -4  -17    6      2.63      0.00
   -3  -17    6     -4.29      0.00
   -2  -17    6     -2.49      0.00
   -1  -17    6      1.83      0.00
    0  -17    6     -1.51      0.00
    1  -17    6      1.74      0.00
    2  -17    6     -0.08      0.00
    3  -17    6      3.67      0.00
    4  -17    6      6.31      0.00
    5  -17    6     -7.84      0.00
    6  -17    6     -1.76      0.00
    7  -17    6      0.36      0.00
    8  -17    6     -1.02      0.00
    9  -17    6      0.23      0.00
   10  -17    6      5.08      0.00
   11  -17    6      1.93      0.00
   12  -17    6     -1.89      0.00
   13  -17    6      2.22      0.00
   14  -17    6     -0.24      0.00
   15  -17    6     -2.23      0.00
   16  -17    6     -0.48      0.00
   -6  -16    6      0.19      0.00
   -5  -16    6      0.24      0.00
   -4  -16    6     -0.86      0.00
   -3  -16    6      2.76      0.00
   -2  -16    6     -0.80      0.00
   -1  -16    6     -1.58      0.00
    0  -16    6      1.12      0.00
    1  -16    6     -4.19      0.00
    2  -16    6     -1.41      0.00
    3  -16    6     -2.62      0.00
    4  -16    6     -1.39      0.00
    5  -16    6      6.53      0.00
    6  -16    6     -1.93      0.00
    7  -16    6      2.36      0.00
    8  -16    6      0.33      0.00
    9  -16    6     -2.95      0.00
   10  -16    6     -1.31      0.00
   11  -16    6     -1.49      0.00
   12  -16    6     -1.72      0.00
   13  -16    6     -3.94      0.00
   14  -16    6      1.85      0.00
   15  -16    6      0.84      0.00
   16  -16    6      0.26      0.00
   17  -16    6     -2.54      0.00
   -7  -15    6     -3.52      0.00
   -6  -15    6      1.66      0.00
   -5  -15    6      1.01      0.00
   -4  -15    6     -0.10      0.00
   -3  -15    6     -1.88      0.00
   -2  -15    6      2.74      0.00
   -1  -15    6     -0.04      0.00
    0  -15    6      1.29      0.00
    1  -15    6      4.29      0.00
    2  -15    6     -0.73      0.00
    3  -15    6     -1.38      0.00
    4  -15    6     -1.39      0.00
    5  -15    6     -1.04      0.00
    6  -15    6      5.88      0.00
    7  -15    6     -4.82      0.00
    8  -15    6      1.45      0.00
    9  -15    6      3.52      0.00
   10  -15    6     -1.44      0.00
   11  -15    6      1.84      0.00
   12  -15    6      3.64      0.00
   13  -15    6      2.45      0.00
   14  -15    6     -3.75      0.00
   15  -15    6      1.17      0.00
   16  -15    6      0.49      0.00
   17  -15    6      5.10      0.00
   -8  -14    6      6.21      0.00
   -7  -14    6      2.46      0.00
   -6  -14    6     -1.98      0.00
   -5  -14    6     -0.62      0.00
   -4  -14    6     -0.33      0.00
   -3  -14    6      2.73      0.00
   -2  -14    6     -4.03      0.00
   -1  -14    6     -0.34      0.00
    0  -14    6      1.20      0.00
    1  -14    6     -0.70      0.00
    2  -14    6     -0.21      0.00
    3  -14    6      2.36      0.00
    4  -14    6     -0.45      0.00
    5  -14    6     -1.79      0.00
    6  -14    6     -4.34      0.00
    7  -14    6      7.42      0.00
    8  -14    6     -2.58      0.00
    9  -14    6     -5.22      0.00
   10  -14    6      2.08      0.00
   11  -14    6      1.09      0.00
   12  -14    6     -2.57      0.00
   13  -14    6     -1.89      0.00
   14  -14    6      3.97      0.00
   15  -14    6     -3.35      0.00
   16  -14    6     -2.70      0.00
   17  -14    6     -3.09      0.00
   -9  -13    6      1.33      0.00
   -8  -13    6     -4.13      0.00
   -7  -13    6     -2.06      0.00
   -6  -13    6      1.85      0.00
   -5  -13    6     -0.39      0.00
   -4  -13    6     -0.21      0.00
   -3  -13    6     -2.83      0.00
   -2  -13    6      4.95      0.00
   -1  -13    6     -0.57      0.00
    0  -13    6     -4.38      0.00
    1  -13    6     -0.56      0.00
    2  -13    6      4.52      0.00
    3  -13    6     -3.20      0.00
    4  -13    6      0.08      0.00
    5  -13    6     -2.19      0.00
    6  -13    6      1.26      0.00
    7  -13    6     -4.30      0.00
    8  -13    6      3.08      0.00
    9  -13    6      0.95      0.00
   10  -13    6     -1.82      0.00
   11  -13    6     -0.40      0.00
   12  -13    6     -0.31      0.00
   13  -13    6      1.66      0.00
   14  -13    6     -1.90      0.00
   15  -13    6      3.43      0.00
   16  -13    6      1.56      0.00
   17  -13    6     -1.42      0.00
   18  -13    6      2.62      0.00
  -10  -12    6      5.03      0.00
   -9  -12    6     -3.49      0.00
   -8  -12    6      1.02      0.00
   -7  -12    6      3.28      0.00
   -6  -12    6     -2.81      0.00
   -5  -12    6     -0.60      0.00
   -4  -12    6      1.49      0.00
   -3  -12    6      1.36      0.00
   -2  -12    6     -2.79      0.00
   -1  -12    6      2.74      0.00
    0  -12    6      1.87      0.00
    1  -12    6     -1.34      0.00
    2  -12    6     -5.13      0.00
    3  -12    6      8.81      0.00
    4  -12    6      2.09      0.00
    5  -12    6      4.49      0.00
    6  -12    6     -2.24      0.00
    7  -12    6      0.49      0.00
    8  -12    6     -2.50      0.00
    9  -12    6      3.70      0.00
   10  -12    6      0.95      0.00
   11  -12    6      0.46      0.00
   12  -12    6      1.99      0.00
   13  -12    6     -1.76      0.00
   14  -12    6      0.67      0.00
   15  -12    6     -2.70      0.00
   16  -12    6     -0.36      0.00
   17  -12    6      1.58      0.00
   18  -12    6     -0.27      0.00
  -11  -11    6     -1.11      0.00
  -10  -11    6     -5.66      0.00
   -9  -11    6      2.70      0.00
   -8  -11    6      2.12      0.00
   -7  -11    6     -2.66      0.00
   -6  -11    6      0.99      0.00
   -5  -11    6      3.29      0.00
   -4  -11    6     -0.48      0.00
   -3  -11    6     -4.36      0.00
   -2  -11    6      3.39      0.00
   -1  -11    6      0.24      0.00
    0  -11    6      0.52      0.00
    1  -11    6     -2.63      0.00
    2  -11    6      0.64      0.00
    3  -11    6     -9.61      0.00
    4  -11    6      2.43      0.00
    5  -11    6     -1.33      0.00
    6  -11    6      2.04      0.00
    7  -11    6      0.01      0.00
    8  -11    6      0.86      0.00
    9  -11    6     -6.14      0.00
   10  -11    6      0.15      0.00
   11  -11    6      0.69      0.00
   12  -11    6      0.63      0.00
   13  -11    6      0.82      0.00
   14  -11    6     -1.20      0.00
   15  -11    6      1.76      0.00
   16  -11    6     -0.35      0.00
   17  -11    6     -0.51      0.00
   18  -11    6     -2.44      0.00
  -12  -10    6     -0.89      0.00
  -11  -10    6     -3.44      0.00
  -10  -10    6      6.70      0.00
   -9  -10    6     -1.70      0.00
   -8  -10    6     -7.31      0.00
   -7  -10    6      2.94      0.00
   -6  -10    6      1.74      0.00
   -5  -10    6     -5.54      0.00
   -4  -10    6      0.05      0.00
   -3  -10    6      6.83      0.00
   -2  -10    6     -5.86      0.00
   -1  -10    6      0.56      0.00
    0  -10    6     -4.02      0.00
    1  -10    6      4.91      0.00
    2  -10    6      0.31      0.00
    3  -10    6      6.39      0.00
    4  -10    6     -6.23      0.00
    5  -10    6     -3.73      0.00
    6  -10    6     -1.86      0.00
    7  -10    6      2.65      0.00
    8  -10    6      1.36      0.00
    9  -10    6      2.29      0.00
   10  -10    6     -2.37      0.00
   11  -10    6     -1.52      0.00
   12  -10    6     -2.29      0.00
   13  -10    6     -0.18      0.00
   14  -10    6      1.94      0.00
   15  -10    6      0.44      0.00
   16  -10    6      1.23      0.00
   17  -10    6     -0.42      0.00
   18  -10    6     -0.05      0.00
  -13   -9    6     -1.12      0.00
  -12   -9    6     -0.33      0.00
  -11   -9    6      2.57      0.00
  -10   -9    6     -3.63      0.00
   -9   -9    6      4.97      0.00
   -8   -9    6      4.89      0.00
   -7   -9    6     -3.00      0.00
   -6   -9    6     -0.44      0.00
   -5   -9    6      1.05      0.00
   -4   -9    6      2.38      0.00
   -3   -9    6     -4.92      0.00
   -2   -9    6      1.76      0.00
   -1   -9    6     -2.96      0.00
    0   -9    6     12.89      0.00
    1   -9    6     -3.48      0.00
    2   -9    6     -0.61      0.00
    3   -9    6     -1.47      0.00
    4   -9    6      8.63      0.00
    5   -9    6      2.72      0.00
    6   -9    6      1.58      0.00
    7   -9    6     -3.14      0.00
    8   -9    6      1.58      0.00
    9   -9    6      2.18      0.00
   10   -9    6      0.66      0.00
   11   -9    6      0.66      0.00
   12   -9    6      1.63      0.00
   13   -9    6      0.77      0.00
   14   -9    6     -0.07      0.00
   15   -9    6     -1.07      0.00
   16   -9    6     -1.43      0.00
   17   -9    6      4.45      0.00
  -14   -8    6     -3.50      0.00
  -13   -8    6      0.57      0.00
  -12   -8    6      2.34      0.00
  -11   -8    6     -3.76      0.00
  -10   -8    6     -3.35      0.00
   -9   -8    6     -0.01      0.00
   -8   -8    6      1.70      0.00
   -7   -8    6     -1.43      0.00
   -6   -8    6      2.39      0.00
   -5   -8    6      5.80      0.00
   -4   -8    6     -6.14      0.00
   -3   -8    6      1.34      0.00
   -2   -8    6     -6.07      0.00
   -1   -8    6      7.90      0.00
    0   -8    6    -10.87      0.00
    1   -8    6      1.42      0.00
    2   -8    6     -5.67      0.00
    3   -8    6     -4.40      0.00
    4   -8    6     -5.34      0.00
    5   -8    6      1.56      0.00
    6   -8    6     -3.68      0.00
    7   -8    6      3.43      0.00
    8   -8    6     -0.90      0.00
    9   -8    6     -4.15      0.00
   10   -8    6     -0.84      0.00
   11   -8    6      1.43      0.00
   12   -8    6     -2.87      0.00
   13   -8    6     -3.25      0.00
   14   -8    6      0.01      0.00
   15   -8    6     -1.28      0.00
   16   -8    6      0.05      0.00
   17   -8    6     -3.48      0.00
  -14   -7    6      0.87      0.00
  -13   -7    6      4.41      0.00
  -12   -7    6     -1.80      0.00
  -11   -7    6      2.97      0.00
  -10   -7    6      0.71      0.00
   -9   -7    6     -5.11      0.00
   -8   -7    6     -3.42      0.00
   -7   -7    6      0.48      0.00
   -6   -7    6     -0.41      0.00
   -5   -7    6     -6.25      0.00
   -4   -7    6      6.38      0.00
   -3   -7    6      5.22      0.00
   -2   -7    6      7.35      0.00
   -1   -7    6    -20.36      0.00
    0   -7    6     13.07      0.00
    1   -7    6      4.83      0.00
    2   -7    6     11.60      0.00
    3   -7    6     -1.33      0.00
    4   -7    6     -1.11      0.00
    5   -7    6      0.32      0.00
    6   -7    6      1.98      0.00
    7   -7    6     -4.31      0.00
    8   -7    6      1.40      0.00
    9   -7    6      5.59      0.00
   10   -7    6     -0.70      0.00
   11   -7    6     -2.17      0.00
   12   -7    6      5.36      0.00
   13   -7    6      4.24      0.00
   14   -7    6     -1.13      0.00
   15   -7    6      1.14      0.00
   16   -7    6     -2.33      0.00
   17   -7    6     -0.69      0.00
  -15   -6    6      0.01      0.00
  -14   -6    6     -1.09      0.00
  -13   -6    6     -7.33      0.00
  -12   -6    6      3.51      0.00
  -11   -6    6      3.54      0.00
  -10   -6    6      1.65      0.00
   -9   -6    6      0.92      0.00
   -8   -6    6      5.95      0.00
   -7   -6    6      5.31      0.00
   -6   -6    6    -10.76      0.00
   -5   -6    6      1.98      0.00
   -4   -6    6     -6.00      0.00
   -3   -6    6      2.53      0.00
   -2   -6    6     -3.40      0.00
   -1   -6    6     14.10      0.00
    0   -6    6    -13.76      0.00
    1   -6    6     -1.29      0.00
    2   -6    6    -15.03      0.00
    3   -6    6      8.26      0.00
    4   -6    6      8.68      0.00
    5   -6    6     -2.77      0.00
    6   -6    6     -2.29      0.00
    7   -6    6      0.97      0.00
    8   -6    6     -1.45      0.00
    9   -6    6     -2.66      0.00
   10   -6    6      3.00      0.00
   11   -6    6     -0.09      0.00
   12   -6    6     -4.47      0.00
   13   -6    6     -2.62      0.00
   14   -6    6      3.11      0.00
   15   -6    6      3.15      0.00
   16   -6    6     -0.48      0.00
   17   -6    6     -0.70      0.00
  -16   -5    6     -0.10      0.00
  -15   -5    6      4.43      0.00
  -14   -5    6     -2.77      0.00
  -13   -5    6      3.25      0.00
  -12   -5    6     -1.32      0.00
  -11   -5    6     -4.31      0.00
  -10   -5    6     -0.64      0.00
   -9   -5    6      1.43      0.00
   -8   -5    6     -2.99      0.00
   -7   -5    6     -7.98      0.00
   -6   -5    6     12.93      0.00
   -5   -5    6      3.69      0.00
   -4   -5    6      4.15      0.00
   -3   -5    6    -18.82      0.00
   -2   -5    6     16.31      0.00
   -1   -5    6     -2.38      0.00
    0   -5    6     -2.61      0.00
    1   -5    6     -4.55      0.00
    2   -5    6     19.13      0.00
    3   -5    6     -9.79      0.00
    4   -5    6    -11.60      0.00
    5   -5    6      7.39      0.00
    6   -5    6      2.97      0.00
    7   -5    6     -3.31      0.00
    8   -5    6     -1.95      0.00
    9   -5    6      4.53      0.00
   10   -5    6     -1.33      0.00
   11   -5    6      0.23      0.00
   12   -5    6      1.68      0.00
   13   -5    6     -1.51      0.00
   14   -5    6     -2.32      0.00
   15   -5    6     -0.32      0.00
   16   -5    6      2.67      0.00
   17   -5    6      0.10      0.00
  -16   -4    6      0.45      0.00
  -15   -4    6     -2.45      0.00
  -14   -4    6      2.42      0.00
  -13   -4    6     -0.88      0.00
  -12   -4    6     -1.48      0.00
  -11   -4    6      1.11      0.00
  -10   -4    6      3.78      0.00
   -9   -4    6      0.36      0.00
   -8   -4    6    -10.68      0.00
   -7   -4    6      9.53      0.00
   -6   -4    6     -1.14      0.00
   -5   -4    6     -7.29      0.00
   -4   -4    6     -5.58      0.00
   -3   -4    6     25.12      0.00
   -2   -4    6    -24.73      0.00
   -1   -4    6     -6.97      0.00
    0   -4    6     11.45      0.00
    1   -4    6     17.01      0.00
    2   -4    6    -22.23      0.00
    3   -4    6      1.30      0.00
    4   -4    6      9.76      0.00
    5   -4    6     -2.57      0.00
    6   -4    6     -1.46      0.00
    7   -4    6      1.14      0.00
    8   -4    6      2.46      0.00
    9   -4    6     -8.46      0.00
   10   -4    6      1.20      0.00
   11   -4    6      2.35      0.00
   12   -4    6     -0.61      0.00
   13   -4    6     -0.20      0.00
   14   -4    6      0.10      0.00
   15   -4    6     -0.46      0.00
   16   -4    6     -0.47      0.00
  -17   -3    6      0.88      0.00
  -16   -3    6      0.29      0.00
  -15   -3    6      1.93      0.00
  -14   -3    6     -0.13      0.00
  -13   -3    6     -2.77      0.00
  -12   -3    6      2.09      0.00
  -11   -3    6      1.70      0.00
  -10   -3    6     -5.83      0.00
   -9   -3    6     -0.33      0.00
   -8   -3    6     17.71      0.00
   -7   -3    6    -12.76      0.00
   -6   -3    6     -8.84      0.00
   -5   -3    6      3.30      0.00
   -4   -3    6     16.11      0.00
   -3   -3    6    -18.35      0.00
   -2   -3    6     21.78      0.00
   -1   -3    6      6.63      0.00
    0   -3    6    -13.09      0.00
    1   -3    6    -19.38      0.00
    2   -3    6     23.47      0.00
    3   -3    6      2.14      0.00
    4   -3    6    -11.47      0.00
    5   -3    6     -3.74      0.00
    6   -3    6      7.84      0.00
    7   -3    6      6.32      0.00
    8   -3    6     -5.82      0.00
    9   -3    6      5.00      0.00
   10   -3    6     -1.25      0.00
   11   -3    6      0.21      0.00
   12   -3    6      0.28      0.00
   13   -3    6      1.88      0.00
   14   -3    6     -1.78      0.00
   15   -3    6      1.19      0.00
   16   -3    6      2.16      0.00
  -17   -2    6     -1.26      0.00
  -16   -2    6     -2.03      0.00
  -15   -2    6     -1.42      0.00
  -14   -2    6      3.26      0.00
  -13   -2    6      1.33      0.00
  -12   -2    6     -0.97      0.00
  -11   -2    6     -2.39      0.00
  -10   -2    6     -0.81      0.00
   -9   -2    6      4.58      0.00
   -8   -2    6     -8.78      0.00
   -7   -2    6      9.20      0.00
   -6   -2    6      9.34      0.00
   -5   -2    6      3.38      0.00
   -4   -2    6    -30.51      0.00
   -3   -2    6     11.58      0.00
   -2   -2    6     -9.72      0.00
   -1   -2    6      7.36      0.00
    0   -2    6     -4.81      0.00
    1   -2    6     12.61      0.00
    2   -2    6      2.85      0.00
    3   -2    6     -5.45      0.00
    4   -2    6     -1.17      0.00
    5   -2    6      3.49      0.00
    6   -2    6     -7.57      0.00
    7   -2    6     -7.16      0.00
    8   -2    6     12.09      0.00
    9   -2    6     -2.33      0.00
   10   -2    6     -2.45      0.00
   11   -2    6     -2.69      0.00
   12   -2    6      2.23      0.00
   13   -2    6     -1.34      0.00
   14   -2    6      0.24      0.00
   15   -2    6     -2.00      0.00
   16   -2    6     -1.65      0.00
  -18   -1    6     -1.68      0.00
  -17   -1    6     -0.94      0.00
  -16   -1    6      2.89      0.00
  -15   -1    6      2.53      0.00
  -14   -1    6     -0.96      0.00
  -13   -1    6     -0.54      0.00
  -12   -1    6     -3.13      0.00
  -11   -1    6      2.63      0.00
  -10   -1    6      4.76      0.00
   -9   -1    6    -12.75      0.00
   -8   -1    6      3.18      0.00
   -7   -1    6      0.72      0.00
   -6   -1    6      2.29      0.00
   -5   -1    6     -7.48      0.00
   -4   -1    6     18.61      0.00
   -2   -1    6      8.13      0.00
   -1   -1    6     -9.59      0.00
    0   -1    6     13.02      0.00
    1   -1    6    -19.04      0.00
    2   -1    6    -19.30      0.00
    3   -1    6     18.58      0.00
    4   -1    6     13.22      0.00
    5   -1    6     -8.21      0.00
    6   -1    6     -1.71      0.00
    7   -1    6      6.42      0.00
    8   -1    6    -11.06      0.00
    9   -1    6      3.30      0.00
   10   -1    6      0.94      0.00
   11   -1    6      2.24      0.00
   12   -1    6     -0.95      0.00
   13   -1    6      0.99      0.00
   14   -1    6      0.71      0.00
   15   -1    6      0.90      0.00
  -18    0    6      5.69      0.00
  -17    0    6     -1.59      0.00
  -16    0    6     -4.55      0.00
  -15    0    6     -1.84      0.00
  -14    0    6     -0.14      0.00
  -13    0    6      1.33      0.00
  -12    0    6      1.58      0.00
  -11    0    6      3.67      0.00
  -10    0    6     -2.75      0.00
   -9    0    6      7.70      0.00
   -8    0    6     -5.46      0.00
   -7    0    6     -5.47      0.00
   -6    0    6    -11.48      0.00
   -5    0    6     18.98      0.00
   -4    0    6      2.49      0.00
   -3    0    6      9.06      0.00
   -2    0    6    -11.09      0.00
   -1    0    6     19.38      0.00
    0    0    6     -3.96      0.00
    1    0    6      5.85      0.00
    2    0    6      8.63      0.00
    3    0    6    -15.62      0.00
    4    0    6     -8.07      0.00
    5    0    6     11.42      0.00
    6    0    6      4.96      0.00
    7    0    6     -7.73      0.00
    8    0    6      6.54      0.00
    9    0    6     -1.66      0.00
   10    0    6      1.75      0.00
   11    0    6     -3.13      0.00
   12    0    6      1.55      0.00
   13    0    6     -1.34      0.00
   14    0    6     -2.15      0.00
   15    0    6      1.50      0.00
  -19    1    6      2.06      0.00
  -18    1    6     -2.08      0.00
  -17    1    6      4.18      0.00
  -16    1    6      0.73      0.00
  -15    1    6     -2.23      0.00
  -14    1    6      1.49      0.00
  -13    1    6      1.69      0.00
  -12    1    6     -2.46      0.00
  -11    1    6     -7.68      0.00
  -10    1    6      5.72      0.00
   -8    1    6      7.97      0.00
   -7    1    6     -2.07      0.00
   -6    1    6      1.91      0.00
   -5    1    6    -14.91      0.00
   -4    1    6      0.01      0.00
   -3    1    6     -9.83      0.00
   -2    1    6      4.22      0.00
   -1    1    6    -18.78      0.00
    0    1    6      6.67      0.00
    1    1    6      5.96      0.00
    2    1    6     -2.82      0.00
    3    1    6      4.89      0.00
    4    1    6     -2.12      0.00
    5    1    6     -4.06      0.00
    6    1    6     -1.48      0.00
    7    1    6      4.37      0.00
    8    1    6     -5.81      0.00
    9    1    6      3.28      0.00
   10    1    6     -2.17      0.00
   11    1    6      2.34      0.00
   12    1    6     -2.06      0.00
   13    1    6      1.64      0.00
   14    1    6      0.19      0.00
  -19    2    6     -0.66      0.00
  -18    2    6      0.69      0.00
  -17    2    6      0.28      0.00
  -16    2    6      0.32      0.00
  -15    2    6     -0.25      0.00
  -14    2    6     -2.16      0.00
  -13    2    6      1.26      0.00
  -12    2    6      2.56      0.00
  -11    2    6     -1.59      0.00
  -10    2    6     -3.89      0.00
   -9    2    6      1.03      0.00
   -8    2    6     -9.94      0.00
   -7    2    6      9.79      0.00
   -6    2    6      1.38      0.00
   -5    2    6      2.24      0.00
   -4    2    6     -6.62      0.00
   -3    2    6     16.77      0.00
   -2    2    6     -4.00      0.00
   -1    2    6     -0.49      0.00
    0    2    6     -4.78      0.00
    1    2    6      2.65      0.00
    2    2    6      3.70      0.00
    3    2    6     -3.25      0.00
    4    2    6      6.31      0.00
    5    2    6     -3.45      0.00
    6    2    6     -0.77      0.00
    7    2    6     -2.22      0.00
    8    2    6      5.80      0.00
    9    2    6     -5.31      0.00
   10    2    6      2.23      0.00
   11    2    6     -1.55      0.00
   12    2    6      1.85      0.00
   13    2    6      1.20      0.00
   14    2    6     -0.16      0.00
  -20    3    6      3.58      0.00
  -19    3    6     -1.51      0.00
  -18    3    6     -3.18      0.00
  -17    3    6     -1.09      0.00
  -16    3    6      2.13      0.00
  -15    3    6      0.25      0.00
  -14    3    6     -1.64      0.00
  -13    3    6     -1.75      0.00
  -12    3    6      3.51      0.00
  -11    3    6      8.50      0.00
  -10    3    6     -1.96      0.00
   -9    3    6     -7.93      0.00
   -8    3    6     11.48      0.00
   -7    3    6     -3.84      0.00
   -6    3    6     -1.09      0.00
   -5    3    6     -4.52      0.00
   -4    3    6     22.97      0.00
   -3    3    6    -17.30      0.00
   -2    3    6     -4.67      0.00
   -1    3    6     15.08      0.00
    0    3    6      0.60      0.00
    1    3    6     -9.55      0.00
    2    3    6     -5.17      0.00
    3    3    6      8.45      0.00
    4    3    6     -8.90      0.00
    5    3    6      2.82      0.00
    6    3    6      3.31      0.00
    7    3    6      4.55      0.00
    8    3    6     -5.98      0.00
    9    3    6      4.19      0.00
   10    3    6     -0.79      0.00
   11    3    6      0.26      0.00
   12    3    6     -0.29      0.00
   13    3    6      1.04      0.00
  -20    4    6     -2.25      0.00
  -19    4    6      1.93      0.00
  -18    4    6      1.61      0.00
  -17    4    6      0.46      0.00
  -16    4    6      0.22      0.00
  -15    4    6      2.39      0.00
  -14    4    6      0.29      0.00
  -13    4    6     -0.67      0.00
  -12    4    6     -5.20      0.00
  -11    4    6     -7.96      0.00
  -10    4    6      0.41      0.00
   -9    4    6      9.75      0.00
   -8    4    6     -9.28      0.00
   -7    4    6      1.55      0.00
   -6    4    6      5.38      0.00
   -5    4    6      3.12      0.00
   -4    4    6    -30.50      0.00
   -3    4    6     15.70      0.00
   -2    4    6     11.00      0.00
   -1    4    6    -14.81      0.00
    0    4    6     -1.76      0.00
    1    4    6      4.58      0.00
    2    4    6      7.47      0.00
    3    4    6     -5.96      0.00
    4    4    6      5.98      0.00
    5    4    6     -0.96      0.00
    6    4    6     -0.60      0.00
    7    4    6     -7.54      0.00
    8    4    6      3.50      0.00
    9    4    6     -1.39      0.00
   10    4    6      0.55      0.00
   11    4    6     -3.55      0.00
   12    4    6     -3.19      0.00
   13    4    6     -1.28      0.00
  -20    5    6     -0.48      0.00
  -19    5    6     -1.47      0.00
  -18    5    6     -0.29      0.00
  -17    5    6     -1.75      0.00
  -16    5    6     -0.29      0.00
  -15    5    6     -1.27      0.00
  -14    5    6      2.07      0.00
  -13    5    6      0.38      0.00
  -12    5    6      2.75      0.00
  -11    5    6      4.23      0.00
  -10    5    6      4.23      0.00
   -9    5    6     -9.94      0.00
   -8    5    6     -0.90      0.00
   -7    5    6     -1.15      0.00
   -6    5    6      1.23      0.00
   -5    5    6     -7.18      0.00
   -4    5    6     17.98      0.00
   -3    5    6      0.19      0.00
   -2    5    6     -9.27      0.00
   -1    5    6      2.47      0.00
    0    5    6      4.54      0.00
    1    5    6      2.51      0.00
    2    5    6    -12.65      0.00
    3    5    6      0.73      0.00
    4    5    6      3.49      0.00
    5    5    6     -2.66      0.00
    6    5    6     -3.72      0.00
    7    5    6     10.93      0.00
    8    5    6     -1.24      0.00
    9    5    6     -3.26      0.00
   10    5    6      0.18      0.00
   11    5    6      8.39      0.00
   12    5    6      2.02      0.00
  -20    6    6      2.49      0.00
  -19    6    6      0.34      0.00
  -18    6    6      0.83      0.00
  -17    6    6      1.33      0.00
  -16    6    6     -1.32      0.00
  -15    6    6      1.12      0.00
  -14    6    6     -2.21      0.00
  -13    6    6     -2.31      0.00
  -12    6    6      1.74      0.00
  -11    6    6      0.23      0.00
  -10    6    6     -3.92      0.00
   -9    6    6     11.09      0.00
   -8    6    6      6.60      0.00
   -7    6    6     -4.10      0.00
   -6    6    6     -8.37      0.00
   -5    6    6     15.23      0.00
   -4    6    6     -8.79      0.00
   -3    6    6    -12.41      0.00
   -2    6    6      5.83      0.00
   -1    6    6     10.86      0.00
    0    6    6      0.60      0.00
    1    6    6     -7.68      0.00
    2    6    6     10.98      0.00
    3    6    6      0.39      0.00
    4    6    6     -5.99      0.00
    5    6    6      0.73      0.00
    6    6    6      5.85      0.00
    7    6    6     -7.52      0.00
    8    6    6      0.38      0.00
    9    6    6      5.53      0.00
   10    6    6     -2.62      0.00
   11    6    6     -7.13      0.00
  -21    7    6      2.04      0.00
  -20    7    6     -3.91      0.00
  -19    7    6      1.64      0.00
  -18    7    6     -0.94      0.00
  -17    7    6     -2.08      0.00
  -16    7    6      0.75      0.00
  -15    7    6     -0.52      0.00
  -14    7    6      3.24      0.00
  -13    7    6      3.62      0.00
  -12    7    6     -4.32      0.00
  -11    7    6     -3.81      0.00
  -10    7    6      0.99      0.00
   -9    7    6     -5.74      0.00
   -8    7    6     -5.32      0.00
   -7    7    6      0.98      0.00
   -6    7    6      9.52      0.00
   -5    7    6     -9.45      0.00
   -4    7    6      2.20      0.00
   -3    7    6      9.25      0.00
   -2    7    6     -2.49      0.00
   -1    7    6    -16.72      0.00
    0    7    6     -5.93      0.00
    1    7    6     10.75      0.00
    2    7    6     -3.46      0.00
    3    7    6     -1.66      0.00
    4    7    6      1.83      0.00
    5    7    6      4.62      0.00
    6    7    6     -7.07      0.00
    7    7    6      0.78      0.00
    8    7    6      2.66      0.00
    9    7    6     -2.35      0.00
   10    7    6      2.32      0.00
   11    7    6      2.61      0.00
  -21    8    6     -1.44      0.00
  -20    8    6      4.20      0.00
  -19    8    6     -2.56      0.00
  -18    8    6      2.56      0.00
  -17    8    6      2.45      0.00
  -16    8    6     -0.19      0.00
  -15    8    6     -1.25      0.00
  -14    8    6     -5.57      0.00
  -13    8    6     -2.53      0.00
  -12    8    6      3.30      0.00
  -11    8    6      5.36      0.00
  -10    8    6      0.03      0.00
   -9    8    6      1.31      0.00
   -8    8    6      3.52      0.00
   -7    8    6      1.97      0.00
   -6    8    6     -7.76      0.00
   -5    8    6     -0.40      0.00
   -4    8    6      3.51      0.00
   -3    8    6      3.32      0.00
   -2    8    6     -0.79      0.00
   -1    8    6      4.07      0.00
    0    8    6     10.06      0.00
    1    8    6     -7.67      0.00
    2    8    6     -3.12      0.00
    3    8    6      5.47      0.00
    4    8    6      2.37      0.00
    5    8    6     -7.88      0.00
    6    8    6      2.92      0.00
    7    8    6      3.46      0.00
    8    8    6     -5.77      0.00
    9    8    6     -1.40      0.00
   10    8    6     -0.06      0.00
  -21    9    6      0.73      0.00
  -20    9    6     -2.13      0.00
  -19    9    6      0.12      0.00
  -18    9    6     -1.74      0.00
  -17    9    6     -0.48      0.00
  -16    9    6     -0.55      0.00
  -15    9    6      2.20      0.00
  -14    9    6      5.93      0.00
  -13    9    6      0.70      0.00
  -12    9    6     -1.60      0.00
  -11    9    6     -2.70      0.00
  -10    9    6     -1.20      0.00
   -9    9    6     -1.28      0.00
   -8    9    6      1.38      0.00
   -7    9    6      0.91      0.00
   -6    9    6      1.22      0.00
   -5    9    6      3.51      0.00
   -4    9    6     -2.83      0.00
   -3    9    6    -10.42      0.00
   -2    9    6      2.90      0.00
   -1    9    6      7.55      0.00
    0    9    6    -10.02      0.00
    1    9    6      1.97      0.00
    2    9    6      2.92      0.00
    3    9    6     -2.59      0.00
    4    9    6     -1.93      0.00
    5    9    6      4.30      0.00
    6    9    6      0.51      0.00
    7    9    6     -2.12      0.00
    8    9    6      5.81      0.00
    9    9    6      2.89      0.00
  -21   10    6     -0.22      0.00
  -20   10    6      0.78      0.00
  -19   10    6      1.42      0.00
  -18   10    6     -1.93      0.00
  -17   10    6      0.75      0.00
  -16   10    6     -0.24      0.00
  -15   10    6     -1.75      0.00
  -14   10    6     -2.68      0.00
  -13   10    6     -0.77      0.00
  -12   10    6      0.65      0.00
  -11   10    6     -0.54      0.00
  -10   10    6     -0.83      0.00
   -9   10    6     -0.47      0.00
   -8   10    6     -2.83      0.00
   -7   10    6     -1.90      0.00
   -6   10    6      2.87      0.00
   -5   10    6     -1.04      0.00
   -4   10    6     -0.89      0.00
   -3   10    6      6.57      0.00
   -2   10    6      2.44      0.00
   -1   10    6     -8.08      0.00
    0   10    6      2.81      0.00
    1   10    6      4.14      0.00
    2   10    6     -1.95      0.00
    3   10    6     -4.28      0.00
    4   10    6      3.76      0.00
    5   10    6      1.09      0.00
    6   10    6     -3.27      0.00
    7   10    6     -1.56      0.00
    8   10    6     -3.30      0.00
  -21   11    6      0.07      0.00
  -20   11    6     -0.60      0.00
  -19   11    6     -0.22      0.00
  -18   11    6      2.07      0.00
  -17   11    6     -1.99      0.00
  -16   11    6      0.45      0.00
  -15   11    6      2.54      0.00
  -14   11    6      0.88      0.00
  -13   11    6      1.09      0.00
  -12   11    6      1.09      0.00
  -11   11    6      1.38      0.00
  -10   11    6      3.68      0.00
   -9   11    6      0.28      0.00
   -8   11    6     -1.37      0.00
   -7   11    6      3.23      0.00
   -6   11    6     -2.29      0.00
   -5   11    6     -3.59      0.00
   -4   11    6      1.78      0.00
   -3   11    6     -2.02      0.00
   -2   11    6     -4.94      0.00
   -1   11    6      3.40      0.00
    0   11    6      1.28      0.00
    1   11    6     -2.70      0.00
    2   11    6     -1.42      0.00
    3   11    6      3.33      0.00
    4   11    6     -1.82      0.00
    5   11    6      1.09      0.00
    6   11    6      1.63      0.00
    7   11    6      0.58      0.00
  -21   12    6      1.88      0.00
  -20   12    6     -0.05      0.00
  -19   12    6     -0.99      0.00
  -18   12    6     -1.52      0.00
  -17   12    6      1.89      0.00
  -16   12    6      0.36      0.00
  -15   12    6     -2.98      0.00
  -14   12    6      0.45      0.00
  -13   12    6     -2.03      0.00
  -12   12    6     -3.06      0.00
  -11   12    6      1.40      0.00
  -10   12    6     -2.87      0.00
   -9   12    6      1.17      0.00
   -8   12    6      5.94      0.00
   -7   12    6     -4.59      0.00
   -6   12    6      1.23      0.00
   -5   12    6      4.37      0.00
   -4   12    6     -0.35      0.00
   -3   12    6      0.19      0.00
   -2   12    6      1.96      0.00
   -1   12    6      3.41      0.00
    0   12    6     -1.96      0.00
    1   12    6     -1.58      0.00
    2   12    6      4.21      0.00
    3   12    6     -1.78      0.00
    4   12    6     -0.65      0.00
    5   12    6     -1.54      0.00
    6   12    6      2.55      0.00
  -21   13    6     -1.14      0.00
  -20   13    6     -0.73      0.00
  -19   13    6      0.10      0.00
  -18   13    6      2.91      0.00
  -17   13    6      0.02      0.00
  -16   13    6     -0.49      0.00
  -15   13    6     -0.96      0.00
  -14   13    6     -0.03      0.00
  -13   13    6      2.86      0.00
  -12   13    6     -1.18      0.00
  -11   13    6     -3.18      0.00
  -10   13    6      2.52      0.00
   -9   13    6     -1.05      0.00
   -8   13    6     -5.64      0.00
   -7   13    6      3.82      0.00
   -6   13    6     -1.41      0.00
   -5   13    6     -2.60      0.00
   -4   13    6     -0.79      0.00
   -3   13    6      1.24      0.00
   -2   13    6     -0.32      0.00
   -1   13    6     -5.22      0.00
    0   13    6      1.13      0.00
    1   13    6      4.24      0.00
    2   13    6     -2.53      0.00
    3   13    6     -2.96      0.00
    4   13    6     -1.83      0.00
    5   13    6      2.01      0.00
  -21   14    6     -1.65      0.00
  -20   14    6      4.69      0.00
  -19   14    6      0.83      0.00
  -18   14    6     -4.84      0.00
  -17   14    6     -0.46      0.00
  -16   14    6      1.98      0.00
  -15   14    6      1.78      0.00
  -14   14    6     -0.89      0.00
  -13   14    6     -1.26      0.00
  -12   14    6      4.70      0.00
  -11   14    6      1.41      0.00
  -10   14    6     -2.64      0.00
   -9   14    6      0.00      0.00
   -8   14    6      0.86      0.00
   -7   14    6     -1.36      0.00
   -6   14    6      3.27      0.00
   -5   14    6     -0.13      0.00
   -4   14    6      0.70      0.00
   -3   14    6     -0.54      0.00
   -2   14    6     -1.03      0.00
   -1   14    6      2.81      0.00
    0   14    6     -0.19      0.00
    1   14    6     -3.69      0.00
    2   14    6      4.62      0.00
    3   14    6      4.26      0.00
    4   14    6      1.39      0.00
  -21   15    6     -0.22      0.00
  -20   15    6     -4.93      0.00
  -19   15    6      1.52      0.00
  -18   15    6      3.25      0.00
  -17   15    6     -2.78      0.00
  -16   15    6     -1.00      0.00
  -15   15    6      2.36      0.00
  -14   15    6     -0.09      0.00
  -13   15    6      0.96      0.00
  -12   15    6     -3.04      0.00
  -11   15    6      1.04      0.00
  -10   15    6      1.78      0.00
   -9   15    6     -1.38      0.00
   -8   15    6      1.91      0.00
   -7   15    6      0.43      0.00
   -6   15    6     -4.15      0.00
   -5   15    6      3.55      0.00
   -4   15    6     -0.70      0.00
   -3   15    6     -0.38      0.00
   -2   15    6      1.07      0.00
   -1   15    6     -1.99      0.00
    0   15    6      1.45      0.00
    1   15    6     -1.75      0.00
    2   15    6     -5.23      0.00
    3   15    6      1.27      0.00
  -20   16    6      1.25      0.00
  -19   16    6     -0.60      0.00
  -18   16    6      0.93      0.00
  -17   16    6      0.43      0.00
  -16   16    6     -4.10      0.00
  -15   16    6     -3.86      0.00
  -14   16    6      1.76      0.00
  -13   16    6      0.77      0.00
  -12   16    6      0.64      0.00
  -11   16    6     -3.02      0.00
  -10   16    6     -0.36      0.00
   -9   16    6      1.82      0.00
   -8   16    6     -0.64      0.00
   -7   16    6     -0.26      0.00
   -6   16    6      1.79      0.00
   -5   16    6     -3.90      0.00
   -4   16    6      0.05      0.00
   -3   16    6     -0.96      0.00
   -2   16    6      0.70      0.00
   -1   16    6      2.59      0.00
    0   16    6     -0.29      0.00
    1   16    6      5.72      0.00
    2   16    6      2.39      0.00
  -20   17    6     -0.68      0.00
  -19   17    6     -1.13      0.00
  -18   17    6      1.16      0.00
  -17   17    6      4.45      0.00
  -16   17    6      0.68      0.00
  -15   17    6      1.07      0.00
  -14   17    6     -1.15      0.00
  -13   17    6     -1.47      0.00
  -12   17    6      1.27      0.00
  -11   17    6      1.66      0.00
  -10   17    6      0.40      0.00
   -9   17    6     -0.48      0.00
   -8   17    6     -2.19      0.00
   -7   17    6      2.43      0.00
   -6   17    6      1.01      0.00
   -5   17    6      0.18      0.00
   -4   17    6      1.96      0.00
   -3   17    6      1.36      0.00
   -2   17    6     -1.76      0.00
   -1   17    6     -5.41      0.00
    0   17    6     -3.47      0.00
    1   17    6     -3.07      0.00
  -19   18    6     -3.66      0.00
  -18   18    6     -2.16      0.00
  -17   18    6      2.91      0.00
  -16   18    6      5.22      0.00
  -15   18    6     -3.91      0.00
  -14   18    6     -0.18      0.00
  -13   18    6      0.97      0.00
  -12   18    6     -2.34      0.00
  -11   18    6      2.44      0.00
  -10   18    6     -0.44      0.00
   -9   18    6     -2.19      0.00
   -8   18    6      0.44      0.00
   -7   18    6     -2.81      0.00
   -6   18    6      0.39      0.00
   -5   18    6      2.14      0.00
   -4   18    6     -1.75      0.00
   -3   18    6      1.38      0.00
   -2   18    6      1.74      0.00
   -1   18    6      4.98      0.00
  -18   19    6     -3.94      0.00
  -17   19    6     -5.30      0.00
  -16   19    6      1.34      0.00
  -15   19    6      2.75      0.00
  -14   19    6     -3.36      0.00
  -13   19    6     -0.50      0.00
  -12   19    6      1.61      0.00
  -11   19    6     -4.06      0.00
  -10   19    6      2.03      0.00
   -9   19    6      4.55      0.00
   -8   19    6      1.39      0.00
   -7   19    6     -0.19      0.00
   -6   19    6     -2.46      0.00
   -5   19    6     -2.77      0.00
   -4   19    6     -0.14      0.00
   -3   19    6     -2.29      0.00
  -17   20    6     -2.00      0.00
  -16   20    6     -0.87      0.00
  -15   20    6      3.87      0.00
  -14   20    6      1.80      0.00
  -13   20    6      0.42      0.00
  -12   20    6     -0.09      0.00
  -11   20    6      0.77      0.00
  -10   20    6     -1.16      0.00
   -9   20    6     -1.78      0.00
   -8   20    6     -3.85      0.00
   -7   20    6      1.69      0.00
   -6   20    6      3.95      0.00
   -5   20    6      0.46      0.00
  -15   21    6     -1.31      0.00
  -14   21    6      1.14      0.00
  -13   21    6     -0.98      0.00
  -12   21    6      0.50      0.00
  -11   21    6      0.17      0.00
  -10   21    6     -0.60      0.00
   -9   21    6      0.47      0.00
   -8   21    6      4.36      0.00
    7  -22    7      2.02      0.00
    8  -22    7      1.40      0.00
    9  -22    7     -2.85      0.00
    3  -21    7      3.40      0.00
    4  -21    7      2.50      0.00
    5  -21    7     -2.18      0.00
    6  -21    7      1.56      0.00
    7  -21    7     -0.08      0.00
    8  -21    7      2.15      0.00
    9  -21    7      0.32      0.00
   10  -21    7      0.21      0.00
   11  -21    7      1.19      0.00
   12  -21    7      2.03      0.00
    0  -20    7      3.04      0.00
    1  -20    7      4.53      0.00
    2  -20    7     -1.00      0.00
    3  -20    7     -3.31      0.00
    4  -20    7      0.91      0.00
    5  -20    7      3.51      0.00
    6  -20    7     -2.31      0.00
    7  -20    7     -2.61      0.00
    8  -20    7     -0.13      0.00
    9  -20    7      1.43      0.00
   10  -20    7      0.36      0.00
   11  -20    7     -0.95      0.00
   12  -20    7     -1.03      0.00
   13  -20    7      1.87      0.00
   14  -20    7     -4.47      0.00
   -2  -19    7     -0.37      0.00
   -1  -19    7     -3.16      0.00
    0  -19    7     -2.86      0.00
    1  -19    7     -2.52      0.00
    2  -19    7     -0.97      0.00
    3  -19    7     -0.73      0.00
    4  -19    7      0.56      0.00
    5  -19    7      0.77      0.00
    6  -19    7     -0.58      0.00
    7  -19    7     -1.83      0.00
    8  -19    7     -1.21      0.00
    9  -19    7      2.52      0.00
   10  -19    7      0.09      0.00
   11  -19    7     -0.38      0.00
   12  -19    7      3.69      0.00
   13  -19    7     -1.81      0.00
   14  -19    7     -1.05      0.00
   15  -19    7     -2.13      0.00
   -3  -18    7      4.34      0.00
   -2  -18    7     -0.74      0.00
   -1  -18    7      2.29      0.00
    0  -18    7      0.66      0.00
    1  -18    7      0.81      0.00
    2  -18    7      3.73      0.00
    3  -18    7     -1.42      0.00
    4  -18    7     -1.41      0.00
    5  -18    7      2.61      0.00
    6  -18    7      2.84      0.00
    7  -18    7      1.12      0.00
    8  -18    7     -0.21      0.00
    9  -18    7     -2.55      0.00
   10  -18    7     -2.17      0.00
   11  -18    7     -0.04      0.00
   12  -18    7     -2.06      0.00
   13  -18    7      2.87      0.00
   14  -18    7      4.60      0.00
   15  -18    7      1.46      0.00
   -5  -17    7      0.65      0.00
   -4  -17    7     -1.02      0.00
   -3  -17    7     -4.28      0.00
   -2  -17    7      2.25      0.00
   -1  -17    7     -2.09      0.00
    0  -17    7     -0.45      0.00
    1  -17    7      3.09      0.00
    2  -17    7     -0.91      0.00
    3  -17    7      3.51      0.00
    4  -17    7     -4.26      0.00
    5  -17    7     -6.02      0.00
    6  -17    7      0.96      0.00
    7  -17    7     -0.60      0.00
    8  -17    7      1.30      0.00
    9  -17    7      3.70      0.00
   10  -17    7      2.42      0.00
   11  -17    7     -3.87      0.00
   12  -17    7      0.39      0.00
   13  -17    7      1.22      0.00
   14  -17    7     -3.77      0.00
   15  -17    7      0.39      0.00
   16  -17    7      2.71      0.00
   -6  -16    7      0.68      0.00
   -5  -16    7      0.09      0.00
   -4  -16    7     -0.41      0.00
   -3  -16    7      2.93      0.00
   -2  -16    7     -1.40      0.00
   -1  -16    7      0.34      0.00
    0  -16    7     -0.99      0.00
    1  -16    7     -4.03      0.00
    2  -16    7      0.48      0.00
    3  -16    7     -2.32      0.00
    4  -16    7      4.30      0.00
    5  -16    7      1.17      0.00
    6  -16    7     -1.09      0.00
    7  -16    7      2.51      0.00
    8  -16    7     -4.00      0.00
    9  -16    7     -0.39      0.00
   10  -16    7     -0.27      0.00
   11  -16    7      0.91      0.00
   12  -16    7     -2.96      0.00
   13  -16    7     -0.80      0.00
   14  -16    7      3.06      0.00
   15  -16    7     -2.12      0.00
   16  -16    7     -1.34      0.00
   -7  -15    7      0.40      0.00
   -6  -15    7      1.26      0.00
   -5  -15    7      0.42      0.00
   -4  -15    7     -2.49      0.00
   -3  -15    7     -1.80      0.00
   -2  -15    7      1.68      0.00
   -1  -15    7      1.76      0.00
    0  -15    7      1.39      0.00
    1  -15    7      3.35      0.00
    2  -15    7     -1.68      0.00
    3  -15    7      0.77      0.00
    4  -15    7     -0.18      0.00
    5  -15    7      4.84      0.00
    6  -15    7     -1.55      0.00
    7  -15    7     -4.20      0.00
    8  -15    7      4.85      0.00
    9  -15    7     -2.83      0.00
   10  -15    7      1.01      0.00
   11  -15    7      1.83      0.00
   12  -15    7      2.33      0.00
   13  -15    7     -1.47      0.00
   14  -15    7     -0.84      0.00
   15  -15    7      3.41      0.00
   16  -15    7      2.91      0.00
   17  -15    7      7.94      0.00
   -8  -14    7      4.43      0.00
   -7  -14    7      0.04      0.00
   -6  -14    7     -1.27      0.00
   -5  -14    7     -0.74      0.00
   -4  -14    7      5.79      0.00
   -3  -14    7     -0.26      0.00
   -2  -14    7     -2.86      0.00
   -1  -14    7      0.16      0.00
    0  -14    7      0.18      0.00
    1  -14    7     -5.64      0.00
    2  -14    7      0.92      0.00
    3  -14    7     -0.01      0.00
    4  -14    7     -0.70      0.00
    5  -14    7     -4.04      0.00
    6  -14    7      3.99      0.00
    7  -14    7      3.72      0.00
    8  -14    7     -6.68      0.00
    9  -14    7      3.40      0.00
   10  -14    7      1.50      0.00
   11  -14    7     -1.12      0.00
   12  -14    7     -3.04      0.00
   13  -14    7      1.62      0.00
   14  -14    7     -0.78      0.00
   15  -14    7     -5.40      0.00
   16  -14    7     -1.78      0.00
   17  -14    7     -4.53      0.00
   -9  -13    7     -0.29      0.00
   -8  -13    7     -4.93      0.00
   -7  -13    7     -0.42      0.00
   -6  -13    7     -0.21      0.00
   -5  -13    7     -0.03      0.00
   -4  -13    7     -5.76      0.00
   -3  -13    7      2.13      0.00
   -2  -13    7      2.05      0.00
   -1  -13    7     -1.82      0.00
    0  -13    7     -1.75      0.00
    1  -13    7      7.79      0.00
    2  -13    7     -0.42      0.00
    3  -13    7     -2.35      0.00
    4  -13    7     -3.03      0.00
    5  -13    7      1.00      0.00
    6  -13    7     -0.18      0.00
    7  -13    7     -2.25      0.00
    8  -13    7      2.42      0.00
    9  -13    7     -3.85      0.00
   10  -13    7      0.64      0.00
   11  -13    7      0.00      0.00
   12  -13    7      2.93      0.00
   13  -13    7     -0.11      0.00
   14  -13    7      0.06      0.00
   15  -13    7      4.37      0.00
   16  -13    7     -1.38      0.00
   17  -13    7      1.95      0.00
  -10  -12    7      0.94      0.00
   -9  -12    7     -2.29      0.00
   -8  -12    7      5.56      0.00
   -7  -12    7     -0.83      0.00
   -6  -12    7      0.21      0.00
   -5  -12    7      1.51      0.00
   -4  -12    7      4.27      0.00
   -3  -12    7     -1.72      0.00
   -2  -12    7      0.73      0.00
   -1  -12    7     -0.73      0.00
    0  -12    7      0.29      0.00
    1  -12    7     -5.66      0.00
    2  -12    7      5.10      0.00
    3  -12    7      4.13      0.00
    4  -12    7      2.87      0.00
    5  -12    7     -1.40      0.00
    6  -12    7     -2.99      0.00
    7  -12    7      2.44      0.00
    8  -12    7      1.63      0.00
    9  -12    7      2.83      0.00
   10  -12    7     -2.74      0.00
   11  -12    7      1.94      0.00
   12  -12    7     -3.27      0.00
   13  -12    7     -0.81      0.00
   14  -12    7      0.47      0.00
   15  -12    7     -3.00      0.00
   16  -12    7      1.09      0.00
   17  -12    7      0.43      0.00
  -11  -11    7     -2.92      0.00
  -10  -11    7     -3.83      0.00
   -9  -11    7      4.28      0.00
   -8  -11    7     -3.37      0.00
   -7  -11    7     -1.04      0.00
   -6  -11    7      0.44      0.00
   -5  -11    7      2.25      0.00
   -4  -11    7     -6.32      0.00
   -3  -11    7      1.30      0.00
   -2  -11    7      1.13      0.00
   -1  -11    7      2.33      0.00
    0  -11    7     -1.09      0.00
    1  -11    7     -0.03      0.00
    2  -11    7     -5.58      0.00
    3  -11    7     -0.85      0.00
    4  -11    7      0.82      0.00
    5  -11    7     -0.65      0.00
    6  -11    7      1.98      0.00
    7  -11    7     -1.43      0.00
    8  -11    7     -2.56      0.00
    9  -11    7     -1.75      0.00
   10  -11    7      3.92      0.00
   11  -11    7     -0.34      0.00
   12  -11    7      2.77      0.00
   13  -11    7     -0.34      0.00
   14  -11    7      0.58      0.00
   15  -11    7      1.19      0.00
   16  -11    7     -0.16      0.00
   17  -11    7     -2.04      0.00
  -12  -10    7     -2.20      0.00
  -11  -10    7      1.35      0.00
  -10  -10    7      6.17      0.00
   -9  -10    7     -8.63      0.00
   -8  -10    7      2.95      0.00
   -7  -10    7      3.44      0.00
   -6  -10    7     -2.03      0.00
   -5  -10    7     -5.69      0.00
   -4  -10    7      8.95      0.00
   -3  -10    7     -3.40      0.00
   -2  -10    7     -1.88      0.00
   -1  -10    7     -2.96      0.00
    0  -10    7      0.19      0.00
    1  -10    7      3.99      0.00
    2  -10    7      3.06      0.00
    3  -10    7      0.88      0.00
    4  -10    7     -5.76      0.00
    5  -10    7      0.97      0.00
    6  -10    7      0.27      0.00
    7  -10    7      3.30      0.00
    8  -10    7     -1.16      0.00
    9  -10    7     -2.10      0.00
   10  -10    7     -3.77      0.00
   11  -10    7     -0.61      0.00
   12  -10    7     -1.49      0.00
   13  -10    7      0.97      0.00
   14  -10    7      0.50      0.00
   15  -10    7      0.63      0.00
   16  -10    7     -1.24      0.00
   17  -10    7     -1.13      0.00
  -13   -9    7     -1.77      0.00
  -12   -9    7     -0.32      0.00
  -11   -9    7      1.02      0.00
  -10   -9    7     -1.04      0.00
   -9   -9    7      6.75      0.00
   -8   -9    7     -4.33      0.00
   -7   -9    7      2.30      0.00
   -6   -9    7     -2.67      0.00
   -5   -9    7      5.74      0.00
   -4   -9    7     -5.82      0.00
   -3   -9    7      0.43      0.00
   -2   -9    7      1.20      0.00
   -1   -9    7      7.44      0.00
    0   -9    7      1.74      0.00
    1   -9    7     -9.09      0.00
    2   -9    7      0.13      0.00
    3   -9    7      0.44      0.00
    4   -9    7      6.47      0.00
    5   -9    7     -1.05      0.00
    6   -9    7      0.36      0.00
    7   -9    7     -3.10      0.00
    8   -9    7      6.32      0.00
    9   -9    7      1.01      0.00
   10   -9    7      1.64      0.00
   11   -9    7     -0.18      0.00
   12   -9    7      1.34      0.00
   13   -9    7      0.98      0.00
   14   -9    7     -0.36      0.00
   15   -9    7     -0.63      0.00
   16   -9    7      3.77      0.00
   17   -9    7      4.54      0.00
  -14   -8    7     -0.16      0.00
  -13   -8    7      2.70      0.00
  -12   -8    7      0.86      0.00
  -11   -8    7     -6.63      0.00
  -10   -8    7      2.07      0.00
   -9   -8    7      0.27      0.00
   -8   -8    7      0.44      0.00
   -7   -8    7     -5.48      0.00
   -6   -8    7     10.85      0.00
   -5   -8    7     -8.57      0.00
   -4   -8    7      2.52      0.00
   -3   -8    7     -2.88      0.00
   -2   -8    7      0.35      0.00
   -1   -8    7      1.08      0.00
    0   -8    7     -2.82      0.00
    1   -8    7      4.18      0.00
    2   -8    7     -9.07      0.00
    3   -8    7      1.72      0.00
    4   -8    7     -0.13      0.00
    5   -8    7     -0.10      0.00
    6   -8    7     -2.64      0.00
    7   -8    7      5.59      0.00
    8   -8    7     -7.93      0.00
    9   -8    7     -0.89      0.00
   10   -8    7      0.56      0.00
   11   -8    7      1.20      0.00
   12   -8    7     -4.69      0.00
   13   -8    7     -1.04      0.00
   14   -8    7     -1.86      0.00
   15   -8    7     -1.11      0.00
   16   -8    7     -1.47      0.00
   17   -8    7     -1.19      0.00
  -15   -7    7      0.30      0.00
  -14   -7    7      2.08      0.00
  -13   -7    7     -0.27      0.00
  -12   -7    7     -0.20      0.00
  -11   -7    7      3.70      0.00
  -10   -7    7     -6.58      0.00
   -9   -7    7      0.46      0.00
   -8   -7    7     -0.25      0.00
   -7   -7    7      5.62      0.00
   -6   -7    7    -10.60      0.00
   -5   -7    7      8.65      0.00
   -4   -7    7      1.81      0.00
   -3   -7    7      6.34      0.00
   -2   -7    7    -11.79      0.00
   -1   -7    7     -4.86      0.00
    0   -7    7     11.62      0.00
    1   -7    7      2.34      0.00
    2   -7    7      9.49      0.00
    3   -7    7    -10.58      0.00
    4   -7    7     -0.42      0.00
    5   -7    7     -0.60      0.00
    6   -7    7      1.59      0.00
    7   -7    7     -5.72      0.00
    8   -7    7      9.65      0.00
    9   -7    7     -0.54      0.00
   10   -7    7     -2.86      0.00
   11   -7    7      0.54      0.00
   12   -7    7      7.66      0.00
   13   -7    7     -1.63      0.00
   14   -7    7      1.28      0.00
   15   -7    7     -0.60      0.00
   16   -7    7     -2.26      0.00
   17   -7    7      0.43      0.00
  -15   -6    7      0.25      0.00
  -14   -6    7     -3.44      0.00
  -13   -6    7     -1.15      0.00
  -12   -6    7      4.87      0.00
  -11   -6    7     -0.43      0.00
  -10   -6    7      1.87      0.00
   -9   -6    7     -1.57      0.00
   -8   -6    7      6.75      0.00
   -7   -6    7    -11.25      0.00
   -6   -6    7      4.76      0.00
   -5   -6    7     -7.25      0.00
   -4   -6    7      0.58      0.00
   -3   -6    7      1.04      0.00
   -2   -6    7      6.44      0.00
   -1   -6    7     -2.84      0.00
    0   -6    7     -9.08      0.00
    1   -6    7     -0.60      0.00
    2   -6    7     -6.34      0.00
    3   -6    7     19.98      0.00
    4   -6    7     -1.86      0.00
    5   -6    7     -1.32      0.00
    6   -6    7     -4.21      0.00
    7   -6    7      3.32      0.00
    8   -6    7     -5.57      0.00
    9   -6    7      3.71      0.00
   10   -6    7      0.77      0.00
   11   -6    7     -1.45      0.00
   12   -6    7     -6.16      0.00
   13   -6    7      3.40      0.00
   14   -6    7      2.52      0.00
   15   -6    7     -0.78      0.00
   16   -6    7     -1.32      0.00
  -16   -5    7      3.30      0.00
  -15   -5    7     -2.57      0.00
  -14   -5    7      0.23      0.00
  -13   -5    7      4.58      0.00
  -12   -5    7     -4.99      0.00
  -11   -5    7      2.00      0.00
  -10   -5    7      1.09      0.00
   -9   -5    7      1.40      0.00
   -8   -5    7     -9.76      0.00
   -7   -5    7     11.14      0.00
   -6   -5    7      1.33      0.00
   -5   -5    7      8.47      0.00
   -4   -5    7    -10.33      0.00
   -3   -5    7      1.05      0.00
   -2   -5    7     10.68      0.00
   -1   -5    7     -6.70      0.00
    0   -5    7     -0.87      0.00
    1   -5    7      0.06      0.00
    2   -5    7      6.78      0.00
    3   -5    7    -21.72      0.00
    4   -5    7      7.29      0.00
    5   -5    7      3.89      0.00
    6   -5    7      2.66      0.00
    7   -5    7     -4.55      0.00
    8   -5    7      4.28      0.00
    9   -5    7     -0.39      0.00
   10   -5    7      0.58      0.00
   11   -5    7     -0.58      0.00
   12   -5    7      1.83      0.00
   13   -5    7     -2.12      0.00
   14   -5    7      1.04      0.00
   15   -5    7      2.02      0.00
   16   -5    7      1.48      0.00
  -16   -4    7      0.07      0.00
  -15   -4    7      0.63      0.00
  -14   -4    7     -0.08      0.00
  -13   -4    7     -4.82      0.00
  -12   -4    7      0.99      0.00
  -11   -4    7     -0.50      0.00
  -10   -4    7      2.11      0.00
   -9   -4    7     -8.31      0.00
   -8   -4    7      5.95      0.00
   -7   -4    7      1.13      0.00
   -6   -4    7     -3.17      0.00
   -5   -4    7    -12.32      0.00
   -4   -4    7     12.17      0.00
   -3   -4    7     -3.46      0.00
   -2   -4    7    -18.89      0.00
   -1   -4    7     13.98      0.00
    0   -4    7     11.94      0.00
    1   -4    7      1.33      0.00
    2   -4    7    -16.22      0.00
    3   -4    7     13.58      0.00
    4   -4    7     -4.79      0.00
    5   -4    7      0.83      0.00
    6   -4    7     -5.32      0.00
    7   -4    7      3.47      0.00
    8   -4    7     -5.87      0.00
    9   -4    7     -2.21      0.00
   10   -4    7      0.84      0.00
   11   -4    7      1.91      0.00
   12   -4    7     -2.76      0.00
   13   -4    7     -0.50      0.00
   14   -4    7     -1.69      0.00
   15   -4    7      0.89      0.00
   16   -4    7     -3.37      0.00
  -17   -3    7      0.51      0.00
  -16   -3    7      0.07      0.00
  -15   -3    7      3.18      0.00
  -14   -3    7     -3.61      0.00
  -13   -3    7      2.46      0.00
  -12   -3    7      2.84      0.00
  -11   -3    7     -1.63      0.00
  -10   -3    7     -3.98      0.00
   -9   -3    7     13.52      0.00
   -8   -3    7     -3.27      0.00
   -7   -3    7    -11.47      0.00
   -6   -3    7     -0.43      0.00
   -5   -3    7     17.91      0.00
   -4   -3    7     -4.98      0.00
   -3   -3    7     -2.74      0.00
   -1   -3    7    -13.02      0.00
    0   -3    7    -12.39      0.00
    1   -3    7     -1.23      0.00
    2   -3    7     19.84      0.00
    3   -3    7    -10.58      0.00
    4   -3    7     -1.52      0.00
    5   -3    7      0.62      0.00
    6   -3    7     14.22      0.00
    7   -3    7     -5.20      0.00
    8   -3    7      0.72      0.00
    9   -3    7      2.27      0.00
   10   -3    7      2.16      0.00
   11   -3    7     -1.31      0.00
   12   -3    7      4.04      0.00
   13   -3    7     -0.99      0.00
   14   -3    7      0.75      0.00
   15   -3    7      1.99      0.00
  -18   -2    7      0.37      0.00
  -17   -2    7     -1.88      0.00
  -16   -2    7     -2.22      0.00
  -15   -2    7      1.33      0.00
  -14   -2    7      3.50      0.00
  -13   -2    7     -4.07      0.00
  -12   -2    7     -1.24      0.00
  -11   -2    7     -2.81      0.00
  -10   -2    7      5.25      0.00
   -9   -2    7     -4.51      0.00
   -8   -2    7      0.80      0.00
   -7   -2    7      7.29      0.00
   -6   -2    7      6.84      0.00
   -5   -2    7    -20.91      0.00
   -4   -2    7     -4.13      0.00
   -3   -2    7     11.05      0.00
   -2   -2    7     -5.79      0.00
   -1   -2    7      3.08      0.00
    0   -2    7     -3.72      0.00
    1   -2    7     20.22      0.00
    2   -2    7    -13.68      0.00
    3   -2    7     -2.31      0.00
    4   -2    7     -0.27      0.00
    5   -2    7      1.89      0.00
    6   -2    7    -14.90      0.00
    7   -2    7      9.24      0.00
    8   -2    7      3.83      0.00
    9   -2    7     -6.34      0.00
   10   -2    7     -4.80      0.00
   11   -2    7      2.39      0.00
   12   -2    7     -1.91      0.00
   13   -2    7     -1.06      0.00
   14   -2    7     -2.25      0.00
   15   -2    7     -1.14      0.00
  -18   -1    7     -2.64      0.00
  -17   -1    7      2.62      0.00
  -16   -1    7      3.10      0.00
  -15   -1    7     -0.29      0.00
  -14   -1    7     -1.27      0.00
  -13   -1    7      0.80      0.00
  -12   -1    7     -1.30      0.00
  -11   -1    7      7.70      0.00
  -10   -1    7     -9.29      0.00
   -9   -1    7     -2.90      0.00
   -8   -1    7      6.77      0.00
   -7   -1    7      3.67      0.00
   -6   -1    7    -11.40      0.00
   -5   -1    7      9.17      0.00
   -4   -1    7      3.77      0.00
   -3   -1    7    -10.57      0.00
   -2   -1    7      1.85      0.00
   -1   -1    7      0.91      0.00
    0   -1    7      6.23      0.00
    1   -1    7    -33.74      0.00
    2   -1    7     17.06      0.00
    3   -1    7     16.83      0.00
    4   -1    7     -1.75      0.00
    5   -1    7    -12.37      0.00
    6   -1    7     11.81      0.00
    7   -1    7     -6.43      0.00
    8   -1    7     -2.04      0.00
    9   -1    7      6.01      0.00
   10   -1    7      2.07      0.00
   11   -1    7      0.02      0.00
   12   -1    7      1.10      0.00
   13   -1    7      1.92      0.00
   14   -1    7      0.87      0.00
   15   -1    7     -0.50      0.00
  -19    0    7      2.75      0.00
  -18    0    7      2.00      0.00
  -17    0    7     -4.96      0.00
  -16    0    7     -1.56      0.00
  -15    0    7     -2.86      0.00
  -14    0    7      3.18      0.00
  -13    0    7     -0.57      0.00
  -12    0    7      4.15      0.00
  -11    0    7     -4.29      0.00
  -10    0    7      4.47      0.00
   -9    0    7     -0.47      0.00
   -8    0    7     -8.76      0.00
   -7    0    7     -9.02      0.00
   -6    0    7     14.31      0.00
   -5    0    7      9.84      0.00
   -4    0    7     -3.54      0.00
   -3    0    7      0.62      0.00
   -2    0    7      1.98      0.00
   -1    0    7     10.18      0.00
    0    0    7    -13.22      0.00
    1    0    7     19.04      0.00
    2    0    7    -12.26      0.00
    3    0    7    -12.51      0.00
    4    0    7      4.20      0.00
    5    0    7     14.65      0.00
    6    0    7    -11.18      0.00
    7    0    7      0.28      0.00
    8    0    7      2.20      0.00
    9    0    7     -0.83      0.00
   10    0    7     -1.81      0.00
   11    0    7     -1.70      0.00
   12    0    7      0.11      0.00
   13    0    7     -2.49      0.00
   14    0    7      0.04      0.00
  -19    1    7     -1.27      0.00
  -18    1    7      1.17      0.00
  -17    1    7      2.17      0.00
  -16    1    7     -2.53      0.00
  -15    1    7      3.34      0.00
  -14    1    7     -0.10      0.00
  -13    1    7      0.99      0.00
  -12    1    7     -7.82      0.00
  -11    1    7      4.51      0.00
  -10    1    7      3.77      0.00
   -9    1    7      2.30      0.00
   -8    1    7      2.75      0.00
   -7    1    7      2.15      0.00
   -6    1    7     -9.09      0.00
   -5    1    7     -9.62      0.00
   -4    1    7      3.67      0.00
   -3    1    7      0.23      0.00
   -2    1    7     -6.02      0.00
   -1    1    7     -8.83      0.00
    0    1    7     20.64      0.00
    1    1    7     -8.10      0.00
    2    1    7      1.74      0.00
    3    1    7      1.25      0.00
    4    1    7      1.60      0.00
    5    1    7     -7.35      0.00
    6    1    7      7.25      0.00
    7    1    7     -0.74      0.00
    8    1    7     -0.91      0.00
    9    1    7     -0.08      0.00
   10    1    7      0.51      0.00
   11    1    7      1.07      0.00
   12    1    7      0.01      0.00
   13    1    7      3.27      0.00
   14    1    7     -0.98      0.00
  -19    2    7      1.05      0.00
  -18    2    7      0.20      0.00
  -17    2    7     -0.19      0.00
  -16    2    7      0.64      0.00
  -15    2    7     -2.42      0.00
  -14    2    7      0.78      0.00
  -13    2    7      1.20      0.00
  -12    2    7      1.61      0.00
  -11    2    7     -6.39      0.00
  -10    2    7     -0.15      0.00
   -9    2    7     -4.11      0.00
   -8    2    7      1.71      0.00
   -7    2    7      4.07      0.00
   -6    2    7     -1.25      0.00
   -5    2    7      1.61      0.00
   -4    2    7     -2.09      0.00
   -3    2    7      4.80      0.00
   -2    2    7     -3.57      0.00
   -1    2    7      2.47      0.00
    0    2    7     -9.46      0.00
    1    2    7      7.31      0.00
    2    2    7     -1.27      0.00
    3    2    7      2.23      0.00
    4    2    7     -6.54      0.00
    5    2    7      2.19      0.00
    6    2    7     -3.31      0.00
    7    2    7      2.10      0.00
    8    2    7     -1.44      0.00
    9    2    7     -0.35      0.00
   10    2    7      1.70      0.00
   11    2    7     -2.12      0.00
   12    2    7      0.54      0.00
   13    2    7     -2.74      0.00
  -20    3    7     -2.35      0.00
  -19    3    7     -4.12      0.00
  -18    3    7     -0.36      0.00
  -17    3    7      1.66      0.00
  -16    3    7      0.30      0.00
  -15    3    7     -2.17      0.00
  -14    3    7     -2.32      0.00
  -13    3    7      2.67      0.00
  -12    3    7      4.77      0.00
  -11    3    7      4.09      0.00
  -10    3    7     -6.89      0.00
   -9    3    7      6.25      0.00
   -8    3    7      1.20      0.00
   -7    3    7     -4.59      0.00
   -6    3    7     -0.70      0.00
   -5    3    7      5.99      0.00
   -4    3    7      5.54      0.00
   -3    3    7    -14.09      0.00
   -2    3    7     15.19      0.00
   -1    3    7     -0.49      0.00
    0    3    7     -1.39      0.00
    1    3    7     -6.86      0.00
    2    3    7      6.81      0.00
    3    3    7     -3.52      0.00
    4    3    7      2.79      0.00
    5    3    7      2.23      0.00
    6    3    7      4.43      0.00
    7    3    7     -2.14      0.00
    8    3    7     -0.87      0.00
    9    3    7      2.33      0.00
   10    3    7     -2.13      0.00
   11    3    7      2.61      0.00
   12    3    7      1.39      0.00
   13    3    7      2.13      0.00
  -20    4    7      3.77      0.00
  -19    4    7      2.84      0.00
  -18    4    7     -0.09      0.00
  -17    4    7      0.81      0.00
  -16    4    7      2.54      0.00
  -15    4    7      1.50      0.00
  -14    4    7     -0.32      0.00
  -13    4    7     -4.47      0.00
  -12    4    7     -4.99      0.00
  -11    4    7     -4.60      0.00
  -10    4    7      8.17      0.00
   -9    4    7     -1.86      0.00
   -8    4    7     -1.12      0.00
   -7    4    7      7.64      0.00
   -6    4    7      1.63      0.00
   -5    4    7    -10.91      0.00
   -4    4    7     -8.66      0.00
   -3    4    7     18.23      0.00
   -2    4    7    -14.13      0.00
   -1    4    7     -1.16      0.00
    0    4    7     -1.61      0.00
    1    4    7      5.40      0.00
    2    4    7     -2.67      0.00
    3    4    7      2.94      0.00
    4    4    7     -2.84      0.00
    5    4    7     -0.62      0.00
    6    4    7     -4.84      0.00
    7    4    7     -0.65      0.00
    8    4    7      2.96      0.00
    9    4    7     -1.95      0.00
   10    4    7      0.32      0.00
   11    4    7     -4.18      0.00
   12    4    7     -1.53      0.00
  -20    5    7     -3.87      0.00
  -19    5    7      0.37      0.00
  -18    5    7     -1.35      0.00
  -17    5    7     -2.14      0.00
  -16    5    7     -2.00      0.00
  -15    5    7      1.95      0.00
  -14    5    7      0.59      0.00
  -13    5    7      2.80      0.00
  -12    5    7      2.07      0.00
  -11    5    7      5.14      0.00
  -10    5    7     -7.17      0.00
   -9    5    7     -8.71      0.00
   -8    5    7     -1.44      0.00
   -7    5    7     -1.81      0.00
   -6    5    7      0.20      0.00
   -5    5    7      2.42      0.00
   -4    5    7     15.26      0.00
   -3    5    7    -13.50      0.00
   -2    5    7      3.11      0.00
   -1    5    7      2.45      0.00
    0    5    7      6.92      0.00
    1    5    7     -6.72      0.00
    2    5    7     -4.57      0.00
    3    5    7      5.52      0.00
    4    5    7      2.64      0.00
    5    5    7     -5.99      0.00
    6    5    7      7.31      0.00
    7    5    7      3.86      0.00
    8    5    7     -6.49      0.00
    9    5    7     -1.16      0.00
   10    5    7      5.13      0.00
   11    5    7      4.08      0.00
  -21    6    7      0.20      0.00
  -20    6    7      2.58      0.00
  -19    6    7     -1.13      0.00
  -18    6    7      2.01      0.00
  -17    6    7      0.80      0.00
  -16    6    7      0.19      0.00
  -15    6    7     -2.04      0.00
  -14    6    7     -2.22      0.00
  -13    6    7      0.23      0.00
  -12    6    7      4.14      0.00
  -11    6    7     -2.70      0.00
  -10    6    7      7.88      0.00
   -9    6    7     11.24      0.00
   -8    6    7     -2.11      0.00
   -7    6    7     -5.72      0.00
   -6    6    7      4.05      0.00
   -5    6    7      7.14      0.00
   -4    6    7    -19.84      0.00
   -3    6    7      5.76      0.00
   -2    6    7      6.15      0.00
   -1    6    7      4.83      0.00
    0    6    7     -9.05      0.00
    1    6    7      2.64      0.00
    2    6    7      4.26      0.00
    3    6    7     -7.45      0.00
    4    6    7     -2.81      0.00
    5    6    7      6.14      0.00
    6    6    7     -4.32      0.00
    7    6    7     -3.97      0.00
    8    6    7      7.42      0.00
    9    6    7     -0.24      0.00
   10    6    7     -7.28      0.00
   11    6    7     -1.22      0.00
  -21    7    7     -1.33      0.00
  -20    7    7     -0.95      0.00
  -19    7    7      0.77      0.00
  -18    7    7     -3.34      0.00
  -17    7    7      0.38      0.00
  -16    7    7      1.39      0.00
  -15    7    7      1.80      0.00
  -14    7    7      3.39      0.00
  -13    7    7     -3.40      0.00
  -12    7    7     -7.65      0.00
  -11    7    7      0.13      0.00
  -10    7    7     -4.83      0.00
   -9    7    7     -5.68      0.00
   -8    7    7     -0.63      0.00
   -7    7    7      4.66      0.00
   -6    7    7     -0.18      0.00
   -5    7    7     -8.94      0.00
   -4    7    7     14.02      0.00
   -3    7    7     -0.86      0.00
   -2    7    7     -9.42      0.00
   -1    7    7    -10.46      0.00
    0    7    7     10.05      0.00
    1    7    7      5.07      0.00
    2    7    7     -2.82      0.00
    3    7    7      1.64      0.00
    4    7    7      6.58      0.00
    5    7    7     -3.50      0.00
    6    7    7     -2.91      0.00
    7    7    7      6.19      0.00
    8    7    7     -1.21      0.00
    9    7    7      0.43      0.00
   10    7    7      3.02      0.00
  -21    8    7      1.45      0.00
  -20    8    7      0.37      0.00
  -19    8    7      1.24      0.00
  -18    8    7      3.25      0.00
  -17    8    7     -1.74      0.00
  -16    8    7     -1.57      0.00
  -15    8    7     -3.93      0.00
  -14    8    7     -2.42      0.00
  -13    8    7      3.73      0.00
  -12    8    7      7.02      0.00
  -11    8    7      0.74      0.00
  -10    8    7      1.17      0.00
   -9    8    7      3.69      0.00
   -8    8    7      2.94      0.00
   -7    8    7     -3.29      0.00
   -6    8    7     -6.50      0.00
   -5    8    7      6.38      0.00
   -4    8    7     -1.51      0.00
   -3    8    7      1.14      0.00
   -2    8    7     -1.92      0.00
   -1    8    7      9.66      0.00
    0    8    7     -3.88      0.00
    1    8    7    -10.30      0.00
    2    8    7      4.34      0.00
    3    8    7      3.23      0.00
    4    8    7     -9.04      0.00
    5    8    7     -1.78      0.00
    6    8    7      5.76      0.00
    7    8    7     -7.01      0.00
    8    8    7     -4.28      0.00
    9    8    7      2.91      0.00
  -21    9    7      0.22      0.00
  -20    9    7     -1.54      0.00
  -19    9    7     -1.61      0.00
  -18    9    7      0.25      0.00
  -17    9    7      0.90      0.00
  -16    9    7      1.28      0.00
  -15    9    7      5.57      0.00
  -14    9    7      1.88      0.00
  -13    9    7     -2.66      0.00
  -12    9    7     -3.60      0.00
  -11    9    7     -1.54      0.00
  -10    9    7     -0.78      0.00
   -9    9    7     -0.21      0.00
   -8    9    7      1.54      0.00
   -7    9    7      0.53      0.00
   -6    9    7      4.87      0.00
   -5    9    7     -1.30      0.00
   -4    9    7     -5.24      0.00
   -3    9    7     -2.64      0.00
   -2    9    7     11.13      0.00
   -1    9    7     -6.09      0.00
    0    9    7     -2.75      0.00
    1    9    7      8.33      0.00
    2    9    7     -2.14      0.00
    3    9    7     -1.84      0.00
    4    9    7      4.66      0.00
    5    9    7      3.77      0.00
    6    9    7     -2.40      0.00
    7    9    7      4.25      0.00
    8    9    7      4.91      0.00
    9    9    7     -2.66      0.00
  -21   10    7     -2.17      0.00
  -20   10    7      2.16      0.00
  -19   10    7     -1.65      0.00
  -18   10    7     -2.30      0.00
  -17   10    7     -0.16      0.00
  -16   10    7     -1.65      0.00
  -15   10    7     -2.71      0.00
  -14   10    7     -2.39      0.00
  -13   10    7      0.70      0.00
  -12   10    7     -0.04      0.00
  -11   10    7      0.38      0.00
  -10   10    7     -1.17      0.00
   -9   10    7     -1.92      0.00
   -8   10    7     -1.46      0.00
   -7   10    7      0.83      0.00
   -6   10    7      0.16      0.00
   -5   10    7     -0.99      0.00
   -4   10    7      1.66      0.00
   -3   10    7      6.64      0.00
   -2   10    7     -7.45      0.00
   -1   10    7     -1.21      0.00
    0   10    7      5.90      0.00
    1   10    7     -4.11      0.00
    2   10    7     -3.85      0.00
    3   10    7      1.26      0.00
    4   10    7      2.78      0.00
    5   10    7     -4.78      0.00
    6   10    7     -2.89      0.00
    7   10    7      0.67      0.00
    8   10    7     -2.81      0.00
  -21   11    7      1.97      0.00
  -20   11    7     -0.33      0.00
  -19   11    7      2.71      0.00
  -18   11    7      1.66      0.00
  -17   11    7     -0.19      0.00
  -16   11    7      3.02      0.00
  -15   11    7      0.82      0.00
  -14   11    7      0.84      0.00
  -13   11    7      1.83      0.00
  -12   11    7      1.51      0.00
  -11   11    7      1.03      0.00
  -10   11    7      2.24      0.00
   -9   11    7     -1.05      0.00
   -8   11    7     -1.10      0.00
   -7   11    7      0.50      0.00
   -6   11    7     -4.72      0.00
   -5   11    7     -0.52      0.00
   -4   11    7      1.86      0.00
   -3   11    7     -6.32      0.00
   -2   11    7      2.33      0.00
   -1   11    7      3.09      0.00
    0   11    7     -2.64      0.00
    1   11    7      0.02      0.00
    2   11    7      2.84      0.00
    3   11    7      1.55      0.00
    4   11    7     -1.67      0.00
    5   11    7      3.25      0.00
    6   11    7      0.53      0.00
    7   11    7     -2.08      0.00
  -21   12    7     -1.85      0.00
  -20   12    7     -1.98      0.00
  -19   12    7     -0.85      0.00
  -18   12    7     -0.40      0.00
  -17   12    7      0.63      0.00
  -16   12    7     -3.51      0.00
  -15   12    7      0.92      0.00
  -14   12    7      0.05      0.00
  -13   12    7     -4.64      0.00
  -12   12    7      0.61      0.00
  -11   12    7      1.11      0.00
  -10   12    7     -1.73      0.00
   -9   12    7      5.31      0.00
   -8   12    7      2.01      0.00
   -7   12    7     -2.87      0.00
   -6   12    7      5.74      0.00
   -5   12    7      2.59      0.00
   -4   12    7     -1.69      0.00
   -3   12    7      0.12      0.00
   -2   12    7      1.77      0.00
   -1   12    7     -0.78      0.00
    0   12    7     -3.19      0.00
    1   12    7      2.34      0.00
    2   12    7     -1.10      0.00
    3   12    7     -3.25      0.00
    4   12    7      1.22      0.00
    5   12    7      0.90      0.00
    6   12    7      0.17      0.00
  -21   13    7      1.16      0.00
  -20   13    7      0.24      0.00
  -19   13    7      1.44      0.00
  -18   13    7      1.89      0.00
  -17   13    7     -0.76      0.00
  -16   13    7     -1.32      0.00
  -15   13    7     -1.78      0.00
  -14   13    7      2.92      0.00
  -13   13    7      1.61      0.00
  -12   13    7     -3.52      0.00
  -11   13    7     -1.11      0.00
  -10   13    7      1.59      0.00
   -9   13    7     -6.20      0.00
   -8   13    7     -1.32      0.00
   -7   13    7      3.25      0.00
   -6   13    7     -4.68      0.00
   -5   13    7     -1.71      0.00
   -4   13    7      2.05      0.00
   -3   13    7      1.66      0.00
   -2   13    7     -2.57      0.00
   -1   13    7      0.21      0.00
    0   13    7      6.56      0.00
    1   13    7     -0.08      0.00
    2   13    7     -4.08      0.00
    3   13    7     -0.97      0.00
    4   13    7     -0.07      0.00
    5   13    7      1.32      0.00
  -21   14    7      3.51      0.00
  -20   14    7      1.89      0.00
  -19   14    7     -5.41      0.00
  -18   14    7     -3.00      0.00
  -17   14    7      3.57      0.00
  -16   14    7      2.29      0.00
  -15   14    7     -0.06      0.00
  -14   14    7     -2.09      0.00
  -13   14    7      2.92      0.00
  -12   14    7      2.88      0.00
  -11   14    7     -2.01      0.00
  -10   14    7     -1.86      0.00
   -9   14    7      3.05      0.00
   -8   14    7      1.65      0.00
   -7   14    7      0.07      0.00
   -6   14    7      1.48      0.00
   -5   14    7     -0.76      0.00
   -4   14    7     -0.27      0.00
   -3   14    7     -1.49      0.00
   -2   14    7     -0.92      0.00
   -1   14    7      0.99      0.00
    0   14    7     -6.87      0.00
    1   14    7      1.24      0.00
    2   14    7      6.90      0.00
    3   14    7     -0.59      0.00
    4   14    7     -1.47      0.00
  -21   15    7     -4.53      0.00
  -20   15    7      1.05      0.00
  -19   15    7      5.10      0.00
  -18   15    7     -1.10      0.00
  -17   15    7     -4.25      0.00
  -16   15    7      3.44      0.00
  -15   15    7     -0.03      0.00
  -14   15    7      0.10      0.00
  -13   15    7     -2.30      0.00
  -12   15    7     -0.86      0.00
  -11   15    7      3.31      0.00
  -10   15    7     -0.57      0.00
   -9   15    7     -0.92      0.00
   -8   15    7     -0.24      0.00
   -7   15    7     -2.36      0.00
   -6   15    7      1.07      0.00
   -5   15    7      1.31      0.00
   -4   15    7     -0.30      0.00
   -3   15    7      2.59      0.00
   -2   15    7      0.77      0.00
   -1   15    7     -0.85      0.00
    0   15    7      4.13      0.00
    1   15    7     -3.31      0.00
    2   15    7     -1.04      0.00
    3   15    7      1.57      0.00
  -20   16    7     -0.97      0.00
  -19   16    7      0.10      0.00
  -18   16    7      0.89      0.00
  -17   16    7     -0.30      0.00
  -16   16    7     -4.39      0.00
  -15   16    7      1.69      0.00
  -14   16    7      1.28      0.00
  -13   16    7      0.77      0.00
  -12   16    7     -2.13      0.00
  -11   16    7     -2.21      0.00
  -10   16    7      2.49      0.00
   -9   16    7      1.18      0.00
   -8   16    7     -0.41      0.00
   -7   16    7      0.99      0.00
   -6   16    7     -1.78      0.00
   -5   16    7     -1.91      0.00
   -4   16    7     -1.73      0.00
   -3   16    7     -1.14      0.00
   -2   16    7      0.70      0.00
   -1   16    7      0.14      0.00
    0   16    7      0.15      0.00
    1   16    7      3.25      0.00
  -20   17    7     -2.04      0.00
  -19   17    7      0.51      0.00
  -18   17    7      3.98      0.00
  -17   17    7     -1.77      0.00
  -16   17    7     -0.74      0.00
  -15   17    7     -0.76      0.00
  -14   17    7     -2.10      0.00
  -13   17    7      1.59      0.00
  -12   17    7      3.29      0.00
  -11   17    7      0.85      0.00
  -10   17    7     -1.32      0.00
   -9   17    7     -3.63      0.00
   -8   17    7      0.81      0.00
   -7   17    7      3.50      0.00
   -6   17    7     -0.33      0.00
   -5   17    7      2.38      0.00
   -4   17    7      3.10      0.00
   -3   17    7     -0.63      0.00
   -2   17    7     -2.03      0.00
   -1   17    7     -3.49      0.00
    0   17    7     -0.84      0.00
  -19   18    7     -2.44      0.00
  -18   18    7      1.95      0.00
  -17   18    7      7.32      0.00
  -16   18    7     -1.17      0.00
  -15   18    7     -1.96      0.00
  -14   18    7      2.30      0.00
  -13   18    7     -3.62      0.00
  -12   18    7      0.39      0.00
  -11   18    7      1.63      0.00
  -10   18    7     -2.01      0.00
   -9   18    7      1.59      0.00
   -8   18    7     -1.40      0.00
   -7   18    7     -2.94      0.00
   -6   18    7      2.51      0.00
   -5   18    7     -2.63      0.00
   -4   18    7     -2.16      0.00
   -3   18    7      2.58      0.00
   -2   18    7      2.37      0.00
  -18   19    7     -6.79      0.00
  -17   19    7     -0.32      0.00
  -16   19    7      2.67      0.00
  -15   19    7     -2.09      0.00
  -14   19    7     -2.35      0.00
  -13   19    7      2.58      0.00
  -12   19    7     -3.34      0.00
  -11   19    7     -1.59      0.00
  -10   19    7      5.02      0.00
   -9   19    7      1.77      0.00
   -8   19    7      0.54      0.00
   -7   19    7     -0.51      0.00
   -6   19    7     -2.24      0.00
   -5   19    7      1.33      0.00
   -4   19    7      0.48      0.00
   -3   19    7     -2.44      0.00
  -17   20    7     -2.91      0.00
  -16   20    7      3.79      0.00
  -15   20    7      3.50      0.00
  -14   20    7      1.15      0.00
  -13   20    7      0.69      0.00
  -12   20    7      0.95      0.00
  -11   20    7      0.84      0.00
  -10   20    7     -2.59      0.00
   -9   20    7     -5.40      0.00
   -8   20    7     -1.87      0.00
   -7   20    7      4.37      0.00
   -6   20    7      0.47      0.00
  -15   21    7     -0.26      0.00
  -14   21    7     -1.38      0.00
  -13   21    7     -1.64      0.00
  -12   21    7      0.47      0.00
  -11   21    7     -0.60      0.00
  -10   21    7      1.78      0.00
   -9   21    7      5.92      0.00
    3  -21    8      4.75      0.00
    4  -21    8     -4.38      0.00
    5  -21    8     -0.64      0.00
    6  -21    8      0.09      0.00
    7  -21    8      1.25      0.00
    8  -21    8     -1.38      0.00
    9  -21    8     -1.91      0.00
   10  -21    8      0.09      0.00
   11  -21    8      0.89      0.00
    0  -20    8      5.61      0.00
    1  -20    8      0.87      0.00
    2  -20    8      0.07      0.00
    3  -20    8     -0.83      0.00
    4  -20    8      5.15      0.00
    5  -20    8     -1.14      0.00
    6  -20    8     -1.59      0.00
    7  -20    8      0.85      0.00
    8  -20    8      3.76      0.00
    9  -20    8      1.65      0.00
   10  -20    8      0.54      0.00
   11  -20    8     -1.09      0.00
   12  -20    8     -0.49      0.00
   13  -20    8     -1.67      0.00
   -2  -19    8     -2.04      0.00
   -1  -19    8     -4.45      0.00
    0  -19    8     -3.43      0.00
    1  -19    8     -0.81      0.00
    2  -19    8     -3.24      0.00
    3  -19    8     -0.56      0.00
    4  -19    8     -0.69      0.00
    5  -19    8     -0.09      0.00
    6  -19    8     -3.89      0.00
    7  -19    8     -2.41      0.00
    8  -19    8      1.54      0.00
    9  -19    8      1.33      0.00
   10  -19    8     -3.45      0.00
   11  -19    8      2.61      0.00
   12  -19    8      0.62      0.00
   13  -19    8     -3.12      0.00
   14  -19    8     -2.43      0.00
   -3  -18    8     -0.67      0.00
   -2  -18    8      0.82      0.00
   -1  -18    8      5.13      0.00
    0  -18    8      0.01      0.00
    1  -18    8      2.71      0.00
    2  -18    8      4.00      0.00
    3  -18    8     -1.06      0.00
    4  -18    8      2.14      0.00
    5  -18    8      2.95      0.00
    6  -18    8      3.48      0.00
    7  -18    8     -1.02      0.00
    8  -18    8     -2.91      0.00
    9  -18    8     -2.12      0.00
   10  -18    8      2.05      0.00
   11  -18    8     -0.07      0.00
   12  -18    8      2.18      0.00
   13  -18    8      4.99      0.00
   14  -18    8      2.42      0.00
   15  -18    8     -3.11      0.00
   -5  -17    8      0.73      0.00
   -4  -17    8     -2.60      0.00
   -3  -17    8     -0.29      0.00
   -2  -17    8     -0.33      0.00
   -1  -17    8     -4.54      0.00
    0  -17    8      3.22      0.00
    1  -17    8     -1.80      0.00
    2  -17    8     -2.98      0.00
    3  -17    8     -0.63      0.00
    4  -17    8     -5.73      0.00
    5  -17    8      1.52      0.00
    6  -17    8      0.61      0.00
    7  -17    8      1.56      0.00
    8  -17    8      3.02      0.00
    9  -17    8      0.58      0.00
   10  -17    8     -3.88      0.00
   11  -17    8     -3.26      0.00
   12  -17    8      1.62      0.00
   13  -17    8     -1.66      0.00
   14  -17    8     -1.17      0.00
   15  -17    8      4.11      0.00
   -6  -16    8      1.13      0.00
   -5  -16    8     -2.94      0.00
   -4  -16    8      3.15      0.00
   -3  -16    8      3.02      0.00
   -2  -16    8     -1.69      0.00
   -1  -16    8      2.25      0.00
    0  -16    8     -1.88      0.00
    1  -16    8      0.13      0.00
    2  -16    8      0.70      0.00
    3  -16    8     -0.42      0.00
    4  -16    8      2.49      0.00
    5  -16    8     -5.11      0.00
    6  -16    8      1.33      0.00
    7  -16    8     -1.33      0.00
    8  -16    8     -1.60      0.00
    9  -16    8      3.42      0.00
   10  -16    8      0.84      0.00
   11  -16    8      0.46      0.00
   12  -16    8     -2.24      0.00
   13  -16    8      1.33      0.00
   14  -16    8     -1.24      0.00
   15  -16    8     -2.58      0.00
   16  -16    8     -3.94      0.00
   -7  -15    8      1.36      0.00
   -6  -15    8      0.69      0.00
   -5  -15    8     -0.72      0.00
   -4  -15    8     -5.34      0.00
   -3  -15    8      0.05      0.00
   -2  -15    8      3.26      0.00
   -1  -15    8     -1.61      0.00
    0  -15    8      1.05      0.00
    1  -15    8      2.01      0.00
    2  -15    8     -0.38      0.00
    3  -15    8      3.89      0.00
    4  -15    8      2.81      0.00
    5  -15    8      3.58      0.00
    6  -15    8     -6.28      0.00
    7  -15    8      1.11      0.00
    8  -15    8      0.27      0.00
    9  -15    8     -3.15      0.00
   10  -15    8      2.94      0.00
   11  -15    8     -0.61      0.00
   12  -15    8      0.26      0.00
   13  -15    8     -0.29      0.00
   14  -15    8      2.83      0.00
   15  -15    8      3.06      0.00
   16  -15    8      5.61      0.00
   -9  -14    8      1.72      0.00
   -8  -14    8      3.06      0.00
   -7  -14    8     -0.81      0.00
   -6  -14    8     -1.72      0.00
   -5  -14    8      4.69      0.00
   -4  -14    8      4.71      0.00
   -3  -14    8     -4.19      0.00
   -2  -14    8     -0.30      0.00
   -1  -14    8      0.84      0.00
    0  -14    8     -3.42      0.00
    1  -14    8     -3.78      0.00
    2  -14    8      2.18      0.00
    3  -14    8     -4.13      0.00
    4  -14    8     -1.11      0.00
    5  -14    8     -0.90      0.00
    6  -14    8      6.15      0.00
    7  -14    8     -3.51      0.00
    8  -14    8     -0.22      0.00
    9  -14    8      5.32      0.00
   10  -14    8     -3.04      0.00
   11  -14    8     -1.20      0.00
   12  -14    8     -0.83      0.00
   13  -14    8      0.32      0.00
   14  -14    8     -3.79      0.00
   15  -14    8     -2.86      0.00
   16  -14    8     -2.08      0.00
  -10  -13    8     -0.08      0.00
   -9  -13    8     -2.74      0.00
   -8  -13    8     -4.70      0.00
   -7  -13    8     -0.02      0.00
   -6  -13    8      1.11      0.00
   -5  -13    8     -3.93      0.00
   -4  -13    8     -3.18      0.00
   -3  -13    8      3.89      0.00
   -2  -13    8     -1.74      0.00
   -1  -13    8     -0.87      0.00
    0  -13    8      3.06      0.00
    1  -13    8      5.53      0.00
    2  -13    8     -4.55      0.00
    3  -13    8      0.47      0.00
    4  -13    8     -3.09      0.00
    5  -13    8      4.68      0.00
    6  -13    8     -2.84      0.00
    7  -13    8      0.14      0.00
    8  -13    8     -1.20      0.00
    9  -13    8     -2.06      0.00
   10  -13    8      4.06      0.00
   11  -13    8      0.97      0.00
   12  -13    8      2.20      0.00
   13  -13    8     -2.00      0.00
   14  -13    8      2.28      0.00
   15  -13    8      1.39      0.00
   16  -13    8     -0.13      0.00
   17  -13    8      1.30      0.00
  -11  -12    8      1.98      0.00
  -10  -12    8      0.48      0.00
   -9  -12    8      3.49      0.00
   -8  -12    8      3.41      0.00
   -7  -12    8     -1.11      0.00
   -6  -12    8      1.75      0.00
   -5  -12    8      2.27      0.00
   -4  -12    8      2.32      0.00
   -3  -12    8     -1.16      0.00
   -2  -12    8      0.79      0.00
   -1  -12    8     -0.88      0.00
    0  -12    8     -0.60      0.00
    1  -12    8     -1.44      0.00
    2  -12    8      5.94      0.00
    3  -12    8     -1.84      0.00
    4  -12    8      3.25      0.00
    5  -12    8     -6.81      0.00
    6  -12    8      3.16      0.00
    7  -12    8      2.52      0.00
    8  -12    8      0.44      0.00
    9  -12    8     -2.19      0.00
   10  -12    8     -1.77      0.00
   11  -12    8     -0.35      0.00
   12  -12    8     -3.96      0.00
   13  -12    8      2.91      0.00
   14  -12    8     -1.31      0.00
   15  -12    8     -1.48      0.00
   16  -12    8      1.14      0.00
   17  -12    8      0.54      0.00
  -11  -11    8     -4.74      0.00
  -10  -11    8     -2.03      0.00
   -9  -11    8     -0.05      0.00
   -8  -11    8     -4.37      0.00
   -7  -11    8      1.26      0.00
   -6  -11    8      1.06      0.00
   -5  -11    8     -1.95      0.00
   -4  -11    8     -4.16      0.00
   -3  -11    8      2.25      0.00
   -2  -11    8     -0.05      0.00
   -1  -11    8      2.21      0.00
    0  -11    8     -3.18      0.00
    1  -11    8     -1.85      0.00
    2  -11    8     -3.52      0.00
    3  -11    8      3.81      0.00
    4  -11    8     -4.92      0.00
    5  -11    8      4.02      0.00
    6  -11    8     -1.14      0.00
    7  -11    8     -1.31      0.00
    8  -11    8     -0.76      0.00
    9  -11    8      3.43      0.00
   10  -11    8      1.43      0.00
   11  -11    8      0.50      0.00
   12  -11    8      2.48      0.00
   13  -11    8     -0.51      0.00
   14  -11    8      0.70      0.00
   15  -11    8     -0.10      0.00
   16  -11    8     -0.84      0.00
   17  -11    8     -2.50      0.00
  -12  -10    8     -0.65      0.00
  -11  -10    8      6.96      0.00
  -10  -10    8     -0.17      0.00
   -9  -10    8     -2.18      0.00
   -8  -10    8      7.63      0.00
   -7  -10    8     -4.01      0.00
   -6  -10    8     -4.39      0.00
   -5  -10    8      2.61      0.00
   -4  -10    8      4.95      0.00
   -3  -10    8     -4.35      0.00
   -2  -10    8      0.98      0.00
   -1  -10    8     -3.00      0.00
    0  -10    8      6.84      0.00
    1  -10    8      2.60      0.00
    2  -10    8      4.93      0.00
    3  -10    8     -4.52      0.00
    4  -10    8      2.07      0.00
    5  -10    8     -1.32      0.00
    6  -10    8      2.55      0.00
    7  -10    8     -0.42      0.00
    8  -10    8     -3.62      0.00
    9  -10    8     -3.29      0.00
   10  -10    8     -0.68      0.00
   11  -10    8      0.56      0.00
   12  -10    8     -0.84      0.00
   13  -10    8     -0.20      0.00
   14  -10    8      0.94      0.00
   15  -10    8     -0.23      0.00
   16  -10    8     -2.70      0.00
   17  -10    8      0.70      0.00
  -13   -9    8     -4.00      0.00
  -12   -9    8      0.33      0.00
  -11   -9    8     -0.95      0.00
  -10   -9    8      0.55      0.00
   -9   -9    8      0.24      0.00
   -8   -9    8     -1.77      0.00
   -7   -9    8      3.70      0.00
   -6   -9    8     -1.70      0.00
   -5   -9    8      2.93      0.00
   -4   -9    8     -8.48      0.00
   -3   -9    8      4.13      0.00
   -2   -9    8      1.61      0.00
   -1   -9    8      1.96      0.00
    0   -9    8    -13.25      0.00
    1   -9    8     -2.75      0.00
    2   -9    8     -1.72      0.00
    3   -9    8      4.51      0.00
    4   -9    8      0.31      0.00
    5   -9    8      0.95      0.00
    6   -9    8     -3.92      0.00
    7   -9    8      3.33      0.00
    8   -9    8      5.09      0.00
    9   -9    8      0.00      0.00
   10   -9    8     -0.45      0.00
   11   -9    8     -0.98      0.00
   12   -9    8      2.04      0.00
   13   -9    8      0.14      0.00
   14   -9    8     -0.75      0.00
   15   -9    8      1.99      0.00
   16   -9    8      4.69      0.00
  -14   -8    8      2.08      0.00
  -13   -8    8      4.87      0.00
  -12   -8    8     -3.80      0.00
  -11   -8    8     -0.91      0.00
  -10   -8    8      4.54      0.00
   -9   -8    8     -3.59      0.00
   -8   -8    8     -3.76      0.00
   -7   -8    8      1.82      0.00
   -6   -8    8      5.25      0.00
   -5   -8    8     -8.71      0.00
   -4   -8    8     10.83      0.00
   -3   -8    8     -5.29      0.00
   -2   -8    8      7.63      0.00
   -1   -8    8      0.70      0.00
    0   -8    8      7.64      0.00
    1   -8    8     -5.74      0.00
    2   -8    8     -1.59      0.00
    3   -8    8      4.13      0.00
    4   -8    8     -0.13      0.00
    5   -8    8     -4.32      0.00
    6   -8    8      5.30      0.00
    7   -8    8     -2.84      0.00
    8   -8    8     -5.45      0.00
    9   -8    8      2.66      0.00
   10   -8    8      2.73      0.00
   11   -8    8     -1.61      0.00
   12   -8    8     -3.57      0.00
   13   -8    8     -0.16      0.00
   14   -8    8     -1.27      0.00
   15   -8    8      0.68      0.00
   16   -8    8     -0.55      0.00
  -15   -7    8     -0.28      0.00
  -14   -7    8     -0.61      0.00
  -13   -7    8     -1.96      0.00
  -12   -7    8      2.67      0.00
  -11   -7    8     -4.02      0.00
  -10   -7    8     -2.19      0.00
   -9   -7    8      6.13      0.00
   -8   -7    8      1.48      0.00
   -7   -7    8     -0.84      0.00
   -6   -7    8     -6.85      0.00
   -5   -7    8     11.88      0.00
   -4   -7    8     -7.93      0.00
   -3   -7    8     -2.51      0.00
   -2   -7    8    -15.97      0.00
   -1   -7    8      9.70      0.00
    0   -7    8      1.49      0.00
    1   -7    8      8.31      0.00
    2   -7    8     -3.93      0.00
    3   -7    8     -9.38      0.00
    4   -7    8      0.35      0.00
    5   -7    8      3.56      0.00
    6   -7    8     -4.32      0.00
    7   -7    8      3.72      0.00
    8   -7    8      4.36      0.00
    9   -7    8     -6.23      0.00
   10   -7    8     -2.12      0.00
   11   -7    8      5.27      0.00
   12   -7    8      1.93      0.00
   13   -7    8     -2.77      0.00
   14   -7    8      0.72      0.00
   15   -7    8     -3.42      0.00
   16   -7    8     -0.48      0.00
  -15   -6    8      0.56      0.00
  -14   -6    8     -2.03      0.00
  -13   -6    8      3.62      0.00
  -12   -6    8      0.15      0.00
  -11   -6    8      0.17      0.00
  -10   -6    8     -1.40      0.00
   -9   -6    8     -0.51      0.00
   -8   -6    8     -0.94      0.00
   -7   -6    8     -5.15      0.00
   -6   -6    8      9.07      0.00
   -5   -6    8    -13.17      0.00
   -4   -6    8     12.48      0.00
   -3   -6    8      0.89      0.00
   -2   -6    8      5.04      0.00
   -1   -6    8    -11.90      0.00
    0   -6    8      3.78      0.00
    1   -6    8     -5.45      0.00
    2   -6    8     10.61      0.00
    3   -6    8      9.49      0.00
    4   -6    8     -4.90      0.00
    5   -6    8     -4.00      0.00
    6   -6    8     -0.01      0.00
    7   -6    8      0.33      0.00
    8   -6    8      0.40      0.00
    9   -6    8      4.23      0.00
   10   -6    8     -0.88      0.00
   11   -6    8     -3.34      0.00
   12   -6    8     -0.29      0.00
   13   -6    8      6.10      0.00
   14   -6    8     -1.14      0.00
   15   -6    8     -1.42      0.00
   16   -6    8      0.86      0.00
  -16   -5    8     -2.70      0.00
  -15   -5    8     -2.72      0.00
  -14   -5    8      6.33      0.00
  -13   -5    8     -3.62      0.00
  -12   -5    8      0.72      0.00
  -11   -5    8      3.48      0.00
  -10   -5    8     -0.44      0.00
   -9   -5    8     -4.09      0.00
   -8   -5    8     -0.30      0.00
   -7   -5    8     11.04      0.00
   -6   -5    8     -5.87      0.00
   -5   -5    8      9.34      0.00
   -4   -5    8    -13.75      0.00
   -3   -5    8     13.92      0.00
   -2   -5    8     -6.10      0.00
   -1   -5    8      0.59      0.00
    0   -5    8     -7.54      0.00
    1   -5    8      4.37      0.00
    2   -5    8    -10.64      0.00
    3   -5    8     -4.18      0.00
    4   -5    8     10.57      0.00
    5   -5    8      0.65      0.00
    6   -5    8      0.53      0.00
    7   -5    8     -3.35      0.00
    8   -5    8      2.11      0.00
    9   -5    8     -1.02      0.00
   10   -5    8      0.00      0.00
   11   -5    8     -2.14      0.00
   12   -5    8      1.41      0.00
   13   -5    8     -1.23      0.00
   14   -5    8      1.48      0.00
   15   -5    8      1.20      0.00
   16   -5    8     -1.15      0.00
  -17   -4    8      0.94      0.00
  -16   -4    8      2.54      0.00
  -15   -4    8     -0.52      0.00
  -14   -4    8     -4.35      0.00
  -13   -4    8      0.67      0.00
  -12   -4    8      0.17      0.00
  -11   -4    8     -0.38      0.00
  -10   -4    8     -1.47      0.00
   -9   -4    8      0.11      0.00
   -8   -4    8      7.45      0.00
   -7   -4    8    -10.77      0.00
   -6   -4    8     -0.93      0.00
   -5   -4    8     -9.60      0.00
   -4   -4    8     12.55      0.00
   -3   -4    8    -17.89      0.00
   -2   -4    8     11.21      0.00
   -1   -4    8      9.29      0.00
    0   -4    8      8.89      0.00
    1   -4    8    -10.08      0.00
    2   -4    8     -0.36      0.00
    3   -4    8      2.94      0.00
    4   -4    8     -3.96      0.00
    5   -4    8      0.07      0.00
    6   -4    8     -3.68      0.00
    7   -4    8      2.66      0.00
    8   -4    8     -4.81      0.00
    9   -4    8      1.38      0.00
   10   -4    8      1.25      0.00
   11   -4    8      2.91      0.00
   12   -4    8     -4.25      0.00
   13   -4    8     -0.37      0.00
   14   -4    8      1.86      0.00
   15   -4    8     -1.81      0.00
  -17   -3    8     -0.08      0.00
  -16   -3    8      1.45      0.00
  -15   -3    8     -1.62      0.00
  -14   -3    8     -2.38      0.00
  -13   -3    8      3.95      0.00
  -12   -3    8     -1.86      0.00
  -11   -3    8     -2.31      0.00
  -10   -3    8      4.87      0.00
   -9   -3    8      5.88      0.00
   -8   -3    8    -13.71      0.00
   -7   -3    8      4.61      0.00
   -6   -3    8      5.97      0.00
   -5   -3    8     13.95      0.00
   -4   -3    8    -17.79      0.00
   -3   -3    8     14.86      0.00
   -2   -3    8     -7.16      0.00
   -1   -3    8     -9.91      0.00
    0   -3    8     -7.46      0.00
    1   -3    8     11.79      0.00
    2   -3    8      5.76      0.00
    3   -3    8     -7.10      0.00
    4   -3    8      0.27      0.00
    5   -3    8      7.20      0.00
    6   -3    8      4.71      0.00
    7   -3    8     -7.89      0.00
    8   -3    8      3.45      0.00
    9   -3    8      2.02      0.00
   10   -3    8      0.19      0.00
   11   -3    8     -1.47      0.00
   12   -3    8      2.99      0.00
   13   -3    8     -2.24      0.00
   14   -3    8      1.38      0.00
   15   -3    8      2.60      0.00
  -18   -2    8      0.19      0.00
  -17   -2    8     -4.07      0.00
  -16   -2    8      2.16      0.00
  -15   -2    8      4.36      0.00
  -14   -2    8      0.03      0.00
  -13   -2    8     -3.39      0.00
  -12   -2    8      0.93      0.00
  -11   -2    8      1.64      0.00
  -10   -2    8      1.55      0.00
   -9   -2    8     -7.34      0.00
   -8   -2    8      7.47      0.00
   -7   -2    8      0.89      0.00
   -6   -2    8     -2.51      0.00
   -5   -2    8    -18.30      0.00
   -4   -2    8     20.39      0.00
   -3   -2    8     -6.17      0.00
   -2   -2    8      1.10      0.00
   -1   -2    8     -5.70      0.00
    0   -2    8     15.69      0.00
    1   -2    8      0.70      0.00
    2   -2    8    -14.78      0.00
    3   -2    8      2.52      0.00
    4   -2    8      2.71      0.00
    5   -2    8     -6.73      0.00
    6   -2    8     -3.06      0.00
    7   -2    8     12.55      0.00
    8   -2    8     -6.33      0.00
    9   -2    8     -5.48      0.00
   10   -2    8      0.25      0.00
   11   -2    8      2.24      0.00
   12   -2    8     -3.15      0.00
   13   -2    8      0.19      0.00
   14   -2    8     -0.61      0.00
   15   -2    8      0.79      0.00
  -18   -1    8     -0.35      0.00
  -17   -1    8      4.76      0.00
  -16   -1    8     -2.73      0.00
  -15   -1    8     -1.26      0.00
  -14   -1    8     -1.63      0.00
  -13   -1    8     -0.35      0.00
  -12   -1    8      2.50      0.00
  -11   -1    8     -1.49      0.00
  -10   -1    8     -9.20      0.00
   -9   -1    8     10.24      0.00
   -8   -1    8      2.88      0.00
   -7   -1    8     -4.95      0.00
   -6   -1    8     -9.69      0.00
   -5   -1    8     18.26      0.00
   -4   -1    8    -14.98      0.00
   -3   -1    8      2.31      0.00
   -2   -1    8     -0.91      0.00
   -1   -1    8     11.00      0.00
    0   -1    8    -21.67      0.00
    1   -1    8     -4.66      0.00
    2   -1    8     26.76      0.00
    3   -1    8      0.04      0.00
    4   -1    8    -12.25      0.00
    5   -1    8      1.52      0.00
    6   -1    8      6.56      0.00
    7   -1    8     -9.16      0.00
    8   -1    8      7.06      0.00
    9   -1    8      1.66      0.00
   10   -1    8      0.87      0.00
   11   -1    8     -0.80      0.00
   12   -1    8      2.35      0.00
   13   -1    8     -0.13      0.00
   14   -1    8     -1.67      0.00
  -19    0    8      3.07      0.00
  -18    0    8     -2.83      0.00
  -17    0    8     -1.72      0.00
  -16    0    8     -0.97      0.00
  -15    0    8      1.10      0.00
  -14    0    8      5.08      0.00
  -13    0    8      0.44      0.00
  -12    0    8      0.38      0.00
  -11    0    8     -1.72      0.00
  -10    0    8      5.99      0.00
   -9    0    8     -9.73      0.00
   -8    0    8     -4.55      0.00
   -7    0    8      4.87      0.00
   -6    0    8     21.73      0.00
   -5    0    8    -12.48      0.00
   -4    0    8      2.55      0.00
   -3    0    8     -3.39      0.00
   -2    0    8     12.34      0.00
   -1    0    8    -11.40      0.00
    0    0    8      5.47      0.00
    1    0    8      7.02      0.00
    2    0    8    -20.90      0.00
    3    0    8      0.65      0.00
    4    0    8     13.13      0.00
    5    0    8      0.15      0.00
    6    0    8    -11.52      0.00
    7    0    8      6.60      0.00
    8    0    8     -0.84      0.00
    9    0    8      0.29      0.00
   10    0    8     -3.44      0.00
   11    0    8      0.50      0.00
   12    0    8     -1.14      0.00
   13    0    8     -1.17      0.00
   14    0    8      1.22      0.00
  -19    1    8     -0.63      0.00
  -18    1    8      2.80      0.00
  -17    1    8     -2.50      0.00
  -16    1    8      1.37      0.00
  -15    1    8      1.61      0.00
  -14    1    8     -3.99      0.00
  -13    1    8     -2.86      0.00
  -12    1    8     -2.74      0.00
  -11    1    8      7.79      0.00
  -10    1    8     -3.26      0.00
   -9    1    8      3.82      0.00
   -8    1    8     -0.16      0.00
   -7    1    8      0.01      0.00
   -6    1    8    -19.30      0.00
   -5    1    8      6.41      0.00
   -4    1    8      3.15      0.00
   -3    1    8      0.06      0.00
   -2    1    8    -13.85      0.00
   -1    1    8     15.26      0.00
    0    1    8      5.84      0.00
    1    1    8    -12.15      0.00
    2    1    8      7.05      0.00
    3    1    8      4.19      0.00
    4    1    8     -3.36      0.00
    5    1    8     -3.35      0.00
    6    1    8      8.11      0.00
    7    1    8     -5.39      0.00
    8    1    8      0.06      0.00
    9    1    8     -1.33      0.00
   10    1    8      2.99      0.00
   11    1    8      0.15      0.00
   12    1    8      3.31      0.00
   13    1    8      1.84      0.00
  -19    2    8     -0.32      0.00
  -18    2    8     -2.01      0.00
  -17    2    8      2.00      0.00
  -16    2    8      0.30      0.00
  -15    2    8     -1.76      0.00
  -14    2    8      4.29      0.00
  -13    2    8      0.78      0.00
  -12    2    8     -0.74      0.00
  -11    2    8     -5.05      0.00
  -10    2    8      2.74      0.00
   -9    2    8     -2.04      0.00
   -8    2    8      6.03      0.00
   -7    2    8     -5.37      0.00
   -6    2    8      8.98      0.00
   -5    2    8     -2.98      0.00
   -4    2    8      1.41      0.00
   -3    2    8     -1.64      0.00
   -2    2    8      3.57      0.00
   -1    2    8     -6.63      0.00
    0    2    8     -4.21      0.00
    1    2    8      7.99      0.00
    2    2    8     -2.38      0.00
    3    2    8     -6.64      0.00
    4    2    8     -2.64      0.00
    5    2    8      6.43      0.00
    6    2    8     -3.91      0.00
    7    2    8      2.99      0.00
    8    2    8     -1.87      0.00
    9    2    8      3.85      0.00
   10    2    8     -3.68      0.00
   11    2    8     -1.19      0.00
   12    2    8     -2.60      0.00
   13    2    8     -1.35      0.00
  -20    3    8     -4.47      0.00
  -19    3    8      1.03      0.00
  -18    3    8      2.79      0.00
  -17    3    8     -1.20      0.00
  -16    3    8     -3.49      0.00
  -15    3    8     -1.19      0.00
  -14    3    8     -0.38      0.00
  -13    3    8      3.76      0.00
  -12    3    8      1.88      0.00
  -11    3    8     -0.79      0.00
  -10    3    8     -0.69      0.00
   -9    3    8      4.40      0.00
   -8    3    8     -9.07      0.00
   -7    3    8      2.46      0.00
   -6    3    8     -3.51      0.00
   -5    3    8      5.98      0.00
   -4    3    8     -7.09      0.00
   -3    3    8      7.29      0.00
   -2    3    8      3.15      0.00
   -1    3    8     -3.80      0.00
    0    3    8      3.11      0.00
    1    3    8      0.72      0.00
    2    3    8      1.20      0.00
    3    3    8     -0.86      0.00
    4    3    8      6.89      0.00
    5    3    8     -3.57      0.00
    6    3    8      2.65      0.00
    7    3    8     -5.58      0.00
    8    3    8      3.43      0.00
    9    3    8     -2.34      0.00
   10    3    8      2.15      0.00
   11    3    8      1.41      0.00
   12    3    8      0.19      0.00
  -20    4    8      4.02      0.00
  -19    4    8     -1.34      0.00
  -18    4    8     -0.23      0.00
  -17    4    8      2.91      0.00
  -16    4    8      2.67      0.00
  -15    4    8     -0.47      0.00
  -14    4    8     -1.85      0.00
  -13    4    8     -4.70      0.00
  -12    4    8     -2.76      0.00
  -11    4    8      1.69      0.00
  -10    4    8      4.34      0.00
   -9    4    8     -2.41      0.00
   -8    4    8     10.01      0.00
   -7    4    8      0.48      0.00
   -6    4    8     -1.29      0.00
   -5    4    8     -9.79      0.00
   -4    4    8      8.35      0.00
   -3    4    8     -3.85      0.00
   -2    4    8     -5.84      0.00
   -1    4    8      1.10      0.00
    0    4    8     -4.07      0.00
    1    4    8      0.90      0.00
    2    4    8      1.17      0.00
    3    4    8      0.91      0.00
    4    4    8     -6.38      0.00
    5    4    8      3.56      0.00
    6    4    8     -4.39      0.00
    7    4    8      5.97      0.00
    8    4    8     -2.55      0.00
    9    4    8      1.47      0.00
   10    4    8     -0.84      0.00
   11    4    8     -1.16      0.00
   12    4    8      1.38      0.00
  -20    5    8     -0.30      0.00
  -19    5    8      0.39      0.00
  -18    5    8     -1.87      0.00
  -17    5    8     -2.98      0.00
  -16    5    8      0.94      0.00
  -15    5    8      1.53      0.00
  -14    5    8      0.37      0.00
  -13    5    8      3.63      0.00
  -12    5    8      1.26      0.00
  -11    5    8     -0.65      0.00
  -10    5    8    -12.35      0.00
   -9    5    8     -1.64      0.00
   -8    5    8     -2.32      0.00
   -7    5    8      2.02      0.00
   -6    5    8     -1.72      0.00
   -5    5    8      9.80      0.00
   -4    5    8     -4.11      0.00
   -3    5    8     -4.82      0.00
   -2    5    8      7.16      0.00
   -1    5    8      3.62      0.00
    0    5    8      2.70      0.00
    1    5    8     -6.60      0.00
    2    5    8      3.77      0.00
    3    5    8      3.26      0.00
    4    5    8     -2.56      0.00
    5    5    8     -1.39      0.00
    6    5    8      8.29      0.00
    7    5    8     -6.33      0.00
    8    5    8     -3.89      0.00
    9    5    8      2.30      0.00
   10    5    8      3.77      0.00
   11    5    8     -1.64      0.00
  -21    6    8      0.24      0.00
  -20    6    8     -1.44      0.00
  -19    6    8      0.50      0.00
  -18    6    8      1.84      0.00
  -17    6    8      1.06      0.00
  -16    6    8     -2.11      0.00
  -15    6    8     -2.22      0.00
  -14    6    8      1.23      0.00
  -13    6    8      3.19      0.00
  -12    6    8      1.97      0.00
  -11    6    8      0.27      0.00
  -10    6    8     12.17      0.00
   -9    6    8     -1.01      0.00
   -8    6    8     -4.74      0.00
   -7    6    8      1.11      0.00
   -6    6    8      9.26      0.00
   -5    6    8     -9.26      0.00
   -4    6    8     -4.28      0.00
   -3    6    8      9.13      0.00
   -2    6    8      0.24      0.00
   -1    6    8     -4.15      0.00
    0    6    8     -5.79      0.00
    1    6    8      4.88      0.00
    2    6    8     -5.06      0.00
    3    6    8     -3.65      0.00
    4    6    8      3.37      0.00
    5    6    8      1.15      0.00
    6    6    8     -6.67      0.00
    7    6    8      5.34      0.00
    8    6    8      4.20      0.00
    9    6    8     -6.78      0.00
   10    6    8     -2.75      0.00
  -21    7    8     -0.09      0.00
  -20    7    8      1.30      0.00
  -19    7    8     -2.53      0.00
  -18    7    8     -0.32      0.00
  -17    7    8      1.75      0.00
  -16    7    8      1.11      0.00
  -15    7    8      1.85      0.00
  -14    7    8     -3.45      0.00
  -13    7    8     -7.65      0.00
  -12    7    8     -2.19      0.00
  -11    7    8      1.09      0.00
  -10    7    8     -5.72      0.00
   -9    7    8     -0.39      0.00
   -8    7    8      1.54      0.00
   -7    7    8      0.93      0.00
   -6    7    8     -7.82      0.00
   -5    7    8      4.89      0.00
   -4    7    8      8.33      0.00
   -3    7    8     -9.21      0.00
   -2    7    8     -6.09      0.00
   -1    7    8      4.05      0.00
    0    7    8     10.78      0.00
    1    7    8     -0.99      0.00
    2    7    8     -0.97      0.00
    3    7    8      4.97      0.00
    4    7    8      1.47      0.00
    5    7    8     -6.45      0.00
    6    7    8      5.44      0.00
    7    7    8      3.02      0.00
    8    7    8     -3.04      0.00
    9    7    8      2.17      0.00
   10    7    8      0.67      0.00
  -21    8    8      0.38      0.00
  -20    8    8      0.36      0.00
  -19    8    8      3.04      0.00
  -18    8    8     -2.83      0.00
  -17    8    8     -1.24      0.00
  -16    8    8     -1.42      0.00
  -15    8    8     -1.13      0.00
  -14    8    8      3.74      0.00
  -13    8    8      6.04      0.00
  -12    8    8      1.48      0.00
  -11    8    8     -2.28      0.00
  -10    8    8      4.21      0.00
   -9    8    8      2.04      0.00
   -8    8    8     -0.91      0.00
   -7    8    8     -5.65      0.00
   -6    8    8      2.19      0.00
   -5    8    8      2.47      0.00
   -4    8    8     -4.25      0.00
   -3    8    8      0.03      0.00
   -2    8    8      3.17      0.00
   -1    8    8      2.54      0.00
    0    8    8    -12.20      0.00
    1    8    8     -0.24      0.00
    2    8    8      6.52      0.00
    3    8    8     -5.57      0.00
    4    8    8     -6.67      0.00
    5    8    8      7.82      0.00
    6    8    8     -3.38      0.00
    7    8    8     -7.95      0.00
    8    8    8      5.97      0.00
    9    8    8      1.93      0.00
  -21    9    8      0.04      0.00
  -20    9    8     -1.30      0.00
  -19    9    8     -0.12      0.00
  -18    9    8      2.57      0.00
  -17    9    8     -0.03      0.00
  -16    9    8      3.60      0.00
  -15    9    8      1.78      0.00
  -14    9    8     -2.70      0.00
  -13    9    8     -3.20      0.00
  -12    9    8     -1.70      0.00
  -11    9    8      1.23      0.00
  -10    9    8     -1.09      0.00
   -9    9    8      2.27      0.00
   -8    9    8      0.64      0.00
   -7    9    8      2.51      0.00
   -6    9    8      2.05      0.00
   -5    9    8     -4.56      0.00
   -4    9    8     -0.99      0.00
   -3    9    8      6.52      0.00
   -2    9    8      1.35      0.00
   -1    9    8     -8.20      0.00
    0    9    8      7.56      0.00
    1    9    8      1.93      0.00
    2    9    8     -5.02      0.00
    3    9    8      1.66      0.00
    4    9    8      6.12      0.00
    5    9    8     -3.54      0.00
    6    9    8     -0.37      0.00
    7    9    8      4.99      0.00
    8    9    8     -4.34      0.00
  -21   10    8     -1.31      0.00
  -20   10    8     -0.29      0.00
  -19   10    8     -2.54      0.00
  -18   10    8     -0.97      0.00
  -17   10    8     -0.38      0.00
  -16   10    8     -1.69      0.00
  -15   10    8     -2.03      0.00
  -14   10    8      0.23      0.00
  -13   10    8      0.60      0.00
  -12   10    8      1.07      0.00
  -11   10    8     -1.20      0.00
  -10   10    8     -2.26      0.00
   -9   10    8     -1.34      0.00
   -8   10    8      0.60      0.00
   -7   10    8      0.83      0.00
   -6   10    8     -0.61      0.00
   -5   10    8      0.29      0.00
   -4   10    8      3.97      0.00
   -3   10    8     -1.66      0.00
   -2   10    8     -5.99      0.00
   -1   10    8      7.89      0.00
    0   10    8     -2.08      0.00
    1   10    8     -5.50      0.00
    2   10    8      1.94      0.00
    3   10    8      4.87      0.00
    4   10    8     -3.26      0.00
    5   10    8     -3.15      0.00
    6   10    8      4.34      0.00
    7   10    8      0.01      0.00
  -21   11    8      2.57      0.00
  -20   11    8      1.60      0.00
  -19   11    8      2.50      0.00
  -18   11    8     -0.59      0.00
  -17   11    8      0.80      0.00
  -16   11    8      0.36      0.00
  -15   11    8     -1.52      0.00
  -14   11    8      1.92      0.00
  -13   11    8      1.63      0.00
  -12   11    8     -0.39      0.00
  -11   11    8      1.21      0.00
  -10   11    8      1.01      0.00
   -9   11    8     -2.78      0.00
   -8   11    8     -1.25      0.00
   -7   11    8     -2.19      0.00
   -6   11    8     -2.81      0.00
   -5   11    8      2.70      0.00
   -4   11    8     -2.48      0.00
   -3   11    8     -1.50      0.00
   -2   11    8      5.09      0.00
   -1   11    8     -2.95      0.00
    0   11    8     -0.50      0.00
    1   11    8      2.70      0.00
    2   11    8      2.83      0.00
    3   11    8     -3.38      0.00
    4   11    8      0.74      0.00
    5   11    8      1.14      0.00
    6   11    8     -4.68      0.00
  -21   12    8     -4.14      0.00
  -20   12    8      0.25      0.00
  -19   12    8      0.60      0.00
  -18   12    8      1.45      0.00
  -17   12    8     -1.64      0.00
  -16   12    8      0.89      0.00
  -15   12    8      4.73      0.00
  -14   12    8     -4.55      0.00
  -13   12    8     -0.99      0.00
  -12   12    8      2.91      0.00
  -11   12    8     -0.87      0.00
  -10   12    8      1.34      0.00
   -9   12    8      5.51      0.00
   -8   12    8     -0.32      0.00
   -7   12    8      1.32      0.00
   -6   12    8      4.30      0.00
   -5   12    8     -1.59      0.00
   -4   12    8     -3.69      0.00
   -3   12    8      1.04      0.00
   -2   12    8     -0.24      0.00
   -1   12    8     -2.96      0.00
    0   12    8      1.11      0.00
    1   12    8     -0.32      0.00
    2   12    8     -5.10      0.00
    3   12    8      2.25      0.00
    4   12    8      2.37      0.00
    5   12    8      0.05      0.00
  -21   13    8      0.96      0.00
  -20   13    8     -0.46      0.00
  -19   13    8      0.00      0.00
  -18   13    8     -0.86      0.00
  -17   13    8     -2.52      0.00
  -16   13    8     -2.92      0.00
  -15   13    8     -0.60      0.00
  -14   13    8      3.43      0.00
  -13   13    8     -2.78      0.00
  -12   13    8     -3.02      0.00
  -11   13    8      1.34      0.00
  -10   13    8     -2.33      0.00
   -9   13    8     -5.20      0.00
   -8   13    8      2.88      0.00
   -7   13    8     -0.93      0.00
   -6   13    8     -2.61      0.00
   -5   13    8      2.01      0.00
   -4   13    8      4.35      0.00
   -3   13    8     -0.88      0.00
   -2   13    8     -0.03      0.00
   -1   13    8      6.07      0.00
    0   13    8      2.68      0.00
    1   13    8     -3.81      0.00
    2   13    8     -0.80      0.00
    3   13    8      0.12      0.00
    4   13    8      1.38      0.00
  -21   14    8      3.28      0.00
  -20   14    8     -4.99      0.00
  -19   14    8     -3.19      0.00
  -18   14    8      3.70      0.00
  -17   14    8      5.31      0.00
  -16   14    8      0.76      0.00
  -15   14    8     -0.07      0.00
  -14   14    8      0.47      0.00
  -13   14    8      3.24      0.00
  -12   14    8     -1.29      0.00
  -11   14    8     -2.18      0.00
  -10   14    8      1.57      0.00
   -9   14    8      4.48      0.00
   -8   14    8     -1.39      0.00
   -7   14    8     -0.70      0.00
   -6   14    8     -1.15      0.00
   -5   14    8     -0.11      0.00
   -4   14    8     -1.65      0.00
   -3   14    8     -2.91      0.00
   -2   14    8     -0.32      0.00
   -1   14    8     -5.68      0.00
    0   14    8     -4.91      0.00
    1   14    8      7.43      0.00
    2   14    8      0.32      0.00
    3   14    8     -3.52      0.00
  -21   15    8     -1.08      0.00
  -20   15    8      6.52      0.00
  -19   15    8      0.29      0.00
  -18   15    8     -6.03      0.00
  -17   15    8     -0.73      0.00
  -16   15    8      0.90      0.00
  -15   15    8     -2.55      0.00
  -14   15    8     -0.01      0.00
  -13   15    8     -1.93      0.00
  -12   15    8      3.55      0.00
  -11   15    8      0.67      0.00
  -10   15    8     -1.23      0.00
   -9   15    8     -1.81      0.00
   -8   15    8     -0.14      0.00
   -7   15    8      1.24      0.00
   -6   15    8      1.82      0.00
   -5   15    8     -0.49      0.00
   -4   15    8      3.48      0.00
   -3   15    8      2.84      0.00
   -2   15    8     -0.76      0.00
   -1   15    8      4.73      0.00
    0   15    8      4.30      0.00
    1   15    8     -3.27      0.00
    2   15    8      1.50      0.00
  -20   16    8     -0.84      0.00
  -19   16    8      1.50      0.00
  -18   16    8      2.43      0.00
  -17   16    8     -0.66      0.00
  -16   16    8     -0.06      0.00
  -15   16    8      2.28      0.00
  -14   16    8     -0.17      0.00
  -13   16    8     -0.39      0.00
  -12   16    8     -3.49      0.00
  -11   16    8      1.37      0.00
  -10   16    8      1.05      0.00
   -9   16    8      0.48      0.00
   -8   16    8     -0.38      0.00
   -7   16    8     -1.18      0.00
   -6   16    8     -2.13      0.00
   -5   16    8     -2.18      0.00
   -4   16    8     -2.98      0.00
   -3   16    8      0.03      0.00
   -2   16    8     -0.95      0.00
   -1   16    8     -2.31      0.00
    0   16    8     -1.05      0.00
    1   16    8      0.30      0.00
  -20   17    8     -0.53      0.00
  -19   17    8      2.81      0.00
  -18   17    8     -2.40      0.00
  -17   17    8     -4.30      0.00
  -16   17    8      0.42      0.00
  -15   17    8     -2.06      0.00
  -14   17    8      0.74      0.00
  -13   17    8      4.41      0.00
  -12   17    8      2.41      0.00
  -11   17    8     -1.69      0.00
  -10   17    8     -2.55      0.00
   -9   17    8     -1.84      0.00
   -8   17    8      4.48      0.00
   -7   17    8      1.36      0.00
   -6   17    8      0.95      0.00
   -5   17    8      3.77      0.00
   -4   17    8      0.66      0.00
   -3   17    8     -0.46      0.00
   -2   17    8     -0.37      0.00
   -1   17    8     -0.73      0.00
  -19   18    8      0.25      0.00
  -18   18    8      6.91      0.00
  -17   18    8      2.79      0.00
  -16   18    8     -2.24      0.00
  -15   18    8      2.65      0.00
  -14   18    8     -2.82      0.00
  -13   18    8     -3.48      0.00
  -12   18    8      1.81      0.00
  -11   18    8     -0.30      0.00
  -10   18    8      0.35      0.00
   -9   18    8      1.77      0.00
   -8   18    8     -4.59      0.00
   -7   18    8     -0.12      0.00
   -6   18    8     -0.27      0.00
   -5   18    8     -4.25      0.00
   -4   18    8      2.06      0.00
   -3   18    8      1.18      0.00
   -2   18    8      1.65      0.00
  -18   19    8     -2.34      0.00
  -17   19    8      1.53      0.00
  -16   19    8     -2.23      0.00
  -15   19    8     -2.81      0.00
  -14   19    8      2.04      0.00
  -13   19    8     -0.57      0.00
  -12   19    8     -2.84      0.00
  -11   19    8      3.00      0.00
  -10   19    8      3.15      0.00
   -9   19    8     -0.25      0.00
   -8   19    8      1.29      0.00
   -7   19    8     -0.72      0.00
   -6   19    8     -0.18      0.00
   -5   19    8      2.68      0.00
   -4   19    8     -2.76      0.00
  -17   20    8      1.86      0.00
  -16   20    8      6.00      0.00
  -15   20    8      1.12      0.00
  -14   20    8      1.45      0.00
  -13   20    8      0.58      0.00
  -12   20    8      0.22      0.00
  -11   20    8     -0.75      0.00
  -10   20    8     -6.31      0.00
   -9   20    8     -4.39      0.00
   -8   20    8      3.22      0.00
   -7   20    8      2.04      0.00
  -14   21    8     -2.88      0.00
  -13   21    8      0.23      0.00
  -12   21    8      1.41      0.00
  -11   21    8      0.45      0.00
  -10   21    8      6.57      0.00
    3  -21    9     -0.84      0.00
    4  -21    9     -4.07      0.00
    5  -21    9      0.96      0.00
    6  -21    9      2.07      0.00
    7  -21    9     -1.35      0.00
    8  -21    9     -3.06      0.00
    9  -21    9     -0.17      0.00
   10  -21    9     -1.18      0.00
    0  -20    9      2.96      0.00
    1  -20    9      0.49      0.00
    2  -20    9      1.60      0.00
    3  -20    9      0.92      0.00
    4  -20    9      1.15      0.00
    5  -20    9     -1.92      0.00
    6  -20    9      0.65      0.00
    7  -20    9      3.85      0.00
    8  -20    9      1.75      0.00
    9  -20    9      0.22      0.00
   10  -20    9      0.85      0.00
   11  -20    9     -2.52      0.00
   12  -20    9     -1.04      0.00
   -1  -19    9     -4.12      0.00
    0  -19    9     -0.56      0.00
    1  -19    9     -2.55      0.00
    2  -19    9     -4.37      0.00
    3  -19    9      1.05      0.00
    4  -19    9      0.09      0.00
    5  -19    9     -2.56      0.00
    6  -19    9     -2.84      0.00
    7  -19    9      1.25      0.00
    8  -19    9      3.66      0.00
    9  -19    9     -3.35      0.00
   10  -19    9     -0.77      0.00
   11  -19    9      3.58      0.00
   12  -19    9     -2.74      0.00
   13  -19    9     -3.32      0.00
   -3  -18    9     -1.05      0.00
   -2  -18    9      4.96      0.00
   -1  -18    9      2.93      0.00
    0  -18    9     -0.54      0.00
    1  -18    9      5.85      0.00
    2  -18    9      3.50      0.00
    3  -18    9     -0.43      0.00
    4  -18    9      1.55      0.00
    5  -18    9      2.44      0.00
    6  -18    9     -1.49      0.00
    7  -18    9     -4.13      0.00
    8  -18    9     -3.76      0.00
    9  -18    9      2.18      0.00
   10  -18    9      2.25      0.00
   11  -18    9      0.79      0.00
   12  -18    9      3.77      0.00
   13  -18    9      2.46      0.00
   14  -18    9     -2.33      0.00
   -5  -17    9      0.38      0.00
   -4  -17    9     -1.82      0.00
   -3  -17    9     -0.22      0.00
   -2  -17    9     -3.05      0.00
   -1  -17    9     -1.63      0.00
    0  -17    9      0.70      0.00
    1  -17    9     -7.66      0.00
    2  -17    9     -1.76      0.00
    3  -17    9     -0.97      0.00
    4  -17    9      1.54      0.00
    5  -17    9      3.94      0.00
    6  -17    9      2.37      0.00
    7  -17    9      2.80      0.00
    8  -17    9      0.79      0.00
    9  -17    9     -3.12      0.00
   10  -17    9     -4.24      0.00
   11  -17    9      0.48      0.00
   12  -17    9      0.78      0.00
   13  -17    9     -1.45      0.00
   14  -17    9      2.98      0.00
   15  -17    9      2.71      0.00
   -6  -16    9     -2.74      0.00
   -5  -16    9      0.26      0.00
   -4  -16    9      6.17      0.00
   -3  -16    9     -1.08      0.00
   -2  -16    9     -0.97      0.00
   -1  -16    9      4.79      0.00
    0  -16    9     -1.46      0.00
    1  -16    9      3.20      0.00
    2  -16    9     -1.43      0.00
    3  -16    9     -0.75      0.00
    4  -16    9     -5.43      0.00
    5  -16    9     -4.37      0.00
    6  -16    9      1.32      0.00
    7  -16    9     -1.46      0.00
    8  -16    9      3.20      0.00
    9  -16    9      1.84      0.00
   10  -16    9      0.38      0.00
   11  -16    9     -0.69      0.00
   12  -16    9     -0.34      0.00
   13  -16    9     -0.44      0.00
   14  -16    9     -2.27      0.00
   15  -16    9     -0.50      0.00
   -7  -15    9      1.00      0.00
   -6  -15    9      1.25      0.00
   -5  -15    9     -4.55      0.00
   -4  -15    9     -1.96      0.00
   -3  -15    9      4.02      0.00
   -2  -15    9     -0.13      0.00
   -1  -15    9     -5.54      0.00
    0  -15    9      4.62      0.00
    1  -15    9     -0.41      0.00
    2  -15    9      4.07      0.00
    3  -15    9      4.89      0.00
    4  -15    9      3.72      0.00
    5  -15    9     -2.19      0.00
    6  -15    9     -3.69      0.00
    7  -15    9      2.10      0.00
    8  -15    9     -2.56      0.00
    9  -15    9      1.01      0.00
   10  -15    9      0.05      0.00
   11  -15    9     -1.51      0.00
   12  -15    9      0.29      0.00
   13  -15    9      1.25      0.00
   14  -15    9      2.29      0.00
   15  -15    9      1.59      0.00
   16  -15    9      3.13      0.00
   -9  -14    9      2.25      0.00
   -8  -14    9      1.82      0.00
   -7  -14    9     -2.46      0.00
   -6  -14    9      0.48      0.00
   -5  -14    9      5.42      0.00
   -4  -14    9     -4.31      0.00
   -3  -14    9     -1.27      0.00
   -2  -14    9      0.67      0.00
   -1  -14    9      1.23      0.00
    0  -14    9     -4.54      0.00
    1  -14    9      1.44      0.00
    2  -14    9     -4.36      0.00
    3  -14    9     -3.52      0.00
    4  -14    9      1.54      0.00
    5  -14    9      2.62      0.00
    6  -14    9      0.11      0.00
    7  -14    9     -2.84      0.00
    8  -14    9      4.54      0.00
    9  -14    9     -1.11      0.00
   10  -14    9     -2.79      0.00
   11  -14    9      0.86      0.00
   12  -14    9      0.40      0.00
   13  -14    9     -0.31      0.00
   14  -14    9     -2.65      0.00
   15  -14    9     -0.24      0.00
   16  -14    9     -0.49      0.00
  -10  -13    9     -1.74      0.00
   -9  -13    9     -4.99      0.00
   -8  -13    9     -1.55      0.00
   -7  -13    9      3.11      0.00
   -6  -13    9      1.56      0.00
   -5  -13    9     -4.81      0.00
   -4  -13    9      3.56      0.00
   -3  -13    9     -1.21      0.00
   -2  -13    9     -0.26      0.00
   -1  -13    9     -1.49      0.00
    0  -13    9      5.24      0.00
    1  -13    9     -1.04      0.00
    2  -13    9      0.15      0.00
    3  -13    9     -1.21      0.00
    4  -13    9      0.02      0.00
    5  -13    9      3.11      0.00
    6  -13    9     -1.93      0.00
    7  -13    9      0.49      0.00
    8  -13    9     -1.79      0.00
    9  -13    9      4.13      0.00
   10  -13    9      2.47      0.00
   11  -13    9     -0.86      0.00
   12  -13    9     -0.95      0.00
   13  -13    9     -2.14      0.00
   14  -13    9      2.40      0.00
   15  -13    9     -0.01      0.00
   16  -13    9      0.51      0.00
  -11  -12    9      3.31      0.00
  -10  -12    9      3.90      0.00
   -9  -12    9      3.93      0.00
   -8  -12    9     -1.99      0.00
   -7  -12    9     -0.36      0.00
   -6  -12    9     -1.59      0.00
   -5  -12    9      3.11      0.00
   -4  -12    9     -0.93      0.00
   -3  -12    9      2.03      0.00
   -2  -12    9     -0.58      0.00
   -1  -12    9      1.60      0.00
    0  -12    9     -2.58      0.00
    1  -12    9      2.27      0.00
    2  -12    9     -0.77      0.00
    3  -12    9      1.26      0.00
    4  -12    9     -1.19      0.00
    5  -12    9     -3.27      0.00
    6  -12    9      4.51      0.00
    7  -12    9     -1.56      0.00
    8  -12    9     -2.47      0.00
    9  -12    9     -2.63      0.00
   10  -12    9      0.60      0.00
   11  -12    9     -1.77      0.00
   12  -12    9      0.67      0.00
   13  -12    9      3.26      0.00
   14  -12    9     -3.03      0.00
   15  -12    9      0.08      0.00
   16  -12    9      0.76      0.00
  -12  -11    9     -1.43      0.00
  -11  -11    9     -7.02      0.00
  -10  -11    9     -1.13      0.00
   -9  -11    9     -2.87      0.00
   -8  -11    9      1.96      0.00
   -7  -11    9      1.45      0.00
   -6  -11    9      1.62      0.00
   -5  -11    9     -4.43      0.00
   -4  -11    9      0.53      0.00
   -3  -11    9     -1.59      0.00
   -2  -11    9      2.54      0.00
   -1  -11    9     -1.47      0.00
    0  -11    9     -3.01      0.00
    1  -11    9     -1.82      0.00
    2  -11    9      1.91      0.00
    3  -11    9     -2.29      0.00
    4  -11    9     -1.40      0.00
    5  -11    9      4.83      0.00
    6  -11    9     -2.85      0.00
    7  -11    9      0.56      0.00
    8  -11    9      2.03      0.00
    9  -11    9      1.78      0.00
   10  -11    9     -0.79      0.00
   11  -11    9      1.65      0.00
   12  -11    9      1.72      0.00
   13  -11    9     -1.32      0.00
   14  -11    9     -0.27      0.00
   15  -11    9     -0.25      0.00
   16  -11    9     -1.18      0.00
  -12  -10    9      3.22      0.00
  -11  -10    9      6.53      0.00
  -10  -10    9     -2.65      0.00
   -9  -10    9      6.10      0.00
   -8  -10    9     -3.25      0.00
   -7  -10    9     -5.49      0.00
   -6  -10    9     -0.33      0.00
   -5  -10    9      6.17      0.00
   -4  -10    9     -1.20      0.00
   -3  -10    9      1.23      0.00
   -2  -10    9     -2.57      0.00
   -1  -10    9      3.60      0.00
    0  -10    9      6.05      0.00
    1  -10    9      3.09      0.00
    2  -10    9      0.54      0.00
    3  -10    9     -1.90      0.00
    4  -10    9      1.97      0.00
    5  -10    9     -3.03      0.00
    6  -10    9      3.97      0.00
    7  -10    9     -4.47      0.00
    8  -10    9     -2.55      0.00
    9  -10    9     -0.45      0.00
   10  -10    9      1.84      0.00
   11  -10    9     -0.07      0.00
   12  -10    9     -2.96      0.00
   13  -10    9      1.35      0.00
   14  -10    9      1.47      0.00
   15  -10    9     -2.33      0.00
   16  -10    9     -0.48      0.00
  -13   -9    9     -4.68      0.00
  -12   -9    9      1.44      0.00
  -11   -9    9     -3.39      0.00
  -10   -9    9      0.94      0.00
   -9   -9    9     -2.52      0.00
   -8   -9    9      5.07      0.00
   -7   -9    9     -2.12      0.00
   -6   -9    9      2.95      0.00
   -5   -9    9     -5.72      0.00
   -4   -9    9     -2.71      0.00
   -3   -9    9      3.07      0.00
   -2   -9    9     -0.46      0.00
   -1   -9    9    -10.02      0.00
    0   -9    9     -7.80      0.00
    1   -9    9      2.34      0.00
    2   -9    9      0.03      0.00
    3   -9    9      4.48      0.00
    4   -9    9     -2.12      0.00
    5   -9    9      0.37      0.00
    6   -9    9     -3.70      0.00
    7   -9    9      8.76      0.00
    8   -9    9     -0.18      0.00
    9   -9    9     -1.09      0.00
   10   -9    9     -2.43      0.00
   11   -9    9      0.84      0.00
   12   -9    9      1.90      0.00
   13   -9    9     -1.73      0.00
   14   -9    9      0.70      0.00
   15   -9    9      2.59      0.00
   16   -9    9      1.03      0.00
  -14   -8    9      3.08      0.00
  -13   -8    9      2.64      0.00
  -12   -8    9     -4.62      0.00
  -11   -8    9      6.24      0.00
  -10   -8    9     -3.15      0.00
   -9   -8    9     -3.69      0.00
   -8   -8    9     -1.56      0.00
   -7   -8    9      8.94      0.00
   -6   -8    9     -6.62      0.00
   -5   -8    9      6.78      0.00
   -4   -8    9      4.41      0.00
   -3   -8    9     -0.15      0.00
   -2   -8    9      7.15      0.00
   -1   -8    9      4.00      0.00
    0   -8    9      0.81      0.00
    1   -8    9     -9.70      0.00
    2   -8    9      6.29      0.00
    3   -8    9     -0.47      0.00
    4   -8    9     -2.12      0.00
    5   -8    9     -1.22      0.00
    6   -8    9      5.23      0.00
    7   -8    9     -9.11      0.00
    8   -8    9      2.90      0.00
    9   -8    9      3.14      0.00
   10   -8    9      1.68      0.00
   11   -8    9     -3.93      0.00
   12   -8    9     -0.34      0.00
   13   -8    9      1.36      0.00
   14   -8    9      0.85      0.00
   15   -8    9      1.65      0.00
   16   -8    9     -0.40      0.00
  -15   -7    9     -2.67      0.00
  -14   -7    9      0.31      0.00
  -13   -7    9     -0.55      0.00
  -12   -7    9     -0.50      0.00
  -11   -7    9     -4.97      0.00
  -10   -7    9      7.41      0.00
   -9   -7    9      1.13      0.00
   -8   -7    9      1.54      0.00
   -7   -7    9     -9.61      0.00
   -6   -7    9      5.73      0.00
   -5   -7    9     -2.59      0.00
   -4   -7    9     -9.65      0.00
   -3   -7    9     -8.23      0.00
   -2   -7    9      0.22      0.00
   -1   -7    9      9.72      0.00
    0   -7    9      0.76      0.00
    1   -7    9      7.12      0.00
    2   -7    9    -12.34      0.00
    3   -7    9     -1.30      0.00
    4   -7    9      3.48      0.00
    5   -7    9      2.84      0.00
    6   -7    9     -4.25      0.00
    7   -7    9      7.28      0.00
    8   -7    9     -6.95      0.00
    9   -7    9     -3.14      0.00
   10   -7    9      1.23      0.00
   11   -7    9      4.36      0.00
   12   -7    9     -3.85      0.00
   13   -7    9     -2.14      0.00
   14   -7    9     -2.08      0.00
   15   -7    9     -1.77      0.00
   16   -7    9      1.67      0.00
  -15   -6    9     -0.13      0.00
  -14   -6    9     -0.56      0.00
  -13   -6    9      2.39      0.00
  -12   -6    9     -1.89      0.00
  -11   -6    9      1.15      0.00
  -10   -6    9     -3.05      0.00
   -9   -6    9      3.12      0.00
   -8   -6    9     -5.65      0.00
   -7   -6    9      9.61      0.00
   -6   -6    9     -6.11      0.00
   -5   -6    9      0.79      0.00
   -4   -6    9     11.51      0.00
   -3   -6    9     -0.93      0.00
   -2   -6    9     -5.15      0.00
   -1   -6    9     -5.68      0.00
    0   -6    9      4.38      0.00
    1   -6    9     -3.60      0.00
    2   -6    9     13.58      0.00
    3   -6    9     -3.42      0.00
    4   -6    9     -3.53      0.00
    5   -6    9     -5.20      0.00
    6   -6    9      5.12      0.00
    7   -6    9     -0.17      0.00
    8   -6    9      5.30      0.00
    9   -6    9     -1.46      0.00
   10   -6    9      0.47      0.00
   11   -6    9     -1.40      0.00
   12   -6    9      5.99      0.00
   13   -6    9      1.71      0.00
   14   -6    9     -2.51      0.00
   15   -6    9      0.27      0.00
  -16   -5    9     -4.12      0.00
  -15   -5    9      5.68      0.00
  -14   -5    9     -0.42      0.00
  -13   -5    9     -3.44      0.00
  -12   -5    9      5.52      0.00
  -11   -5    9     -2.87      0.00
  -10   -5    9     -2.78      0.00
   -9   -5    9     -5.03      0.00
   -8   -5    9     11.05      0.00
   -7   -5    9     -4.45      0.00
   -6   -5    9      4.52      0.00
   -5   -5    9     -0.85      0.00
   -4   -5    9     -1.91      0.00
   -3   -5    9      5.09      0.00
   -2   -5    9     -6.19      0.00
   -1   -5    9      0.79      0.00
    0   -5    9     -7.16      0.00
    1   -5    9      3.69      0.00
    2   -5    9     -9.18      0.00
    3   -5    9     11.14      0.00
    4   -5    9     -0.36      0.00
    5   -5    9      3.31      0.00
    6   -5    9     -6.22      0.00
    7   -5    9     -0.50      0.00
    8   -5    9     -0.30      0.00
    9   -5    9      1.19      0.00
   10   -5    9     -5.59      0.00
   11   -5    9     -0.22      0.00
   12   -5    9      0.59      0.00
   13   -5    9     -1.06      0.00
   14   -5    9      0.28      0.00
   15   -5    9      0.11      0.00
  -17   -4    9      2.62      0.00
  -16   -4    9      0.85      0.00
  -15   -4    9     -4.24      0.00
  -14   -4    9      1.00      0.00
  -13   -4    9      3.95      0.00
  -12   -4    9     -1.79      0.00
  -11   -4    9      1.99      0.00
  -10   -4    9      0.48      0.00
   -9   -4    9      6.90      0.00
   -8   -4    9    -10.77      0.00
   -7   -4    9     -2.89      0.00
   -6   -4    9     -5.17      0.00
   -5   -4    9      0.14      0.00
   -4   -4    9      1.57      0.00
   -3   -4    9     -1.77      0.00
   -2   -4    9     14.68      0.00
   -1   -4    9     -0.77      0.00
    0   -4    9      4.69      0.00
    1   -4    9    -12.01      0.00
    2   -4    9      4.75      0.00
    3   -4    9     -5.16      0.00
    4   -4    9      4.74      0.00
    5   -4    9     -5.49      0.00
    6   -4    9      3.61      0.00
    7   -4    9     -0.69      0.00
    8   -4    9      0.30      0.00
    9   -4    9      0.57      0.00
   10   -4    9      6.41      0.00
   11   -4    9     -1.05      0.00
   12   -4    9     -3.63      0.00
   13   -4    9      4.12      0.00
   14   -4    9      1.60      0.00
   15   -4    9     -4.43      0.00
  -17   -3    9      1.20      0.00
  -16   -3    9     -2.17      0.00
  -15   -3    9     -4.90      0.00
  -14   -3    9      1.45      0.00
  -13   -3    9     -2.78      0.00
  -12   -3    9     -2.28      0.00
  -11   -3    9      1.06      0.00
  -10   -3    9      6.07      0.00
   -9   -3    9     -7.96      0.00
   -8   -3    9      2.28      0.00
   -7   -3    9      6.51      0.00
   -6   -3    9      8.58      0.00
   -5   -3    9     -4.83      0.00
   -4   -3    9     -6.68      0.00
   -3   -3    9      7.68      0.00
   -2   -3    9    -14.78      0.00
   -1   -3    9      1.60      0.00
    0   -3    9     -3.19      0.00
    1   -3    9     16.23      0.00
    2   -3    9     -5.81      0.00
    3   -3    9     -1.87      0.00
    4   -3    9     -0.50      0.00
    5   -3    9      8.54      0.00
    6   -3    9     -6.64      0.00
    7   -3    9     -2.50      0.00
    8   -3    9      2.43      0.00
    9   -3    9      1.26      0.00
   10   -3    9     -4.63      0.00
   11   -3    9      0.60      0.00
   12   -3    9     -0.90      0.00
   13   -3    9     -1.19      0.00
   14   -3    9      0.51      0.00
  -18   -2    9     -3.38      0.00
  -17   -2    9     -0.38      0.00
  -16   -2    9      7.88      0.00
  -15   -2    9      3.54      0.00
  -14   -2    9     -1.80      0.00
  -13   -2    9      2.33      0.00
  -12   -2    9      2.21      0.00
  -11   -2    9      2.31      0.00
  -10   -2    9     -7.21      0.00
   -9   -2    9      1.83      0.00
   -8   -2    9      3.40      0.00
   -7   -2    9     -0.22      0.00
   -6   -2    9     -9.28      0.00
   -5   -2    9      4.91      0.00
   -4   -2    9     10.12      0.00
   -3   -2    9    -12.45      0.00
   -2   -2    9      3.70      0.00
   -1   -2    9      0.76      0.00
    0   -2    9     14.91      0.00
    1   -2    9    -18.87      0.00
    2   -2    9     -0.90      0.00
    3   -2    9      3.46      0.00
    4   -2    9      1.66      0.00
    5   -2    9     -8.01      0.00
    6   -2    9     10.22      0.00
    7   -2    9      1.38      0.00
    8   -2    9     -6.73      0.00
    9   -2    9     -0.56      0.00
   10   -2    9      3.89      0.00
   11   -2    9     -0.46      0.00
   12   -2    9      0.79      0.00
   13   -2    9      0.62      0.00
   14   -2    9      2.16      0.00
  -18   -1    9      3.64      0.00
  -17   -1    9     -1.72      0.00
  -16   -1    9     -5.21      0.00
  -15   -1    9     -2.58      0.00
  -14   -1    9     -2.95      0.00
  -13   -1    9     -0.22      0.00
  -12   -1    9     -0.04      0.00
  -11   -1    9     -8.55      0.00
  -10   -1    9      5.56      0.00
   -9   -1    9      6.59      0.00
   -8   -1    9     -5.48      0.00
   -7   -1    9    -11.36      0.00
   -5   -1    9      2.93      0.00
   -4   -1    9    -11.14      0.00
   -3   -1    9      9.18      0.00
   -2   -1    9      1.47      0.00
   -1   -1    9     -1.47      0.00
    0   -1    9    -20.66      0.00
    1   -1    9     24.26      0.00
    2   -1    9      7.59      0.00
    3   -1    9     -9.56      0.00
    4   -1    9     -8.09      0.00
    5   -1    9     10.21      0.00
    6   -1    9     -5.65      0.00
    7   -1    9      0.40      0.00
    8   -1    9      3.39      0.00
    9   -1    9     -1.10      0.00
   10   -1    9     -0.66      0.00
   11   -1    9      0.21      0.00
   12   -1    9     -0.65      0.00
   13   -1    9     -2.10      0.00
   14   -1    9     -0.60      0.00
  -19    0    9     -0.42      0.00
  -18    0    9     -0.74      0.00
  -17    0    9      0.90      0.00
  -16    0    9      1.25      0.00
  -15    0    9      7.29      0.00
  -14    0    9      3.23      0.00
  -13    0    9      0.54      0.00
  -12    0    9     -1.43      0.00
  -11    0    9      6.47      0.00
  -10    0    9     -3.28      0.00
   -9    0    9     -5.93      0.00
   -8    0    9      4.15      0.00
   -7    0    9     16.63      0.00
   -6    0    9     -0.66      0.00
   -5    0    9    -12.25      0.00
   -4    0    9      5.27      0.00
   -3    0    9      2.36      0.00
   -2    0    9      1.96      0.00
   -1    0    9    -11.88      0.00
    0    0    9     18.15      0.00
    1    0    9    -16.05      0.00
    2    0    9     -7.40      0.00
    3    0    9      8.77      0.00
    4    0    9      9.43      0.00
    5    0    9    -12.17      0.00
    6    0    9      1.16      0.00
    7    0    9      4.88      0.00
    8    0    9     -0.35      0.00
    9    0    9     -0.92      0.00
   10    0    9     -1.29      0.00
   11    0    9      0.93      0.00
   12    0    9     -0.96      0.00
   13    0    9     -0.47      0.00
  -19    1    9      2.70      0.00
  -18    1    9     -1.74      0.00
  -17    1    9     -2.22      0.00
  -16    1    9      2.06      0.00
  -15    1    9     -5.98      0.00
  -14    1    9     -4.05      0.00
  -13    1    9     -3.63      0.00
  -12    1    9      4.37      0.00
  -11    1    9     -1.92      0.00
  -10    1    9     -1.65      0.00
   -9    1    9      2.28      0.00
   -8    1    9      0.10      0.00
   -7    1    9    -11.72      0.00
   -6    1    9     -8.04      0.00
   -5    1    9     15.22      0.00
   -4    1    9     -1.89      0.00
   -3    1    9     -7.88      0.00
   -2    1    9     -0.61      0.00
   -1    1    9     19.45      0.00
    0    1    9    -16.38      0.00
    1    1    9      1.11      0.00
    2    1    9      9.21      0.00
    3    1    9      2.68      0.00
    4    1    9    -10.63      0.00
    5    1    9      5.63      0.00
    6    1    9     -0.54      0.00
    7    1    9     -4.91      0.00
    8    1    9      0.30      0.00
    9    1    9      0.82      0.00
   10    1    9      1.76      0.00
   11    1    9      1.56      0.00
   12    1    9      2.73      0.00
   13    1    9     -1.89      0.00
  -20    2    9     -0.20      0.00
  -19    2    9     -3.72      0.00
  -18    2    9      1.55      0.00
  -17    2    9      4.94      0.00
  -16    2    9     -2.83      0.00
  -15    2    9      3.43      0.00
  -14    2    9      3.64      0.00
  -13    2    9      1.56      0.00
  -12    2    9     -3.71      0.00
  -11    2    9      1.41      0.00
  -10    2    9      1.79      0.00
   -9    2    9      0.88      0.00
   -8    2    9     -1.60      0.00
   -7    2    9      0.99      0.00
   -6    2    9     10.46      0.00
   -5    2    9     -8.03      0.00
   -4    2    9      1.22      0.00
   -3    2    9     -0.62      0.00
   -2    2    9      3.90      0.00
   -1    2    9    -13.13      0.00
    0    2    9      8.32      0.00
    1    2    9      2.78      0.00
    2    2    9     -8.15      0.00
    3    2    9     -7.92      0.00
    4    2    9     11.51      0.00
    5    2    9      0.58      0.00
    6    2    9     -1.03      0.00
    7    2    9      1.78      0.00
    8    2    9      1.70      0.00
    9    2    9     -0.74      0.00
   10    2    9     -3.11      0.00
   11    2    9     -0.77      0.00
   12    2    9     -0.19      0.00
  -20    3    9      0.59      0.00
  -19    3    9      4.00      0.00
  -18    3    9     -1.59      0.00
  -17    3    9     -5.81      0.00
  -16    3    9     -0.27      0.00
  -15    3    9     -0.02      0.00
  -14    3    9      0.42      0.00
  -13    3    9      0.57      0.00
  -12    3    9      0.76      0.00
  -11    3    9     -0.20      0.00
  -10    3    9      2.09      0.00
   -9    3    9     -4.73      0.00
   -8    3    9     -1.60      0.00
   -7    3    9      4.24      0.00
   -6    3    9     -5.90      0.00
   -5    3    9      2.75      0.00
   -4    3    9      0.89      0.00
   -3    3    9      7.70      0.00
   -2    3    9    -10.04      0.00
   -1    3    9      8.52      0.00
    0    3    9      2.15      0.00
    1    3    9     -1.13      0.00
    2    3    9     -3.68      0.00
    3    3    9      9.15      0.00
    4    3    9     -5.14      0.00
    5    3    9     -2.26      0.00
    6    3    9     -1.74      0.00
    7    3    9     -1.52      0.00
    8    3    9      1.33      0.00
    9    3    9     -1.27      0.00
   10    3    9      1.12      0.00
   11    3    9     -2.40      0.00
   12    3    9     -1.64      0.00
  -20    4    9     -0.54      0.00
  -19    4    9     -0.90      0.00
  -18    4    9      1.84      0.00
  -17    4    9      3.87      0.00
  -16    4    9      0.08      0.00
  -15    4    9     -1.04      0.00
  -14    4    9     -2.68      0.00
  -13    4    9     -2.35      0.00
  -12    4    9     -0.53      0.00
  -11    4    9      2.03      0.00
  -10    4    9     -0.76      0.00
   -9    4    9      4.75      0.00
   -8    4    9      3.36      0.00
   -7    4    9     -6.02      0.00
   -6    4    9     -0.50      0.00
   -5    4    9     -2.06      0.00
   -4    4    9      4.06      0.00
   -3    4    9     -9.11      0.00
   -2    4    9      5.10      0.00
   -1    4    9     -7.11      0.00
    0    4    9     -1.97      0.00
    1    4    9      2.40      0.00
    2    4    9      6.72      0.00
    3    4    9     -8.78      0.00
    4    4    9      4.01      0.00
    5    4    9      1.03      0.00
    6    4    9      1.36      0.00
    7    4    9      1.93      0.00
    8    4    9     -1.48      0.00
    9    4    9      4.08      0.00
   10    4    9     -0.30      0.00
   11    4    9      1.68      0.00
  -21    5    9      0.39      0.00
  -20    5    9      0.47      0.00
  -19    5    9     -1.65      0.00
  -18    5    9     -1.76      0.00
  -17    5    9     -1.64      0.00
  -16    5    9      1.82      0.00
  -15    5    9     -1.01      0.00
  -14    5    9      3.52      0.00
  -13    5    9      1.04      0.00
  -12    5    9      0.86      0.00
  -11    5    9     -6.20      0.00
  -10    5    9     -3.54      0.00
   -9    5    9      3.34      0.00
   -8    5    9      0.07      0.00
   -7    5    9      1.97      0.00
   -6    5    9     -0.19      0.00
   -5    5    9      3.19      0.00
   -4    5    9     -9.64      0.00
   -3    5    9      9.46      0.00
   -2    5    9      0.98      0.00
   -1    5    9      4.18      0.00
    0    5    9     -2.78      0.00
    1    5    9      0.38      0.00
    2    5    9     -0.12      0.00
    3    5    9     -0.22      0.00
    4    5    9     -3.91      0.00
    5    5    9      4.71      0.00
    6    5    9      0.24      0.00
    7    5    9     -7.76      0.00
    8    5    9      0.61      0.00
    9    5    9      2.66      0.00
   10    5    9     -0.13      0.00
  -21    6    9     -1.45      0.00
  -20    6    9     -0.55      0.00
  -19    6    9      2.73      0.00
  -18    6    9      1.07      0.00
  -17    6    9     -0.07      0.00
  -16    6    9     -3.02      0.00
  -15    6    9      2.23      0.00
  -14    6    9      2.52      0.00
  -13    6    9      2.63      0.00
  -12    6    9     -2.62      0.00
  -11    6    9      4.46      0.00
  -10    6    9      2.26      0.00
   -9    6    9     -7.98      0.00
   -8    6    9      1.48      0.00
   -7    6    9      6.40      0.00
   -6    6    9      1.24      0.00
   -5    6    9     -9.48      0.00
   -4    6    9      9.21      0.00
   -3    6    9     -1.67      0.00
   -2    6    9     -1.78      0.00
   -1    6    9     -5.97      0.00
    0    6    9      2.07      0.00
    1    6    9     -1.10      0.00
    2    6    9     -2.17      0.00
    3    6    9      2.23      0.00
    4    6    9      1.98      0.00
    5    6    9     -3.63      0.00
    6    6    9     -0.14      0.00
    7    6    9      7.23      0.00
    8    6    9     -4.06      0.00
    9    6    9     -5.48      0.00
   10    6    9      2.54      0.00
  -21    7    9      0.96      0.00
  -20    7    9     -0.97      0.00
  -19    7    9     -2.18      0.00
  -18    7    9      2.45      0.00
  -17    7    9     -0.48      0.00
  -16    7    9      1.41      0.00
  -15    7    9     -3.43      0.00
  -14    7    9     -7.10      0.00
  -13    7    9     -1.93      0.00
  -12    7    9      4.20      0.00
  -11    7    9     -0.25      0.00
  -10    7    9     -2.67      0.00
   -9    7    9      2.59      0.00
   -8    7    9     -0.03      0.00
   -7    7    9     -4.51      0.00
   -6    7    9     -2.04      0.00
   -5    7    9     11.46      0.00
   -4    7    9     -6.87      0.00
   -3    7    9     -4.53      0.00
   -2    7    9      1.55      0.00
   -1    7    9      8.17      0.00
    0    7    9      1.80      0.00
    1    7    9     -3.54      0.00
    2    7    9      1.62      0.00
    3    7    9      2.57      0.00
    4    7    9     -4.50      0.00
    5    7    9     -0.35      0.00
    6    7    9      6.44      0.00
    7    7    9     -2.90      0.00
    8    7    9     -1.59      0.00
    9    7    9      1.85      0.00
  -21    8    9      0.16      0.00
  -20    8    9      1.86      0.00
  -19    8    9     -1.39      0.00
  -18    8    9     -2.59      0.00
  -17    8    9      1.98      0.00
  -16    8    9     -0.87      0.00
  -15    8    9      2.97      0.00
  -14    8    9      4.79      0.00
  -13    8    9      0.71      0.00
  -12    8    9     -3.69      0.00
  -11    8    9      0.94      0.00
  -10    8    9      3.28      0.00
   -9    8    9     -2.11      0.00
   -8    8    9     -3.82      0.00
   -7    8    9     -0.86      0.00
   -6    8    9      4.46      0.00
   -5    8    9     -5.50      0.00
   -4    8    9      0.19      0.00
   -3    8    9      1.25      0.00
   -2    8    9      4.35      0.00
   -1    8    9     -6.17      0.00
    0    8    9     -4.93      0.00
    1    8    9      8.24      0.00
    2    8    9      0.28      0.00
    3    8    9     -6.56      0.00
    4    8    9      4.39      0.00
    5    8    9      3.95      0.00
    6    8    9     -8.77      0.00
    7    8    9      3.97      0.00
    8    8    9      6.95      0.00
  -21    9    9     -0.30      0.00
  -20    9    9     -0.82      0.00
  -19    9    9      1.46      0.00
  -18    9    9      1.23      0.00
  -17    9    9      0.75      0.00
  -16    9    9      2.02      0.00
  -15    9    9     -2.49      0.00
  -14    9    9     -2.50      0.00
  -13    9    9     -0.88      0.00
  -12    9    9      1.52      0.00
  -11    9    9      0.69      0.00
  -10    9    9      1.17      0.00
   -9    9    9      2.32      0.00
   -8    9    9      0.67      0.00
   -7    9    9      3.00      0.00
   -6    9    9     -3.04      0.00
   -5    9    9     -0.40      0.00
   -4    9    9      3.20      0.00
   -3    9    9      3.40      0.00
   -2    9    9     -8.53      0.00
   -1    9    9     -0.10      0.00
    0    9    9      6.34      0.00
    1    9    9     -6.52      0.00
    2    9    9     -3.01      0.00
    3    9    9      4.44      0.00
    4    9    9     -1.08      0.00
    5    9    9     -5.87      0.00
    6    9    9      2.71      0.00
    7    9    9     -1.97      0.00
  -21   10    9     -0.31      0.00
  -20   10    9     -0.11      0.00
  -19   10    9     -0.26      0.00
  -18   10    9     -1.47      0.00
  -17   10    9     -0.20      0.00
  -16   10    9     -1.28      0.00
  -15   10    9      0.77      0.00
  -14   10    9      0.69      0.00
  -13   10    9      1.04      0.00
  -12   10    9      0.04      0.00
  -11   10    9     -3.59      0.00
  -10   10    9     -1.37      0.00
   -9   10    9      0.20      0.00
   -8   10    9      0.68      0.00
   -7   10    9     -0.13      0.00
   -6   10    9     -0.10      0.00
   -5   10    9      1.20      0.00
   -4   10    9      1.58      0.00
   -3   10    9     -6.08      0.00
   -2   10    9      6.50      0.00
   -1   10    9      4.43      0.00
    0   10    9     -7.62      0.00
    1   10    9      2.65      0.00
    2   10    9      5.64      0.00
    3   10    9      1.02      0.00
    4   10    9     -4.31      0.00
    5   10    9      5.23      0.00
    6   10    9      4.32      0.00
    7   10    9     -2.50      0.00
  -21   11    9      1.32      0.00
  -20   11    9      0.79      0.00
  -19   11    9     -1.20      0.00
  -18   11    9     -1.03      0.00
  -17   11    9     -0.37      0.00
  -16   11    9     -2.45      0.00
  -15   11    9     -0.51      0.00
  -14   11    9      2.79      0.00
  -13   11    9     -1.06      0.00
  -12   11    9     -0.65      0.00
  -11   11    9      2.34      0.00
  -10   11    9     -0.97      0.00
   -9   11    9     -2.79      0.00
   -8   11    9     -0.16      0.00
   -7   11    9     -2.41      0.00
   -6   11    9      1.90      0.00
   -5   11    9      1.28      0.00
   -4   11    9     -3.15      0.00
   -3   11    9      4.18      0.00
   -2   11    9     -2.16      0.00
   -1   11    9     -3.16      0.00
    0   11    9      2.62      0.00
    1   11    9      2.08      0.00
    2   11    9     -1.27      0.00
    3   11    9     -4.08      0.00
    4   11    9      2.53      0.00
    5   11    9     -3.91      0.00
    6   11    9     -3.17      0.00
  -21   12    9     -0.18      0.00
  -20   12    9      2.43      0.00
  -19   12    9      2.75      0.00
  -18   12    9      0.98      0.00
  -17   12    9      0.01      0.00
  -16   12    9      6.78      0.00
  -15   12    9     -0.17      0.00
  -14   12    9     -4.59      0.00
  -13   12    9      3.36      0.00
  -12   12    9      0.23      0.00
  -11   12    9     -1.02      0.00
  -10   12    9      3.08      0.00
   -9   12    9      3.35      0.00
   -8   12    9     -2.09      0.00
   -7   12    9      1.87      0.00
   -6   12    9     -0.89      0.00
   -5   12    9     -5.43      0.00
   -4   12    9     -0.19      0.00
   -3   12    9      1.05      0.00
   -2   12    9     -1.55      0.00
   -1   12    9      1.06      0.00
    0   12    9      0.74      0.00
    1   12    9     -5.12      0.00
    2   12    9     -0.68      0.00
    3   12    9      5.19      0.00
    4   12    9     -0.59      0.00
    5   12    9     -2.30      0.00
  -21   13    9     -1.55      0.00
  -20   13    9     -2.17      0.00
  -19   13    9     -1.50      0.00
  -18   13    9     -3.14      0.00
  -17   13    9     -2.75      0.00
  -16   13    9     -2.97      0.00
  -15   13    9      0.58      0.00
  -14   13    9      0.95      0.00
  -13   13    9     -3.95      0.00
  -12   13    9      1.50      0.00
  -11   13    9      0.55      0.00
  -10   13    9     -3.17      0.00
   -9   13    9     -0.34      0.00
   -8   13    9      3.48      0.00
   -7   13    9     -1.10      0.00
   -6   13    9      1.80      0.00
   -5   13    9      4.93      0.00
   -4   13    9      0.50      0.00
   -3   13    9     -0.97      0.00
   -2   13    9      3.50      0.00
   -1   13    9      3.35      0.00
    0   13    9     -2.15      0.00
    1   13    9     -1.42      0.00
    2   13    9      1.73      0.00
    3   13    9      0.91      0.00
    4   13    9      3.27      0.00
  -21   14    9     -2.70      0.00
  -20   14    9     -3.14      0.00
  -19   14    9      3.00      0.00
  -18   14    9      7.48      0.00
  -17   14    9      1.80      0.00
  -16   14    9      0.75      0.00
  -15   14    9      1.41      0.00
  -14   14    9     -0.22      0.00
  -13   14    9      0.49      0.00
  -12   14    9     -3.24      0.00
  -11   14    9      0.26      0.00
  -10   14    9      2.20      0.00
   -9   14    9     -0.05      0.00
   -8   14    9     -4.83      0.00
   -7   14    9     -1.46      0.00
   -6   14    9     -0.36      0.00
   -5   14    9     -0.48      0.00
   -4   14    9     -3.23      0.00
   -3   14    9     -1.70      0.00
   -2   14    9     -1.87      0.00
   -1   14    9     -7.45      0.00
    0   14    9      3.88      0.00
    1   14    9      3.73      0.00
    2   14    9     -4.98      0.00
    3   14    9     -2.96      0.00
  -21   15    9      4.67      0.00
  -20   15    9      2.55      0.00
  -19   15    9     -5.30      0.00
  -18   15    9     -5.77      0.00
  -17   15    9      0.82      0.00
  -16   15    9     -2.81      0.00
  -15   15    9      0.22      0.00
  -14   15    9      1.49      0.00
  -13   15    9      0.70      0.00
  -12   15    9      3.47      0.00
  -11   15    9     -1.19      0.00
  -10   15    9      0.55      0.00
   -9   15    9     -0.30      0.00
   -8   15    9      4.33      0.00
   -7   15    9      1.71      0.00
   -6   15    9     -1.05      0.00
   -5   15    9      2.18      0.00
   -4   15    9      3.54      0.00
   -3   15    9     -0.10      0.00
   -2   15    9      1.26      0.00
   -1   15    9      8.86      0.00
    0   15    9     -1.15      0.00
    1   15    9     -2.54      0.00
  -20   16    9      0.48      0.00
  -19   16    9      2.18      0.00
  -18   16    9      3.53      0.00
  -17   16    9     -1.29      0.00
  -16   16    9      0.94      0.00
  -15   16    9     -0.43      0.00
  -14   16    9     -1.37      0.00
  -13   16    9     -1.68      0.00
  -12   16    9     -3.16      0.00
  -11   16    9      0.92      0.00
  -10   16    9     -2.12      0.00
   -9   16    9      0.58      0.00
   -8   16    9     -2.57      0.00
   -7   16    9     -1.70      0.00
   -6   16    9     -0.86      0.00
   -5   16    9     -2.92      0.00
   -4   16    9      0.74      0.00
   -3   16    9     -0.80      0.00
   -2   16    9     -2.10      0.00
   -1   16    9     -4.01      0.00
    0   16    9      0.57      0.00
  -20   17    9      2.14      0.00
  -19   17    9     -0.08      0.00
  -18   17    9     -6.31      0.00
  -17   17    9      1.22      0.00
  -16   17    9      0.08      0.00
  -15   17    9     -0.60      0.00
  -14   17    9      5.98      0.00
  -13   17    9      3.69      0.00
  -12   17    9      1.52      0.00
  -11   17    9     -2.18      0.00
  -10   17    9     -0.11      0.00
   -9   17    9      1.38      0.00
   -8   17    9      3.00      0.00
   -7   17    9      0.08      0.00
   -6   17    9      1.22      0.00
   -5   17    9      1.16      0.00
   -4   17    9     -1.35      0.00
   -3   17    9      1.77      0.00
   -2   17    9     -0.63      0.00
   -1   17    9     -1.66      0.00
  -19   18    9      3.04      0.00
  -18   18    9      5.11      0.00
  -17   18    9     -1.68      0.00
  -16   18    9      1.37      0.00
  -15   18    9     -1.95      0.00
  -14   18    9     -8.60      0.00
  -13   18    9     -0.08      0.00
  -12   18    9     -0.93      0.00
  -11   18    9      0.52      0.00
  -10   18    9      1.46      0.00
   -9   18    9     -1.45      0.00
   -8   18    9     -2.35      0.00
   -7   18    9      0.92      0.00
   -6   18    9     -1.64      0.00
   -5   18    9      0.56      0.00
   -4   18    9      2.01      0.00
   -3   18    9     -0.69      0.00
  -18   19    9      0.11      0.00
  -17   19    9     -1.56      0.00
  -16   19    9     -1.85      0.00
  -15   19    9      2.93      0.00
  -14   19    9      4.25      0.00
  -13   19    9     -2.10      0.00
  -12   19    9      3.49      0.00
  -11   19    9      1.64      0.00
  -10   19    9     -0.26      0.00
   -9   19    9      0.67      0.00
   -8   19    9      0.34      0.00
   -7   19    9     -0.88      0.00
   -6   19    9      0.90      0.00
   -5   19    9     -1.34      0.00
  -16   20    9      0.81      0.00
  -15   20    9     -0.55      0.00
  -14   20    9     -1.35      0.00
  -13   20    9     -0.88      0.00
  -12   20    9     -2.05      0.00
  -11   20    9     -2.74      0.00
  -10   20    9     -5.54      0.00
   -9   20    9      0.83      0.00
   -8   20    9      4.22      0.00
    4  -21   10      0.37      0.00
    5  -21   10      2.12      0.00
    6  -21   10      1.30      0.00
    7  -21   10     -3.17      0.00
    8  -21   10      0.58      0.00
    9  -21   10      0.20      0.00
    1  -20   10      2.45      0.00
    2  -20   10     -0.78      0.00
    3  -20   10     -0.27      0.00
    4  -20   10     -0.85      0.00
    5  -20   10      0.86      0.00
    6  -20   10      1.09      0.00
    7  -20   10      0.99      0.00
    8  -20   10     -1.86      0.00
    9  -20   10     -0.10      0.00
   10  -20   10     -1.28      0.00
   11  -20   10     -4.09      0.00
   -1  -19   10     -0.11      0.00
    0  -19   10     -0.20      0.00
    1  -19   10     -5.63      0.00
    2  -19   10     -0.28      0.00
    3  -19   10      1.80      0.00
    4  -19   10     -1.17      0.00
    5  -19   10     -2.90      0.00
    6  -19   10      2.29      0.00
    7  -19   10      5.20      0.00
    8  -19   10     -0.25      0.00
    9  -19   10     -1.44      0.00
   10  -19   10      3.88      0.00
   11  -19   10      0.89      0.00
   12  -19   10     -3.15      0.00
   13  -19   10     -2.09      0.00
   -3  -18   10      1.31      0.00
   -2  -18   10      3.48      0.00
   -1  -18   10     -1.10      0.00
    0  -18   10      2.64      0.00
    1  -18   10      7.25      0.00
    2  -18   10      1.32      0.00
    3  -18   10     -1.09      0.00
    4  -18   10      0.37      0.00
    5  -18   10     -1.24      0.00
    6  -18   10     -5.31      0.00
    7  -18   10     -4.90      0.00
    8  -18   10      0.03      0.00
    9  -18   10      1.90      0.00
   10  -18   10      0.19      0.00
   11  -18   10      1.50      0.00
   12  -18   10      1.18      0.00
   13  -18   10      0.50      0.00
   -5  -17   10     -1.01      0.00
   -4  -17   10     -1.04      0.00
   -3  -17   10      0.42      0.00
   -2  -17   10     -1.85      0.00
   -1  -17   10     -0.64      0.00
    0  -17   10     -5.42      0.00
    1  -17   10     -5.99      0.00
    2  -17   10      1.24      0.00
    3  -17   10      2.20      0.00
    4  -17   10      5.24      0.00
    5  -17   10      3.32      0.00
    6  -17   10      2.32      0.00
    7  -17   10      1.30      0.00
    8  -17   10     -1.55      0.00
    9  -17   10     -2.19      0.00
   10  -17   10     -0.89      0.00
   11  -17   10      1.41      0.00
   12  -17   10     -0.22      0.00
   13  -17   10     -0.51      0.00
   14  -17   10      2.21      0.00
   -6  -16   10     -1.62      0.00
   -5  -16   10      5.66      0.00
   -4  -16   10     -0.10      0.00
   -3  -16   10     -5.25      0.00
   -2  -16   10      4.39      0.00
   -1  -16   10      3.14      0.00
    0  -16   10     -0.20      0.00
    1  -16   10      2.31      0.00
    2  -16   10     -3.61      0.00
    3  -16   10     -3.76      0.00
    4  -16   10     -7.30      0.00
    5  -16   10      1.32      0.00
    6  -16   10      1.27      0.00
    7  -16   10      1.30      0.00
    8  -16   10      2.81      0.00
    9  -16   10     -1.84      0.00
   10  -16   10      0.86      0.00
   11  -16   10      0.37      0.00
   12  -16   10     -0.52      0.00
   13  -16   10     -0.28      0.00
   14  -16   10      1.49      0.00
   -7  -15   10      2.40      0.00
   -6  -15   10     -1.05      0.00
   -5  -15   10     -2.39      0.00
   -4  -15   10      6.01      0.00
   -3  -15   10      1.79      0.00
   -2  -15   10     -5.81      0.00
   -1  -15   10     -0.01      0.00
    0  -15   10      4.67      0.00
    1  -15   10     -1.13      0.00
    2  -15   10      7.25      0.00
    3  -15   10      1.63      0.00
    4  -15   10      0.14      0.00
    5  -15   10     -5.35      0.00
    6  -15   10      0.41      0.00
    7  -15   10      0.55      0.00
    8  -15   10     -1.67      0.00
    9  -15   10      1.85      0.00
   10  -15   10     -2.86      0.00
   11  -15   10     -0.99      0.00
   12  -15   10      0.63      0.00
   13  -15   10      0.27      0.00
   14  -15   10     -0.64      0.00
   15  -15   10      0.64      0.00
   -9  -14   10      2.15      0.00
   -8  -14   10     -1.07      0.00
   -7  -14   10     -3.52      0.00
   -6  -14   10      0.77      0.00
   -5  -14   10     -3.64      0.00
   -4  -14   10     -5.04      0.00
   -3  -14   10      2.63      0.00
   -2  -14   10     -0.13      0.00
   -1  -14   10      0.97      0.00
    0  -14   10     -2.99      0.00
    1  -14   10     -0.35      0.00
    2  -14   10     -7.68      0.00
    3  -14   10      5.65      0.00
    4  -14   10      2.60      0.00
    5  -14   10      0.18      0.00
    6  -14   10     -2.95      0.00
    7  -14   10      1.70      0.00
    8  -14   10      2.01      0.00
    9  -14   10     -4.56      0.00
   10  -14   10      1.87      0.00
   11  -14   10      2.10      0.00
   12  -14   10      0.99      0.00
   13  -14   10     -0.11      0.00
   14  -14   10     -0.64      0.00
   15  -14   10      0.71      0.00
  -10  -13   10     -3.53      0.00
   -9  -13   10     -1.55      0.00
   -8  -13   10      4.51      0.00
   -7  -13   10      6.39      0.00
   -6  -13   10     -0.37      0.00
   -5  -13   10      1.01      0.00
   -4  -13   10      2.46      0.00
   -3  -13   10     -2.35      0.00
   -2  -13   10      0.90      0.00
   -1  -13   10     -1.63      0.00
    0  -13   10      5.51      0.00
    1  -13   10     -2.74      0.00
    2  -13   10      2.41      0.00
    3  -13   10     -6.10      0.00
    4  -13   10      4.06      0.00
    5  -13   10      0.60      0.00
    6  -13   10     -0.11      0.00
    7  -13   10     -0.94      0.00
    8  -13   10      2.11      0.00
    9  -13   10      4.81      0.00
   10  -13   10     -3.82      0.00
   11  -13   10     -1.67      0.00
   12  -13   10     -2.16      0.00
   13  -13   10     -0.66      0.00
   14  -13   10      2.30      0.00
   15  -13   10      0.43      0.00
  -11  -12   10      5.59      0.00
  -10  -12   10      2.67      0.00
   -9  -12   10     -3.21      0.00
   -8  -12   10     -4.92      0.00
   -7  -12   10     -3.42      0.00
   -6  -12   10     -0.81      0.00
   -5  -12   10      1.38      0.00
   -4  -12   10     -0.44      0.00
   -3  -12   10      2.77      0.00
   -2  -12   10     -2.31      0.00
   -1  -12   10      0.57      0.00
    0  -12   10     -3.76      0.00
    1  -12   10      3.67      0.00
    2  -12   10     -2.25      0.00
    3  -12   10      4.59      0.00
    4  -12   10     -4.93      0.00
    5  -12   10      2.47      0.00
    6  -12   10     -0.16      0.00
    7  -12   10     -2.69      0.00
    8  -12   10     -1.62      0.00
    9  -12   10      0.24      0.00
   10  -12   10      1.50      0.00
   11  -12   10     -0.84      0.00
   12  -12   10      2.97      0.00
   13  -12   10     -0.29      0.00
   14  -12   10     -2.83      0.00
   15  -12   10     -0.14      0.00
  -12  -11   10     -3.85      0.00
  -11  -11   10     -5.07      0.00
  -10  -11   10      0.96      0.00
   -9  -11   10      2.21      0.00
   -8  -11   10      5.17      0.00
   -7  -11   10      0.77      0.00
   -6  -11   10      0.64      0.00
   -5  -11   10     -2.18      0.00
   -4  -11   10     -0.04      0.00
   -3  -11   10     -0.66      0.00
   -2  -11   10      5.28      0.00
   -1  -11   10     -5.08      0.00
    0  -11   10      0.51      0.00
    1  -11   10     -1.27      0.00
    2  -11   10      1.66      0.00
    3  -11   10     -5.99      0.00
    4  -11   10      5.37      0.00
    5  -11   10     -1.32      0.00
    6  -11   10     -2.01      0.00
    7  -11   10      1.39      0.00
    8  -11   10      0.71      0.00
    9  -11   10     -0.67      0.00
   10  -11   10      0.41      0.00
   11  -11   10      2.64      0.00
   12  -11   10      0.52      0.00
   13  -11   10     -2.34      0.00
   14  -11   10      0.40      0.00
   15  -11   10      1.03      0.00
   16  -11   10     -1.38      0.00
  -13  -10   10      2.49      0.00
  -12  -10   10      4.20      0.00
  -11  -10   10      0.90      0.00
  -10  -10   10      0.32      0.00
   -9  -10   10      0.80      0.00
   -8  -10   10     -9.70      0.00
   -7  -10   10      1.75      0.00
   -6  -10   10      1.32      0.00
   -5  -10   10      2.55      0.00
   -4  -10   10     -1.28      0.00
   -3  -10   10     -0.76      0.00
   -2  -10   10     -3.92      0.00
   -1  -10   10      8.23      0.00
    0  -10   10      0.82      0.00
    1  -10   10      3.13      0.00
    2  -10   10     -3.77      0.00
    3  -10   10      3.66      0.00
    4  -10   10     -3.04      0.00
    5  -10   10      3.73      0.00
    6  -10   10      0.90      0.00
    7  -10   10     -4.43      0.00
    8  -10   10      0.59      0.00
    9  -10   10      1.37      0.00
   10  -10   10      0.53      0.00
   11  -10   10     -3.65      0.00
   12  -10   10     -1.88      0.00
   13  -10   10      4.48      0.00
   14  -10   10     -1.18      0.00
   15  -10   10     -1.95      0.00
  -13   -9   10     -0.36      0.00
  -12   -9   10      0.29      0.00
  -11   -9   10     -1.91      0.00
  -10   -9   10      0.90      0.00
   -9   -9   10     -0.45      0.00
   -8   -9   10      4.59      0.00
   -7   -9   10     -3.19      0.00
   -6   -9   10      3.28      0.00
   -5   -9   10     -8.23      0.00
   -4   -9   10      4.84      0.00
   -3   -9   10      0.83      0.00
   -2   -9   10     -2.96      0.00
   -1   -9   10     -9.70      0.00
    0   -9   10      4.76      0.00
    1   -9   10     -0.47      0.00
    2   -9   10      3.70      0.00
    3   -9   10     -3.12      0.00
    4   -9   10     -0.45      0.00
    5   -9   10     -3.82      0.00
    6   -9   10      3.79      0.00
    7   -9   10      5.48      0.00
    8   -9   10     -3.73      0.00
    9   -9   10     -1.36      0.00
   10   -9   10     -0.68      0.00
   11   -9   10      2.39      0.00
   12   -9   10     -0.07      0.00
   13   -9   10     -1.84      0.00
   14   -9   10      1.43      0.00
   15   -9   10      0.69      0.00
  -14   -8   10      3.03      0.00
  -13   -8   10     -3.64      0.00
  -12   -8   10      1.26      0.00
  -11   -8   10      1.67      0.00
  -10   -8   10     -6.76      0.00
   -9   -8   10      2.97      0.00
   -8   -8   10      1.65      0.00
   -7   -8   10      3.15      0.00
   -6   -8   10     -5.60      0.00
   -5   -8   10     12.47      0.00
   -4   -8   10     -6.56      0.00
   -3   -8   10      4.61      0.00
   -2   -8   10      0.96      0.00
   -1   -8   10      3.22      0.00
    0   -8   10    -11.15      0.00
    1   -8   10      1.54      0.00
    2   -8   10      3.88      0.00
    3   -8   10     -0.17      0.00
    4   -8   10     -2.75      0.00
    5   -8   10      3.89      0.00
    6   -8   10     -2.93      0.00
    7   -8   10     -3.89      0.00
    8   -8   10      5.81      0.00
    9   -8   10      0.68      0.00
   10   -8   10     -1.18      0.00
   11   -8   10     -2.00      0.00
   12   -8   10      2.61      0.00
   13   -8   10      2.03      0.00
   14   -8   10      1.18      0.00
   15   -8   10     -0.15      0.00
  -15   -7   10      1.64      0.00
  -14   -7   10      1.08      0.00
  -13   -7   10      0.29      0.00
  -12   -7   10     -3.10      0.00
  -11   -7   10      2.72      0.00
  -10   -7   10      5.70      0.00
   -9   -7   10     -3.94      0.00
   -8   -7   10     -0.38      0.00
   -7   -7   10     -7.74      0.00
   -6   -7   10      9.09      0.00
   -5   -7   10    -13.79      0.00
   -4   -7   10     -0.84      0.00
   -3   -7   10     -1.87      0.00
   -2   -7   10     12.71      0.00
   -1   -7   10     -0.82      0.00
    0   -7   10      6.41      0.00
    1   -7   10     -4.49      0.00
    2   -7   10     -7.61      0.00
    3   -7   10      3.01      0.00
    4   -7   10      5.39      0.00
    5   -7   10     -2.80      0.00
    6   -7   10      0.48      0.00
    7   -7   10     -0.39      0.00
    8   -7   10     -6.01      0.00
    9   -7   10      2.22      0.00
   10   -7   10      1.86      0.00
   11   -7   10     -0.30      0.00
   12   -7   10     -4.99      0.00
   13   -7   10     -1.70      0.00
   14   -7   10     -0.06      0.00
   15   -7   10      1.49      0.00
  -16   -6   10      0.03      0.00
  -15   -6   10     -3.51      0.00
  -14   -6   10      0.92      0.00
  -13   -6   10     -1.81      0.00
  -12   -6   10      0.55      0.00
  -11   -6   10      0.41      0.00
  -10   -6   10      0.01      0.00
   -9   -6   10      1.86      0.00
   -8   -6   10     -2.40      0.00
   -7   -6   10      8.89      0.00
   -6   -6   10    -13.09      0.00
   -5   -6   10     15.06      0.00
   -4   -6   10     -1.76      0.00
   -3   -6   10     -2.98      0.00
   -2   -6   10    -10.56      0.00
   -1   -6   10      5.48      0.00
    0   -6   10     -2.45      0.00
    1   -6   10      4.35      0.00
    2   -6   10      4.57      0.00
    3   -6   10     -4.12      0.00
    4   -6   10     -4.58      0.00
    5   -6   10      1.10      0.00
    6   -6   10      5.76      0.00
    7   -6   10      1.20      0.00
    8   -6   10      0.33      0.00
    9   -6   10     -1.96      0.00
   10   -6   10      2.83      0.00
   11   -6   10      1.49      0.00
   12   -6   10      3.47      0.00
   13   -6   10     -2.66      0.00
   14   -6   10     -1.59      0.00
   15   -6   10      0.58      0.00
  -16   -5   10      4.72      0.00
  -15   -5   10      3.25      0.00
  -14   -5   10     -5.16      0.00
  -13   -5   10      5.23      0.00
  -12   -5   10     -1.31      0.00
  -11   -5   10     -5.82      0.00
  -10   -5   10     -3.07      0.00
   -9   -5   10      2.84      0.00
   -8   -5   10      8.54      0.00
   -7   -5   10     -9.54      0.00
   -6   -5   10     12.32      0.00
   -5   -5   10     -8.56      0.00
   -4   -5   10      5.66      0.00
   -3   -5   10     -6.23      0.00
   -2   -5   10      4.02      0.00
   -1   -5   10     -6.38      0.00
    0   -5   10      0.91      0.00
    1   -5   10     -0.76      0.00
    2   -5   10      2.62      0.00
    3   -5   10      2.23      0.00
    4   -5   10     -1.16      0.00
    5   -5   10     -0.23      0.00
    6   -5   10     -7.28      0.00
    7   -5   10      2.96      0.00
    8   -5   10      0.58      0.00
    9   -5   10     -1.88      0.00
   10   -5   10     -6.67      0.00
   11   -5   10      4.22      0.00
   12   -5   10     -0.57      0.00
   13   -5   10     -1.28      0.00
   14   -5   10      0.63      0.00
   15   -5   10      0.77      0.00
  -17   -4   10      1.84      0.00
  -16   -4   10     -3.84      0.00
  -15   -4   10     -0.61      0.00
  -14   -4   10      5.95      0.00
  -13   -4   10     -0.81      0.00
  -12   -4   10      0.17      0.00
  -11   -4   10      3.44      0.00
  -10   -4   10      2.75      0.00
   -9   -4   10     -3.99      0.00
   -8   -4   10    -13.35      0.00
   -7   -4   10      8.98      0.00
   -6   -4   10    -10.84      0.00
   -5   -4   10      8.65      0.00
   -4   -4   10     -2.58      0.00
   -3   -4   10     10.89      0.00
   -2   -4   10     -3.17      0.00
   -1   -4   10      3.94      0.00
    0   -4   10     -3.55      0.00
    1   -4   10     -5.19      0.00
    2   -4   10      1.14      0.00
    3   -4   10      3.07      0.00
    4   -4   10      1.71      0.00
    5   -4   10     -3.70      0.00
    6   -4   10      5.46      0.00
    7   -4   10     -1.75      0.00
    8   -4   10      1.34      0.00
    9   -4   10      2.02      0.00
   10   -4   10      6.20      0.00
   11   -4   10     -6.68      0.00
   12   -4   10      2.48      0.00
   13   -4   10      5.03      0.00
   14   -4   10     -3.72      0.00
  -17   -3   10     -2.03      0.00
  -16   -3   10     -5.64      0.00
  -15   -3   10      0.20      0.00
  -14   -3   10     -1.93      0.00
  -13   -3   10     -3.84      0.00
  -12   -3   10      2.14      0.00
  -11   -3   10      2.64      0.00
  -10   -3   10     -0.73      0.00
   -9   -3   10     -4.22      0.00
   -8   -3   10     12.49      0.00
   -7   -3   10     -3.96      0.00
   -6   -3   10      6.44      0.00
   -5   -3   10    -14.27      0.00
   -4   -3   10      7.87      0.00
   -3   -3   10     -7.45      0.00
   -2   -3   10      0.51      0.00
   -1   -3   10     -1.38      0.00
    0   -3   10      5.36      0.00
    1   -3   10      6.82      0.00
    2   -3   10     -8.93      0.00
    3   -3   10     -1.45      0.00
    4   -3   10      2.75      0.00
    5   -3   10      2.85      0.00
    6   -3   10     -8.21      0.00
    7   -3   10      1.97      0.00
    8   -3   10      1.38      0.00
    9   -3   10     -1.34      0.00
   10   -3   10     -4.71      0.00
   11   -3   10      1.07      0.00
   12   -3   10     -1.25      0.00
   13   -3   10     -0.73      0.00
   14   -3   10      1.25      0.00
  -18   -2   10     -2.97      0.00
  -17   -2   10      7.97      0.00
  -16   -2   10      6.17      0.00
  -15   -2   10     -0.60      0.00
  -14   -2   10      0.62      0.00
  -13   -2   10      4.07      0.00
  -12   -2   10      0.31      0.00
  -11   -2   10     -3.46      0.00
  -10   -2   10     -4.28      0.00
   -9   -2   10      9.43      0.00
   -8   -2   10     -3.76      0.00
   -7   -2   10      2.28      0.00
   -6   -2   10     -7.12      0.00
   -5   -2   10     13.94      0.00
   -4   -2   10    -12.03      0.00
   -3   -2   10      0.86      0.00
   -2   -2   10      1.44      0.00
   -1   -2   10      8.16      0.00
    0   -2   10     -3.77      0.00
    1   -2   10    -13.25      0.00
    2   -2   10      8.24      0.00
    3   -2   10      1.94      0.00
    4   -2   10     -2.75      0.00
    5   -2   10      0.32      0.00
    6   -2   10      7.78      0.00
    7   -2   10     -6.09      0.00
    8   -2   10     -1.37      0.00
    9   -2   10      2.08      0.00
   10   -2   10      2.60      0.00
   11   -2   10      0.62      0.00
   12   -2   10      0.45      0.00
   13   -2   10      1.12      0.00
   14   -2   10     -0.21      0.00
  -18   -1   10      0.26      0.00
  -17   -1   10     -6.83      0.00
  -16   -1   10     -2.57      0.00
  -15   -1   10     -4.55      0.00
  -14   -1   10     -0.50      0.00
  -13   -1   10     -0.74      0.00
  -12   -1   10     -4.68      0.00
  -11   -1   10     -1.26      0.00
  -10   -1   10      9.93      0.00
   -9   -1   10     -8.05      0.00
   -8   -1   10     -6.64      0.00
   -7   -1   10     -3.04      0.00
   -6   -1   10     14.30      0.00
   -5   -1   10    -11.73      0.00
   -4   -1   10      6.98      0.00
   -3   -1   10      1.79      0.00
   -2   -1   10      1.15      0.00
   -1   -1   10    -12.80      0.00
    0   -1   10      3.33      0.00
    1   -1   10     20.67      0.00
    2   -1   10     -8.97      0.00
    3   -1   10     -8.08      0.00
    4   -1   10      2.36      0.00
    5   -1   10      3.81      0.00
    6   -1   10     -4.60      0.00
    7   -1   10      3.91      0.00
    8   -1   10     -1.81      0.00
    9   -1   10     -0.13      0.00
   10   -1   10     -0.28      0.00
   11   -1   10     -0.38      0.00
   12   -1   10     -1.73      0.00
   13   -1   10      0.39      0.00
  -19    0   10      0.67      0.00
  -18    0   10      2.12      0.00
  -17    0   10      1.51      0.00
  -16    0   10      4.82      0.00
  -15    0   10      6.85      0.00
  -14    0   10     -0.86      0.00
  -13    0   10     -0.48      0.00
  -12    0   10      3.93      0.00
  -11    0   10      4.38      0.00
  -10    0   10     -8.21      0.00
   -9    0   10      4.58      0.00
   -8    0   10      7.46      0.00
   -7    0   10      8.08      0.00
   -6    0   10    -17.47      0.00
   -5    0   10      3.47      0.00
   -4    0   10      2.10      0.00
   -3    0   10      4.40      0.00
   -2    0   10    -11.27      0.00
   -1    0   10      8.06      0.00
    0    0   10      4.33      0.00
    1    0   10    -18.16      0.00
    2    0   10      6.33      0.00
    3    0   10      7.92      0.00
    4    0   10     -1.68      0.00
    5    0   10     -8.17      0.00
    6    0   10      7.51      0.00
    7    0   10     -0.28      0.00
    8    0   10      0.18      0.00
    9    0   10     -1.81      0.00
   10    0   10      0.41      0.00
   11    0   10     -0.61      0.00
   12    0   10     -1.60      0.00
   13    0   10     -0.22      0.00
  -19    1   10     -0.27      0.00
  -18    1   10     -4.60      0.00
  -17    1   10      0.81      0.00
  -16    1   10     -2.40      0.00
  -15    1   10     -6.74      0.00
  -14    1   10     -1.45      0.00
  -13    1   10      0.45      0.00
  -12    1   10      1.45      0.00
  -11    1   10     -6.23      0.00
  -10    1   10      4.08      0.00
   -9    1   10      0.37      0.00
   -8    1   10     -2.26      0.00
   -7    1   10    -13.78      0.00
   -6    1   10     14.08      0.00
   -5    1   10      5.17      0.00
   -4    1   10     -7.23      0.00
   -3    1   10     -7.30      0.00
   -2    1   10     15.66      0.00
   -1    1   10     -3.15      0.00
    0    1   10    -15.13      0.00
    1    1   10     13.96      0.00
    2    1   10      5.85      0.00
    3    1   10     -6.21      0.00
    4    1   10     -6.16      0.00
    5    1   10      6.96      0.00
    6    1   10     -6.38      0.00
    7    1   10      0.95      0.00
    8    1   10      0.46      0.00
    9    1   10      1.61      0.00
   10    1   10      0.61      0.00
   11    1   10      2.99      0.00
   12    1   10     -0.79      0.00
  -20    2   10     -3.51      0.00
  -19    2   10     -0.50      0.00
  -18    2   10      7.47      0.00
  -17    2   10     -0.80      0.00
  -16    2   10     -2.12      0.00
  -15    2   10      6.09      0.00
  -14    2   10      1.73      0.00
  -13    2   10     -0.37      0.00
  -12    2   10     -3.15      0.00
  -11    2   10      4.81      0.00
  -10    2   10     -2.87      0.00
   -9    2   10     -1.50      0.00
   -8    2   10     -4.99      0.00
   -7    2   10     11.35      0.00
   -6    2   10     -3.29      0.00
   -5    2   10     -6.10      0.00
   -4    2   10     -0.02      0.00
   -3    2   10      7.36      0.00
   -2    2   10     -7.03      0.00
   -1    2   10     -3.79      0.00
    0    2   10     13.86      0.00
    1    2   10     -8.97      0.00
    2    2   10     -9.29      0.00
    3    2   10      5.62      0.00
    4    2   10     11.77      0.00
    5    2   10     -6.57      0.00
    6    2   10      1.88      0.00
    7    2   10      0.80      0.00
    8    2   10      0.48      0.00
    9    2   10     -3.18      0.00
   10    2   10      0.67      0.00
   11    2   10     -0.07      0.00
   12    2   10      4.36      0.00
  -20    3   10      3.38      0.00
  -19    3   10     -1.28      0.00
  -18    3   10     -6.11      0.00
  -17    3   10     -1.39      0.00
  -16    3   10      3.53      0.00
  -15    3   10     -2.17      0.00
  -14    3   10     -0.16      0.00
  -13    3   10     -0.34      0.00
  -12    3   10      3.30      0.00
  -11    3   10      0.59      0.00
  -10    3   10      0.08      0.00
   -9    3   10     -1.21      0.00
   -8    3   10      8.81      0.00
   -7    3   10     -4.58      0.00
   -6    3   10     -2.70      0.00
   -5    3   10      5.16      0.00
   -4    3   10      6.44      0.00
   -3    3   10     -8.78      0.00
   -2    3   10      0.53      0.00
   -1    3   10     11.15      0.00
    0    3   10     -6.34      0.00
    1    3   10     -4.82      0.00
    2    3   10      4.81      0.00
    3    3   10      3.07      0.00
    4    3   10    -11.12      0.00
    5    3   10      3.13      0.00
    6    3   10     -2.70      0.00
    7    3   10      1.90      0.00
    8    3   10     -1.31      0.00
    9    3   10      0.72      0.00
   10    3   10     -3.93      0.00
   11    3   10     -1.74      0.00
  -20    4   10     -0.27      0.00
  -19    4   10      1.81      0.00
  -18    4   10      2.15      0.00
  -17    4   10      2.54      0.00
  -16    4   10     -1.82      0.00
  -15    4   10     -0.47      0.00
  -14    4   10     -3.03      0.00
  -13    4   10     -0.07      0.00
  -12    4   10     -2.19      0.00
  -11    4   10     -1.23      0.00
  -10    4   10      0.38      0.00
   -9    4   10      1.65      0.00
   -8    4   10     -7.20      0.00
   -7    4   10     -1.61      0.00
   -6    4   10      1.27      0.00
   -5    4   10      1.17      0.00
   -4    4   10     -5.08      0.00
   -3    4   10      1.41      0.00
   -2    4   10      1.08      0.00
   -1    4   10     -8.28      0.00
    0    4   10      3.21      0.00
    1    4   10     10.12      0.00
    2    4   10     -2.58      0.00
    3    4   10     -5.59      0.00
    4    4   10      8.55      0.00
    5    4   10     -2.80      0.00
    6    4   10      2.44      0.00
    7    4   10     -2.30      0.00
    8    4   10      4.26      0.00
    9    4   10      0.21      0.00
   10    4   10      1.03      0.00
   11    4   10     -0.06      0.00
  -21    5   10     -1.01      0.00
  -20    5   10     -1.84      0.00
  -19    5   10     -1.50      0.00
  -18    5   10     -1.37      0.00
  -17    5   10     -1.15      0.00
  -16    5   10     -0.21      0.00
  -15    5   10      2.15      0.00
  -14    5   10      3.59      0.00
  -13    5   10     -0.58      0.00
  -12    5   10      0.48      0.00
  -11    5   10     -2.60      0.00
  -10    5   10      5.38      0.00
   -9    5   10      2.05      0.00
   -8    5   10      0.83      0.00
   -7    5   10     -0.25      0.00
   -6    5   10     -0.02      0.00
   -5    5   10     -4.98      0.00
   -4    5   10      3.51      0.00
   -3    5   10      5.55      0.00
   -2    5   10     -3.09      0.00
   -1    5   10      1.84      0.00
    0    5   10     -0.56      0.00
    1    5   10     -2.96      0.00
    2    5   10     -3.56      0.00
    3    5   10      1.75      0.00
    4    5   10     -0.50      0.00
    5    5   10      5.02      0.00
    6    5   10     -5.55      0.00
    7    5   10     -2.04      0.00
    8    5   10      3.18      0.00
    9    5   10      2.88      0.00
   10    5   10     -0.72      0.00
  -21    6   10      0.29      0.00
  -20    6   10      2.51      0.00
  -19    6   10      2.41      0.00
  -18    6   10      0.21      0.00
  -17    6   10     -1.60      0.00
  -16    6   10      0.25      0.00
  -15    6   10      2.54      0.00
  -14    6   10      0.48      0.00
  -13    6   10     -2.02      0.00
  -12    6   10     -2.55      0.00
  -11    6   10      3.36      0.00
  -10    6   10     -6.73      0.00
   -9    6   10     -1.50      0.00
   -8    6   10      6.82      0.00
   -7    6   10      2.83      0.00
   -6    6   10     -5.76      0.00
   -5    6   10      2.21      0.00
   -4    6   10      4.16      0.00
   -3    6   10     -5.66      0.00
   -2    6   10     -0.44      0.00
   -1    6   10      0.45      0.00
    0    6   10      0.60      0.00
    1    6   10     -1.45      0.00
    2    6   10      3.83      0.00
    3    6   10     -1.14      0.00
    4    6   10     -1.47      0.00
    5    6   10     -2.76      0.00
    6    6   10      4.31      0.00
    7    6   10     -0.46      0.00
    8    6   10     -8.03      0.00
    9    6   10     -0.03      0.00
  -21    7   10     -0.91      0.00
  -20    7   10     -2.84      0.00
  -19    7   10      0.78      0.00
  -18    7   10      0.95      0.00
  -17    7   10      0.38      0.00
  -16    7   10     -0.47      0.00
  -15    7   10     -6.00      0.00
  -14    7   10     -0.96      0.00
  -13    7   10      4.58      0.00
  -12    7   10      4.03      0.00
  -11    7   10     -3.99      0.00
  -10    7   10      0.79      0.00
   -9    7   10      1.86      0.00
   -8    7   10     -3.77      0.00
   -7    7   10     -2.60      0.00
   -6    7   10      6.99      0.00
   -5    7   10      0.00      0.00
   -4    7   10     -9.06      0.00
   -3    7   10      4.32      0.00
   -2    7   10      2.68      0.00
   -1    7   10      1.08      0.00
    0    7   10     -2.78      0.00
    1    7   10      0.00      0.00
    2    7   10      1.11      0.00
    3    7   10     -0.47      0.00
    4    7   10     -2.31      0.00
    5    7   10      4.91      0.00
    6    7   10      1.92      0.00
    7    7   10     -3.49      0.00
    8    7   10      2.13      0.00
  -21    8   10      1.51      0.00
  -20    8   10     -0.05      0.00
  -19    8   10     -2.24      0.00
  -18    8   10      0.93      0.00
  -17    8   10     -0.41      0.00
  -16    8   10     -0.91      0.00
  -15    8   10      2.88      0.00
  -14    8   10      0.93      0.00
  -13    8   10     -3.44      0.00
  -12    8   10     -1.45      0.00
  -11    8   10      4.31      0.00
  -10    8   10     -1.53      0.00
   -9    8   10     -3.69      0.00
   -8    8   10     -1.35      0.00
   -7    8   10      3.32      0.00
   -6    8   10     -1.31      0.00
   -5    8   10     -3.74      0.00
   -4    8   10      4.58      0.00
   -3    8   10      1.59      0.00
   -2    8   10      0.40      0.00
   -1    8   10     -4.65      0.00
    0    8   10      4.24      0.00
    1    8   10      4.57      0.00
    2    8   10     -4.08      0.00
    3    8   10     -0.55      0.00
    4    8   10      5.62      0.00
    5    8   10     -5.46      0.00
    6    8   10     -1.94      0.00
    7    8   10      7.82      0.00
    8    8   10     -1.22      0.00
  -21    9   10     -1.38      0.00
  -20    9   10     -0.31      0.00
  -19    9   10      1.61      0.00
  -18    9   10      2.74      0.00
  -17    9   10      2.17      0.00
  -16    9   10     -0.06      0.00
  -15    9   10     -1.23      0.00
  -14    9   10     -0.98      0.00
  -13    9   10      1.19      0.00
  -12    9   10      1.07      0.00
  -11    9   10     -0.31      0.00
  -10    9   10      2.58      0.00
   -9    9   10     -0.25      0.00
   -8    9   10      2.59      0.00
   -7    9   10     -1.17      0.00
   -6    9   10     -2.58      0.00
   -5    9   10      4.20      0.00
   -4    9   10      0.37      0.00
   -3    9   10     -4.46      0.00
   -2    9   10     -6.45      0.00
   -1    9   10      5.57      0.00
    0    9   10     -0.96      0.00
    1    9   10     -7.20      0.00
    2    9   10      2.62      0.00
    3    9   10      1.92      0.00
    4    9   10     -5.51      0.00
    5    9   10      0.42      0.00
    6    9   10      1.96      0.00
    7    9   10     -2.89      0.00
  -21   10   10      2.37      0.00
  -20   10   10      1.02      0.00
  -19   10   10     -3.12      0.00
  -18   10   10     -3.23      0.00
  -17   10   10     -0.52      0.00
  -16   10   10      0.19      0.00
  -15   10   10      0.41      0.00
  -14   10   10      0.70      0.00
  -13   10   10      1.23      0.00
  -12   10   10     -2.86      0.00
  -11   10   10     -1.17      0.00
  -10   10   10     -0.06      0.00
   -9   10   10      1.31      0.00
   -8   10   10     -0.66      0.00
   -7   10   10      0.07      0.00
   -6   10   10      0.89      0.00
   -5   10   10      0.13      0.00
   -4   10   10     -2.26      0.00
   -3   10   10      1.74      0.00
   -2   10   10      9.36      0.00
   -1   10   10     -5.82      0.00
    0   10   10     -2.22      0.00
    1   10   10      6.65      0.00
    2   10   10      1.54      0.00
    3   10   10     -3.49      0.00
    4   10   10      0.74      0.00
    5   10   10      5.10      0.00
    6   10   10     -3.12      0.00
  -21   11   10     -0.78      0.00
  -20   11   10     -0.84      0.00
  -19   11   10     -1.31      0.00
  -18   11   10      1.15      0.00
  -17   11   10     -0.74      0.00
  -16   11   10     -1.79      0.00
  -15   11   10      2.44      0.00
  -14   11   10     -0.05      0.00
  -13   11   10     -2.61      0.00
  -12   11   10      1.90      0.00
  -11   11   10      0.52      0.00
  -10   11   10     -1.58      0.00
   -9   11   10     -1.17      0.00
   -8   11   10     -0.07      0.00
   -7   11   10      0.55      0.00
   -6   11   10      2.27      0.00
   -5   11   10     -1.13      0.00
   -4   11   10      0.68      0.00
   -3   11   10      0.82      0.00
   -2   11   10     -5.17      0.00
   -1   11   10      1.01      0.00
    0   11   10      3.39      0.00
    1   11   10      0.58      0.00
    2   11   10     -3.30      0.00
    3   11   10      1.00      0.00
    4   11   10      1.17      0.00
    5   11   10     -3.38      0.00
  -21   12   10      2.26      0.00
  -20   12   10      2.74      0.00
  -19   12   10      2.50      0.00
  -18   12   10     -1.57      0.00
  -17   12   10      3.72      0.00
  -16   12   10      3.87      0.00
  -15   12   10     -4.85      0.00
  -14   12   10      0.41      0.00
  -13   12   10      2.12      0.00
  -12   12   10     -1.64      0.00
  -11   12   10      0.89      0.00
  -10   12   10      2.62      0.00
   -9   12   10     -0.54      0.00
   -8   12   10     -2.31      0.00
   -7   12   10     -0.31      0.00
   -6   12   10     -4.24      0.00
   -5   12   10     -2.58      0.00
   -4   12   10      3.30      0.00
   -3   12   10     -1.69      0.00
   -2   12   10      1.42      0.00
   -1   12   10      2.21      0.00
    0   12   10     -5.41      0.00
    1   12   10     -3.27      0.00
    2   12   10      3.53      0.00
    3   12   10      1.03      0.00
    4   12   10     -4.49      0.00
  -21   13   10     -2.39      0.00
  -20   13   10     -1.85      0.00
  -19   13   10     -1.65      0.00
  -18   13   10     -2.39      0.00
  -17   13   10     -1.67      0.00
  -16   13   10     -2.80      0.00
  -15   13   10      1.06      0.00
  -14   13   10     -0.33      0.00
  -13   13   10     -0.09      0.00
  -12   13   10      2.36      0.00
  -11   13   10     -1.22      0.00
  -10   13   10     -0.41      0.00
   -9   13   10      2.83      0.00
   -8   13   10      2.18      0.00
   -7   13   10      1.23      0.00
   -6   13   10      3.65      0.00
   -5   13   10      2.80      0.00
   -4   13   10     -3.05      0.00
   -3   13   10      2.44      0.00
   -2   13   10      1.56      0.00
   -1   13   10     -0.67      0.00
    0   13   10     -0.26      0.00
    1   13   10      1.04      0.00
    2   13   10      2.32      0.00
    3   13   10      2.36      0.00
  -21   14   10     -2.85      0.00
  -20   14   10      2.37      0.00
  -19   14   10      5.22      0.00
  -18   14   10      4.46      0.00
  -17   14   10     -0.93      0.00
  -16   14   10      2.80      0.00
  -15   14   10     -0.62      0.00
  -14   14   10     -2.13      0.00
  -13   14   10     -0.90      0.00
  -12   14   10     -1.75      0.00
  -11   14   10      0.07      0.00
  -10   14   10     -0.84      0.00
   -9   14   10     -4.43      0.00
   -8   14   10     -3.29      0.00
   -7   14   10     -0.18      0.00
   -6   14   10      0.81      0.00
   -5   14   10     -3.97      0.00
   -4   14   10     -1.14      0.00
   -3   14   10     -0.30      0.00
   -2   14   10     -4.12      0.00
   -1   14   10     -0.81      0.00
    0   14   10      4.90      0.00
    1   14   10     -1.95      0.00
    2   14   10     -5.04      0.00
  -21   15   10      3.33      0.00
  -20   15   10     -3.56      0.00
  -19   15   10     -5.49      0.00
  -18   15   10     -3.06      0.00
  -17   15   10     -0.10      0.00
  -16   15   10      0.14      0.00
  -15   15   10      3.46      0.00
  -14   15   10      1.20      0.00
  -13   15   10      1.17      0.00
  -12   15   10      1.51      0.00
  -11   15   10      1.98      0.00
  -10   15   10      1.51      0.00
   -9   15   10      3.77      0.00
   -8   15   10      3.30      0.00
   -7   15   10     -1.76      0.00
   -6   15   10     -0.70      0.00
   -5   15   10      4.27      0.00
   -4   15   10     -0.49      0.00
   -3   15   10     -0.98      0.00
   -2   15   10      6.18      0.00
   -1   15   10      3.46      0.00
    0   15   10     -5.50      0.00
    1   15   10     -0.60      0.00
  -20   16   10      0.75      0.00
  -19   16   10      2.58      0.00
  -18   16   10      1.74      0.00
  -17   16   10     -2.49      0.00
  -16   16   10     -1.44      0.00
  -15   16   10     -1.41      0.00
  -14   16   10     -1.70      0.00
  -13   16   10     -3.39      0.00
  -12   16   10     -2.65      0.00
  -11   16   10     -2.65      0.00
  -10   16   10     -0.79      0.00
   -9   16   10     -0.56      0.00
   -8   16   10     -2.17      0.00
   -7   16   10      0.60      0.00
   -6   16   10     -0.08      0.00
   -5   16   10      0.52      0.00
   -4   16   10      1.38      0.00
   -3   16   10     -2.33      0.00
   -2   16   10     -3.05      0.00
   -1   16   10     -1.25      0.00
  -19   17   10     -2.99      0.00
  -18   17   10     -1.18      0.00
  -17   17   10      3.45      0.00
  -16   17   10     -0.29      0.00
  -15   17   10      4.51      0.00
  -14   17   10      7.26      0.00
  -13   17   10      2.54      0.00
  -12   17   10      0.72      0.00
  -11   17   10      0.11      0.00
  -10   17   10      0.11      0.00
   -9   17   10     -0.14      0.00
   -8   17   10     -0.28      0.00
   -7   17   10     -0.50      0.00
   -6   17   10     -0.60      0.00
   -5   17   10     -1.51      0.00
   -4   17   10      1.06      0.00
   -3   17   10      1.54      0.00
   -2   17   10     -3.61      0.00
  -19   18   10      2.73      0.00
  -18   18   10      0.78      0.00
  -17   18   10     -0.78      0.00
  -16   18   10     -2.64      0.00
  -15   18   10    -10.41      0.00
  -14   18   10     -6.07      0.00
  -13   18   10      0.44      0.00
  -12   18   10     -1.17      0.00
  -11   18   10      2.21      0.00
  -10   18   10      1.67      0.00
   -9   18   10     -0.50      0.00
   -8   18   10      1.17      0.00
   -7   18   10     -0.05      0.00
   -6   18   10      0.68      0.00
   -5   18   10      1.55      0.00
   -4   18   10     -1.28      0.00
  -18   19   10     -1.38      0.00
  -17   19   10      0.14      0.00
  -16   19   10      5.57      0.00
  -15   19   10      7.52      0.00
  -14   19   10      2.25      0.00
  -13   19   10      2.08      0.00
  -12   19   10      2.24      0.00
  -11   19   10     -3.36      0.00
  -10   19   10     -0.98      0.00
   -9   19   10      1.03      0.00
   -8   19   10     -1.30      0.00
   -7   19   10      0.16      0.00
   -6   19   10     -0.90      0.00
  -16   20   10     -4.01      0.00
  -15   20   10     -3.05      0.00
  -14   20   10     -3.46      0.00
  -13   20   10     -2.32      0.00
  -12   20   10     -0.85      0.00
  -11   20   10     -1.66      0.00
  -10   20   10     -1.16      0.00
   -9   20   10      2.86      0.00
    5  -21   11      2.18      0.00
    6  -21   11     -2.01      0.00
    7  -21   11      1.20      0.00
    1  -20   11      0.20      0.00
    2  -20   11     -2.63      0.00
    3  -20   11      0.90      0.00
    4  -20   11      1.89      0.00
    5  -20   11     -0.21      0.00
    6  -20   11     -0.33      0.00
    7  -20   11     -3.43      0.00
    8  -20   11     -1.49      0.00
    9  -20   11     -0.76      0.00
   10  -20   11     -4.81      0.00
   -1  -19   11      2.58      0.00
    0  -19   11     -4.37      0.00
    1  -19   11     -2.94      0.00
    2  -19   11      2.02      0.00
    3  -19   11     -1.07      0.00
    4  -19   11     -2.83      0.00
    5  -19   11      1.89      0.00
    6  -19   11      4.91      0.00
    7  -19   11      2.49      0.00
    8  -19   11     -1.33      0.00
    9  -19   11      4.34      0.00
   10  -19   11      2.91      0.00
   11  -19   11     -1.59      0.00
   12  -19   11     -2.38      0.00
   -3  -18   11     -0.37      0.00
   -2  -18   11      1.21      0.00
   -1  -18   11     -1.42      0.00
    0  -18   11      6.93      0.00
    1  -18   11      5.52      0.00
    2  -18   11     -0.95      0.00
    3  -18   11     -1.26      0.00
    4  -18   11     -0.46      0.00
    5  -18   11     -4.16      0.00
    6  -18   11     -3.35      0.00
    7  -18   11     -2.33      0.00
    8  -18   11      1.60      0.00
    9  -18   11     -1.70      0.00
   10  -18   11      0.68      0.00
   11  -18   11      0.71      0.00
   12  -18   11      1.02      0.00
   13  -18   11     -0.23      0.00
   -5  -17   11     -1.21      0.00
   -4  -17   11      1.62      0.00
   -3  -17   11      2.94      0.00
   -2  -17   11     -3.32      0.00
   -1  -17   11     -2.01      0.00
    0  -17   11     -6.82      0.00
    1  -17   11     -1.35      0.00
    2  -17   11      2.15      0.00
    3  -17   11      3.86      0.00
    4  -17   11      3.05      0.00
    5  -17   11      1.12      0.00
    6  -17   11     -0.85      0.00
    7  -17   11      0.86      0.00
    8  -17   11     -1.84      0.00
    9  -17   11      0.50      0.00
   10  -17   11     -0.11      0.00
   11  -17   11     -0.07      0.00
   12  -17   11     -1.16      0.00
   13  -17   11      0.00      0.00
   -6  -16   11      3.67      0.00
   -5  -16   11      0.42      0.00
   -4  -16   11     -7.37      0.00
   -3  -16   11     -1.14      0.00
   -2  -16   11      7.55      0.00
   -1  -16   11     -2.10      0.00
    0  -16   11      2.38      0.00
    1  -16   11     -0.94      0.00
    2  -16   11     -3.17      0.00
    3  -16   11     -4.84      0.00
    4  -16   11     -0.17      0.00
    5  -16   11      4.20      0.00
    6  -16   11      2.32      0.00
    7  -16   11      1.23      0.00
    8  -16   11     -0.62      0.00
    9  -16   11     -1.57      0.00
   10  -16   11      2.74      0.00
   11  -16   11     -0.10      0.00
   12  -16   11     -0.77      0.00
   13  -16   11      2.91      0.00
   14  -16   11      2.71      0.00
   -7  -15   11      2.47      0.00
   -6  -15   11     -1.51      0.00
   -5  -15   11      6.84      0.00
   -4  -15   11      4.40      0.00
   -3  -15   11     -3.75      0.00
   -2  -15   11     -3.00      0.00
   -1  -15   11      6.36      0.00
    0  -15   11     -1.64      0.00
    1  -15   11      2.65      0.00
    2  -15   11      3.49      0.00
    3  -15   11     -2.44      0.00
    4  -15   11     -4.12      0.00
    5  -15   11     -2.28      0.00
    6  -15   11      1.22      0.00
    7  -15   11     -0.96      0.00
    8  -15   11     -0.43      0.00
    9  -15   11      0.42      0.00
   10  -15   11     -3.27      0.00
   11  -15   11      0.51      0.00
   12  -15   11      0.49      0.00
   13  -15   11     -2.28      0.00
   14  -15   11     -2.01      0.00
   -9  -14   11     -0.60      0.00
   -8  -14   11     -3.46      0.00
   -7  -14   11     -4.99      0.00
   -6  -14   11     -3.54      0.00
   -5  -14   11     -7.12      0.00
   -4  -14   11      2.68      0.00
   -3  -14   11     -0.51      0.00
   -2  -14   11      0.69      0.00
   -1  -14   11     -1.48      0.00
    0  -14   11     -1.55      0.00
    1  -14   11     -4.62      0.00
    2  -14   11      2.09      0.00
    3  -14   11      8.62      0.00
    4  -14   11     -1.84      0.00
    5  -14   11     -2.83      0.00
    6  -14   11      0.40      0.00
    7  -14   11      2.49      0.00
    8  -14   11     -1.80      0.00
    9  -14   11     -1.96      0.00
   10  -14   11      4.86      0.00
   11  -14   11      0.84      0.00
   12  -14   11      0.61      0.00
   13  -14   11     -0.16      0.00
   14  -14   11      0.87      0.00
   15  -14   11     -0.39      0.00
  -10  -13   11     -0.80      0.00
   -9  -13   11      5.92      0.00
   -8  -13   11      7.39      0.00
   -7  -13   11      4.94      0.00
   -6  -13   11     -0.74      0.00
   -5  -13   11      4.19      0.00
   -4  -13   11     -1.93      0.00
   -3  -13   11      1.80      0.00
   -2  -13   11     -1.95      0.00
   -1  -13   11      3.12      0.00
    0  -13   11      1.82      0.00
    1  -13   11     -1.32      0.00
    2  -13   11     -2.88      0.00
    3  -13   11     -3.00      0.00
    4  -13   11      5.36      0.00
    5  -13   11     -0.60      0.00
    6  -13   11     -1.52      0.00
    7  -13   11      0.56      0.00
    8  -13   11      4.01      0.00
    9  -13   11     -1.61      0.00
   10  -13   11     -5.27      0.00
   11  -13   11      0.56      0.00
   12  -13   11     -2.33      0.00
   13  -13   11      1.90      0.00
   14  -13   11      1.80      0.00
   15  -13   11     -0.22      0.00
  -11  -12   11      2.93      0.00
  -10  -12   11     -4.12      0.00
   -9  -12   11     -8.70      0.00
   -8  -12   11     -4.18      0.00
   -7  -12   11     -2.82      0.00
   -6  -12   11      2.38      0.00
   -5  -12   11     -1.97      0.00
   -4  -12   11      3.09      0.00
   -3  -12   11     -2.66      0.00
   -2  -12   11     -2.22      0.00
   -1  -12   11     -1.72      0.00
    0  -12   11      1.22      0.00
    1  -12   11      1.90      0.00
    2  -12   11      0.11      0.00
    3  -12   11      1.59      0.00
    4  -12   11     -2.35      0.00
    5  -12   11      2.79      0.00
    6  -12   11     -1.73      0.00
    7  -12   11     -0.51      0.00
    8  -12   11      0.76      0.00
    9  -12   11      1.70      0.00
   10  -12   11      0.60      0.00
   11  -12   11     -0.39      0.00
   12  -12   11      1.83      0.00
   13  -12   11     -2.87      0.00
   14  -12   11     -1.50      0.00
   15  -12   11      0.53      0.00
  -12  -11   11     -4.52      0.00
  -11  -11   11      1.31      0.00
  -10  -11   11      3.61      0.00
   -9  -11   11      6.31      0.00
   -8  -11   11      1.22      0.00
   -7  -11   11      1.48      0.00
   -6  -11   11     -1.04      0.00
   -5  -11   11     -0.08      0.00
   -4  -11   11     -1.89      0.00
   -3  -11   11      6.64      0.00
   -2  -11   11      0.32      0.00
   -1  -11   11     -3.98      0.00
    0  -11   11      1.55      0.00
    1  -11   11     -0.37      0.00
    2  -11   11     -1.76      0.00
    3  -11   11     -2.36      0.00
    4  -11   11      3.08      0.00
    5  -11   11     -6.34      0.00
    6  -11   11      0.42      0.00
    7  -11   11     -0.02      0.00
    8  -11   11     -0.96      0.00
    9  -11   11      0.66      0.00
   10  -11   11      1.60      0.00
   11  -11   11      2.73      0.00
   12  -11   11     -2.26      0.00
   13  -11   11     -1.30      0.00
   14  -11   11      1.72      0.00
   15  -11   11      0.01      0.00
  -13  -10   11      0.64      0.00
  -12  -10   11      1.11      0.00
  -11  -10   11     -1.81      0.00
  -10  -10   11      1.41      0.00
   -9  -10   11     -7.15      0.00
   -8  -10   11     -1.23      0.00
   -7  -10   11      2.48      0.00
   -6  -10   11     -0.45      0.00
   -5  -10   11     -0.60      0.00
   -4  -10   11     -1.33      0.00
   -3  -10   11     -6.07      0.00
   -2  -10   11      2.69      0.00
   -1  -10   11      4.88      0.00
    0  -10   11     -1.38      0.00
    1  -10   11      0.28      0.00
    2  -10   11     -0.21      0.00
    3  -10   11      4.23      0.00
    4  -10   11     -0.84      0.00
    5  -10   11      7.93      0.00
    6  -10   11     -4.63      0.00
    7  -10   11     -0.35      0.00
    8  -10   11      1.76      0.00
    9  -10   11      0.04      0.00
   10  -10   11     -2.55      0.00
   11  -10   11     -4.13      0.00
   12  -10   11      4.43      0.00
   13  -10   11      2.59      0.00
   14  -10   11     -2.18      0.00
   15  -10   11      0.40      0.00
  -13   -9   11      3.75      0.00
  -12   -9   11     -1.57      0.00
  -11   -9   11      0.87      0.00
  -10   -9   11     -1.61      0.00
   -9   -9   11      3.06      0.00
   -8   -9   11      0.79      0.00
   -7   -9   11      1.33      0.00
   -6   -9   11     -1.48      0.00
   -5   -9   11     -0.49      0.00
   -4   -9   11      6.11      0.00
   -3   -9   11      0.61      0.00
   -2   -9   11     -4.64      0.00
   -1   -9   11     -0.42      0.00
    0   -9   11      4.48      0.00
    1   -9   11     -2.61      0.00
    2   -9   11     -0.37      0.00
    3   -9   11     -7.14      0.00
    4   -9   11      1.28      0.00
    5   -9   11     -3.51      0.00
    6   -9   11      8.47      0.00
    7   -9   11     -2.99      0.00
    8   -9   11     -2.55      0.00
    9   -9   11     -0.30      0.00
   10   -9   11      1.16      0.00
   11   -9   11      1.46      0.00
   12   -9   11     -2.45      0.00
   13   -9   11     -1.04      0.00
   14   -9   11     -0.14      0.00
   15   -9   11     -0.04      0.00
  -14   -8   11     -0.46      0.00
  -13   -8   11     -3.97      0.00
  -12   -8   11      3.93      0.00
  -11   -8   11     -5.45      0.00
  -10   -8   11      1.66      0.00
   -9   -8   11      2.38      0.00
   -8   -8   11     -1.27      0.00
   -7   -8   11     -3.25      0.00
   -6   -8   11      3.90      0.00
   -5   -8   11      0.10      0.00
   -4   -8   11     -6.09      0.00
   -3   -8   11      2.74      0.00
   -2   -8   11      0.16      0.00
   -1   -8   11     -3.29      0.00
    0   -8   11     -6.08      0.00
    1   -8   11      9.84      0.00
    2   -8   11      0.51      0.00
    3   -8   11      2.26      0.00
    4   -8   11     -3.31      0.00
    5   -8   11      4.60      0.00
    6   -8   11     -6.93      0.00
    7   -8   11      4.67      0.00
    8   -8   11      1.39      0.00
    9   -8   11     -0.20      0.00
   10   -8   11     -1.18      0.00
   11   -8   11      1.15      0.00
   12   -8   11      2.92      0.00
   13   -8   11      0.77      0.00
   14   -8   11     -0.23      0.00
   15   -8   11     -1.76      0.00
  -15   -7   11      4.82      0.00
  -14   -7   11     -0.71      0.00
  -13   -7   11      0.74      0.00
  -12   -7   11     -1.26      0.00
  -11   -7   11      6.82      0.00
  -10   -7   11     -2.08      0.00
   -9   -7   11     -0.74      0.00
   -8   -7   11     -3.24      0.00
   -7   -7   11      1.89      0.00
   -6   -7   11     -0.09      0.00
   -5   -7   11     -6.60      0.00
   -4   -7   11      5.06      0.00
   -3   -7   11      5.53      0.00
   -2   -7   11      4.14      0.00
   -1   -7   11     -4.18      0.00
    0   -7   11      4.45      0.00
    1   -7   11    -11.36      0.00
    2   -7   11      1.24      0.00
    3   -7   11      2.02      0.00
    4   -7   11      3.48      0.00
    5   -7   11     -6.65      0.00
    6   -7   11      2.25      0.00
    7   -7   11     -4.67      0.00
    8   -7   11      2.07      0.00
    9   -7   11      0.88      0.00
   10   -7   11      0.49      0.00
   11   -7   11     -3.20      0.00
   12   -7   11     -2.74      0.00
   13   -7   11      2.06      0.00
   14   -7   11      2.37      0.00
   15   -7   11      1.66      0.00
  -16   -6   11     -3.82      0.00
  -15   -6   11     -2.80      0.00
  -14   -6   11      0.28      0.00
  -13   -6   11     -3.10      0.00
  -12   -6   11      3.39      0.00
  -11   -6   11     -1.75      0.00
  -10   -6   11      1.87      0.00
   -9   -6   11     -3.39      0.00
   -8   -6   11      4.17      0.00
   -7   -6   11     -2.99      0.00
   -6   -6   11     -1.20      0.00
   -5   -6   11     10.15      0.00
   -4   -6   11     -7.18      0.00
   -3   -6   11     -4.89      0.00
   -2   -6   11     -2.28      0.00
   -1   -6   11      8.97      0.00
    0   -6   11     -4.66      0.00
    1   -6   11      8.13      0.00
    2   -6   11     -2.39      0.00
    3   -6   11     -0.04      0.00
    4   -6   11     -4.40      0.00
    5   -6   11      8.71      0.00
    6   -6   11      1.43      0.00
    7   -6   11     -0.62      0.00
    8   -6   11     -3.65      0.00
    9   -6   11      3.21      0.00
   10   -6   11      1.56      0.00
   11   -6   11      0.04      0.00
   12   -6   11     -1.88      0.00
   13   -6   11     -2.78      0.00
   14   -6   11      0.17      0.00
  -16   -5   11      5.79      0.00
  -15   -5   11     -3.26      0.00
  -14   -5   11      2.69      0.00
  -13   -5   11      3.97      0.00
  -12   -5   11     -7.50      0.00
  -11   -5   11     -1.91      0.00
  -10   -5   11      0.69      0.00
   -9   -5   11      9.89      0.00
   -8   -5   11     -4.13      0.00
   -7   -5   11     -0.32      0.00
   -6   -5   11      5.29      0.00
   -5   -5   11     -7.51      0.00
   -4   -5   11      0.16      0.00
   -3   -5   11     -1.69      0.00
   -2   -5   11      3.92      0.00
   -1   -5   11     -9.88      0.00
    0   -5   11      5.82      0.00
    1   -5   11     -2.31      0.00
    2   -5   11      2.14      0.00
    3   -5   11     -6.99      0.00
    4   -5   11      4.86      0.00
    5   -5   11     -8.11      0.00
    6   -5   11      0.66      0.00
    7   -5   11      2.60      0.00
    8   -5   11      0.99      0.00
    9   -5   11     -6.33      0.00
   10   -5   11      0.55      0.00
   11   -5   11      4.96      0.00
   12   -5   11     -1.64      0.00
   13   -5   11     -0.64      0.00
   14   -5   11      1.27      0.00
  -17   -4   11     -0.57      0.00
  -16   -4   11     -3.72      0.00
  -15   -4   11      3.97      0.00
  -14   -4   11      1.04      0.00
  -13   -4   11     -4.10      0.00
  -12   -4   11      3.30      0.00
  -11   -4   11      1.12      0.00
  -10   -4   11     -1.87      0.00
   -9   -4   11    -11.87      0.00
   -8   -4   11      5.03      0.00
   -7   -4   11      3.33      0.00
   -6   -4   11     -5.84      0.00
   -5   -4   11      9.27      0.00
   -4   -4   11      1.10      0.00
   -3   -4   11      2.50      0.00
   -2   -4   11     -5.53      0.00
   -1   -4   11      9.79      0.00
    0   -4   11     -9.41      0.00
    1   -4   11      2.60      0.00
    2   -4   11      2.65      0.00
    3   -4   11      8.92      0.00
    4   -4   11     -7.76      0.00
    5   -4   11      4.31      0.00
    6   -4   11      0.57      0.00
    7   -4   11     -0.16      0.00
    8   -4   11     -1.57      0.00
    9   -4   11      5.37      0.00
   10   -4   11     -1.23      0.00
   11   -4   11     -3.53      0.00
   12   -4   11      5.60      0.00
   13   -4   11     -0.91      0.00
   14   -4   11     -4.28      0.00
  -17   -3   11     -6.75      0.00
  -16   -3   11      1.98      0.00
  -15   -3   11      0.91      0.00
  -14   -3   11     -4.38      0.00
  -13   -3   11      4.07      0.00
  -12   -3   11      2.42      0.00
  -11   -3   11      1.64      0.00
  -10   -3   11     -4.66      0.00
   -9   -3   11      7.08      0.00
   -8   -3   11     -0.05      0.00
   -7   -3   11     -4.78      0.00
   -6   -3   11     -0.02      0.00
   -5   -3   11     -5.48      0.00
   -4   -3   11      6.31      0.00
   -3   -3   11     -7.13      0.00
   -2   -3   11      5.88      0.00
   -1   -3   11     -7.45      0.00
    0   -3   11     10.66      0.00
    1   -3   11     -7.67      0.00
    2   -3   11     -3.68      0.00
    3   -3   11     -2.75      0.00
    4   -3   11      7.86      0.00
    5   -3   11     -5.51      0.00
    6   -3   11     -1.82      0.00
    7   -3   11      2.46      0.00
    8   -3   11      1.67      0.00
    9   -3   11     -3.95      0.00
   10   -3   11     -1.94      0.00
   11   -3   11      1.72      0.00
   12   -3   11      0.43      0.00
   13   -3   11     -0.41      0.00
  -18   -2   11      3.34      0.00
  -17   -2   11      7.87      0.00
  -16   -2   11     -2.31      0.00
  -15   -2   11     -1.53      0.00
  -14   -2   11      2.88      0.00
  -13   -2   11     -0.76      0.00
  -12   -2   11     -2.49      0.00
  -11   -2   11     -5.07      0.00
  -10   -2   11      8.19      0.00
   -9   -2   11      2.02      0.00
   -8   -2   11     -2.33      0.00
   -7   -2   11      0.77      0.00
   -6   -2   11     -0.39      0.00
   -5   -2   11      1.84      0.00
   -4   -2   11     -9.51      0.00
   -3   -2   11     10.82      0.00
   -2   -2   11     -3.13      0.00
   -1   -2   11      7.86      0.00
    0   -2   11    -13.58      0.00
    1   -2   11      4.64      0.00
    2   -2   11      3.47      0.00
    3   -2   11      0.99      0.00
    4   -2   11     -3.88      0.00
    5   -2   11      5.74      0.00
    6   -2   11     -2.32      0.00
    7   -2   11     -2.99      0.00
    8   -2   11      0.89      0.00
    9   -2   11      1.79      0.00
   10   -2   11      1.01      0.00
   11   -2   11     -0.78      0.00
   12   -2   11     -1.87      0.00
   13   -2   11      0.95      0.00
  -18   -1   11     -4.17      0.00
  -17   -1   11     -2.73      0.00
  -16   -1   11     -1.56      0.00
  -15   -1   11     -1.53      0.00
  -14   -1   11      1.52      0.00
  -13   -1   11     -1.55      0.00
  -12   -1   11     -3.21      0.00
  -11   -1   11      7.49      0.00
  -10   -1   11     -3.62      0.00
   -9   -1   11     -9.37      0.00
   -8   -1   11      0.86      0.00
   -7   -1   11      7.02      0.00
   -6   -1   11      2.73      0.00
   -5   -1   11     -6.38      0.00
   -4   -1   11      8.30      0.00
   -3   -1   11     -6.84      0.00
   -2   -1   11      1.01      0.00
   -1   -1   11    -10.86      0.00
    0   -1   11     18.25      0.00
    1   -1   11     -0.25      0.00
    2   -1   11     -8.01      0.00
    3   -1   11     -3.27      0.00
    4   -1   11      5.61      0.00
    5   -1   11     -1.49      0.00
    6   -1   11      1.74      0.00
    7   -1   11     -0.46      0.00
    8   -1   11     -0.77      0.00
    9   -1   11      1.02      0.00
   10   -1   11      1.44      0.00
   11   -1   11     -1.36      0.00
   12   -1   11      1.83      0.00
   13   -1   11      2.92      0.00
  -19    0   11      2.33      0.00
  -18    0   11      0.95      0.00
  -17    0   11      1.36      0.00
  -16    0   11      4.78      0.00
  -15    0   11      0.82      0.00
  -14    0   11     -3.43      0.00
  -13    0   11      1.45      0.00
  -12    0   11      6.46      0.00
  -11    0   11     -5.43      0.00
  -10    0   11     -1.06      0.00
   -9    0   11      6.11      0.00
   -8    0   11      3.12      0.00
   -7    0   11     -6.71      0.00
   -6    0   11     -8.21      0.00
   -5    0   11     10.36      0.00
   -4    0   11     -0.85      0.00
   -3    0   11     -0.36      0.00
   -2    0   11     -5.52      0.00
   -1    0   11     16.22      0.00
    0    0   11    -13.86      0.00
    1    0   11     -2.73      0.00
    2    0   11      5.87      0.00
    3    0   11      4.66      0.00
    4    0   11     -7.97      0.00
    5    0   11      1.87      0.00
    6    0   11      2.25      0.00
    7    0   11     -1.10      0.00
    8    0   11     -0.86      0.00
    9    0   11     -0.99      0.00
   10    0   11     -1.53      0.00
   11    0   11     -1.57      0.00
   12    0   11     -1.57      0.00
  -19    1   11     -3.57      0.00
  -18    1   11     -1.31      0.00
  -17    1   11      1.87      0.00
  -16    1   11     -4.20      0.00
  -15    1   11     -2.06      0.00
  -14    1   11      1.34      0.00
  -13    1   11      2.31      0.00
  -12    1   11     -4.65      0.00
  -11    1   11      0.89      0.00
  -10    1   11      4.71      0.00
   -9    1   11      0.30      0.00
   -8    1   11     -7.25      0.00
   -7    1   11      1.22      0.00
   -6    1   11     14.76      0.00
   -5    1   11    -10.30      0.00
   -4    1   11     -5.74      0.00
   -3    1   11      2.47      0.00
   -2    1   11     10.69      0.00
   -1    1   11    -20.75      0.00
    0    1   11      5.74      0.00
    1    1   11     12.00      0.00
    2    1   11     -0.64      0.00
    3    1   11    -11.33      0.00
    4    1   11      4.22      0.00
    5    1   11     -0.08      0.00
    6    1   11     -1.39      0.00
    7    1   11      2.49      0.00
    8    1   11      0.40      0.00
    9    1   11      0.20      0.00
   10    1   11      2.64      0.00
   11    1   11      1.30      0.00
   12    1   11     -3.73      0.00
  -20    2   11     -2.24      0.00
  -19    2   11      5.66      0.00
  -18    2   11      2.78      0.00
  -17    2   11     -6.34      0.00
  -16    2   11      3.39      0.00
  -15    2   11      3.76      0.00
  -14    2   11     -0.04      0.00
  -13    2   11     -3.91      0.00
  -12    2   11      1.78      0.00
  -11    2   11     -0.42      0.00
  -10    2   11     -5.35      0.00
   -9    2   11     -4.66      0.00
   -8    2   11      3.80      0.00
   -7    2   11      7.18      0.00
   -6    2   11    -11.50      0.00
   -5    2   11      1.39      0.00
   -4    2   11      4.66      0.00
   -3    2   11      5.28      0.00
   -2    2   11    -13.74      0.00
   -1    2   11     14.62      0.00
    0    2   11     -0.70      0.00
    1    2   11    -11.57      0.00
    2    2   11     -0.23      0.00
    3    2   11     14.56      0.00
    4    2   11     -2.01      0.00
    5    2   11     -5.07      0.00
    6    2   11      2.57      0.00
    7    2   11     -0.26      0.00
    8    2   11     -2.14      0.00
    9    2   11      0.15      0.00
   10    2   11      0.47      0.00
   11    2   11      2.30      0.00
  -20    3   11     -0.48      0.00
  -19    3   11     -4.36      0.00
  -18    3   11     -2.87      0.00
  -17    3   11      4.95      0.00
  -16    3   11     -1.11      0.00
  -15    3   11     -2.85      0.00
  -14    3   11     -0.03      0.00
  -13    3   11      2.64      0.00
  -12    3   11      3.42      0.00
  -11    3   11      0.10      0.00
  -10    3   11      1.77      0.00
   -9    3   11      7.80      0.00
   -8    3   11      0.98      0.00
   -7    3   11    -10.22      0.00
   -6    3   11      6.22      0.00
   -5    3   11      5.81      0.00
   -4    3   11     -2.95      0.00
   -3    3   11    -10.71      0.00
   -2    3   11     15.47      0.00
   -1    3   11     -3.93      0.00
    0    3   11     -8.56      0.00
    1    3   11      0.00      0.00
    2    3   11      8.29      0.00
    3    3   11     -9.82      0.00
    4    3   11     -1.33      0.00
    5    3   11      3.32      0.00
    6    3   11     -1.18      0.00
    7    3   11      0.65      0.00
    8    3   11      0.89      0.00
    9    3   11     -1.71      0.00
   10    3   11     -2.85      0.00
   11    3   11      1.11      0.00
  -20    4   11      2.06      0.00
  -19    4   11     -0.10      0.00
  -18    4   11      3.68      0.00
  -17    4   11     -0.22      0.00
  -16    4   11      0.12      0.00
  -15    4   11     -1.69      0.00
  -14    4   11     -1.35      0.00
  -13    4   11     -0.90      0.00
  -12    4   11     -5.01      0.00
  -11    4   11      0.43      0.00
  -10    4   11     -0.14      0.00
   -9    4   11     -5.80      0.00
   -8    4   11     -2.94      0.00
   -7    4   11      4.40      0.00
   -6    4   11      0.46      0.00
   -5    4   11     -2.31      0.00
   -4    4   11     -4.00      0.00
   -3    4   11      8.89      0.00
   -2    4   11     -8.72      0.00
   -1    4   11     -0.67      0.00
    0    4   11     10.72      0.00
    1    4   11      5.94      0.00
    2    4   11    -11.75      0.00
    3    4   11      5.15      0.00
    4    4   11      2.05      0.00
    5    4   11     -2.43      0.00
    6    4   11     -0.82      0.00
    7    4   11      1.29      0.00
    8    4   11      0.26      0.00
    9    4   11     -2.25      0.00
   10    4   11      0.31      0.00
  -21    5   11     -2.70      0.00
  -20    5   11     -1.48      0.00
  -19    5   11     -0.02      0.00
  -18    5   11     -3.83      0.00
  -17    5   11     -1.07      0.00
  -16    5   11      1.50      0.00
  -15    5   11      4.90      0.00
  -14    5   11      0.11      0.00
  -13    5   11     -0.15      0.00
  -12    5   11      1.69      0.00
  -11    5   11      2.34      0.00
  -10    5   11      2.70      0.00
   -9    5   11     -0.35      0.00
   -8    5   11     -0.92      0.00
   -7    5   11     -0.79      0.00
   -6    5   11     -2.91      0.00
   -5    5   11     -0.73      0.00
   -4    5   11      8.92      0.00
   -3    5   11     -6.70      0.00
   -2    5   11      0.77      0.00
   -1    5   11      1.67      0.00
    0    5   11     -2.12      0.00
    1    5   11     -8.34      0.00
    2    5   11      5.14      0.00
    3    5   11      2.46      0.00
    4    5   11      1.80      0.00
    5    5   11      0.65      0.00
    6    5   11     -3.22      0.00
    7    5   11      3.46      0.00
    8    5   11      5.33      0.00
    9    5   11      1.67      0.00
  -21    6   11      2.10      0.00
  -20    6   11      3.05      0.00
  -19    6   11      0.31      0.00
  -18    6   11      0.11      0.00
  -17    6   11     -1.60      0.00
  -16    6   11      1.42      0.00
  -15    6   11     -1.09      0.00
  -14    6   11     -1.96      0.00
  -13    6   11     -2.26      0.00
  -12    6   11      0.72      0.00
  -11    6   11     -0.95      0.00
  -10    6   11     -2.98      0.00
   -9    6   11      5.30      0.00
   -8    6   11      4.94      0.00
   -7    6   11     -4.26      0.00
   -6    6   11     -0.84      0.00
   -5    6   11      6.78      0.00
   -4    6   11     -6.21      0.00
   -3    6   11     -0.22      0.00
   -2    6   11      2.54      0.00
   -1    6   11      1.02      0.00
    0    6   11     -4.24      0.00
    1    6   11      4.52      0.00
    2    6   11     -0.87      0.00
    3    6   11     -5.32      0.00
    4    6   11     -1.01      0.00
    5    6   11     -0.17      0.00
    6    6   11      0.50      0.00
    7    6   11     -8.05      0.00
    8    6   11     -3.35      0.00
    9    6   11      3.68      0.00
  -21    7   11     -2.72      0.00
  -20    7   11     -1.13      0.00
  -19    7   11      2.61      0.00
  -18    7   11      0.64      0.00
  -17    7   11      2.62      0.00
  -16    7   11     -3.64      0.00
  -15    7   11     -0.39      0.00
  -14    7   11      3.95      0.00
  -13    7   11      3.21      0.00
  -12    7   11     -1.98      0.00
  -11    7   11     -4.62      0.00
  -10    7   11      3.22      0.00
   -9    7   11     -2.03      0.00
   -8    7   11     -4.11      0.00
   -7    7   11      4.46      0.00
   -6    7   11      1.59      0.00
   -5    7   11     -8.93      0.00
   -4    7   11      3.28      0.00
   -3    7   11      3.44      0.00
   -2    7   11     -2.20      0.00
   -1    7   11     -2.18      0.00
    0    7   11      3.42      0.00
    1    7   11      1.01      0.00
    2    7   11     -0.68      0.00
    3    7   11      2.14      0.00
    4    7   11      1.26      0.00
    5    7   11      5.24      0.00
    6    7   11     -0.87      0.00
    7    7   11      1.24      0.00
    8    7   11      1.75      0.00
  -21    8   11      0.65      0.00
  -20    8   11     -1.25      0.00
  -19    8   11     -1.47      0.00
  -18    8   11     -1.68      0.00
  -17    8   11     -4.97      0.00
  -16    8   11      0.31      0.00
  -15    8   11      1.16      0.00
  -14    8   11     -1.26      0.00
  -13    8   11     -1.49      0.00
  -12    8   11      2.87      0.00
  -11    8   11      2.93      0.00
  -10    8   11     -4.10      0.00
   -9    8   11     -0.72      0.00
   -8    8   11      3.07      0.00
   -7    8   11      1.36      0.00
   -6    8   11     -3.07      0.00
   -5    8   11      2.59      0.00
   -4    8   11      2.39      0.00
   -3    8   11      0.18      0.00
   -2    8   11     -1.82      0.00
   -1    8   11      0.54      0.00
    0    8   11      2.15      0.00
    1    8   11     -2.09      0.00
    2    8   11     -1.76      0.00
    3    8   11      0.95      0.00
    4    8   11     -1.70      0.00
    5    8   11     -6.29      0.00
    6    8   11      3.77      0.00
    7    8   11     -0.12      0.00
  -21    9   11     -1.10      0.00
  -20    9   11      0.90      0.00
  -19    9   11      5.72      0.00
  -18    9   11      4.69      0.00
  -17    9   11      2.82      0.00
  -16    9   11      0.04      0.00
  -15    9   11     -0.39      0.00
  -14    9   11     -0.67      0.00
  -13    9   11      0.23      0.00
  -12    9   11     -0.72      0.00
  -11    9   11     -0.90      0.00
  -10    9   11      0.44      0.00
   -9    9   11      0.27      0.00
   -8    9   11     -0.23      0.00
   -7    9   11     -3.79      0.00
   -6    9   11      2.66      0.00
   -5    9   11      1.69      0.00
   -4    9   11     -3.82      0.00
   -3    9   11     -5.26      0.00
   -2    9   11      2.09      0.00
   -1    9   11      4.28      0.00
    0    9   11     -4.87      0.00
    1    9   11      0.41      0.00
    2    9   11      3.22      0.00
    3    9   11     -1.36      0.00
    4    9   11      0.29      0.00
    5    9   11      5.09      0.00
    6    9   11      1.08      0.00
  -21   10   11      1.85      0.00
  -20   10   11     -4.35      0.00
  -19   10   11     -7.51      0.00
  -18   10   11     -2.09      0.00
  -17   10   11     -1.08      0.00
  -16   10   11      0.48      0.00
  -15   10   11     -1.20      0.00
  -14   10   11      2.78      0.00
  -13   10   11     -0.69      0.00
  -12   10   11     -1.17      0.00
  -11   10   11      2.47      0.00
  -10   10   11      0.54      0.00
   -9   10   11      0.75      0.00
   -8   10   11     -0.04      0.00
   -7   10   11      1.32      0.00
   -6   10   11      0.42      0.00
   -5   10   11     -2.14      0.00
   -4   10   11      0.16      0.00
   -3   10   11      7.59      0.00
   -2   10   11     -1.58      0.00
   -1   10   11     -6.65      0.00
    0   10   11      3.59      0.00
    1   10   11      1.45      0.00
    2   10   11     -2.53      0.00
    3   10   11     -3.19      0.00
    4   10   11      1.56      0.00
    5   10   11     -2.68      0.00
  -21   11   11      0.45      0.00
  -20   11   11      0.58      0.00
  -19   11   11      2.78      0.00
  -18   11   11      2.91      0.00
  -17   11   11     -0.13      0.00
  -16   11   11     -0.32      0.00
  -15   11   11      2.28      0.00
  -14   11   11     -4.14      0.00
  -13   11   11      0.54      0.00
  -12   11   11      1.17      0.00
  -11   11   11     -1.89      0.00
  -10   11   11     -1.06      0.00
   -9   11   11     -0.74      0.00
   -8   11   11     -0.05      0.00
   -7   11   11      1.35      0.00
   -6   11   11     -1.02      0.00
   -5   11   11      0.86      0.00
   -4   11   11      1.06      0.00
   -3   11   11     -3.06      0.00
   -2   11   11     -1.01      0.00
   -1   11   11      3.58      0.00
    0   11   11      3.68      0.00
    1   11   11     -1.22      0.00
    2   11   11     -0.24      0.00
    3   11   11      3.76      0.00
    4   11   11     -0.71      0.00
  -21   12   11      0.86      0.00
  -20   12   11      2.18      0.00
  -19   12   11     -2.20      0.00
  -18   12   11     -1.37      0.00
  -17   12   11      3.63      0.00
  -16   12   11     -0.70      0.00
  -15   12   11     -3.10      0.00
  -14   12   11      2.96      0.00
  -13   12   11     -1.01      0.00
  -12   12   11      0.56      0.00
  -11   12   11      1.45      0.00
  -10   12   11      0.66      0.00
   -9   12   11     -2.01      0.00
   -8   12   11     -0.12      0.00
   -7   12   11     -2.03      0.00
   -6   12   11     -1.88      0.00
   -5   12   11      1.23      0.00
   -4   12   11      0.16      0.00
   -3   12   11     -1.09      0.00
   -2   12   11      3.25      0.00
   -1   12   11     -3.61      0.00
    0   12   11     -6.52      0.00
    1   12   11      2.32      0.00
    2   12   11      1.73      0.00
    3   12   11     -3.36      0.00
  -21   13   11     -0.81      0.00
  -20   13   11      0.04      0.00
  -19   13   11     -1.42      0.00
  -18   13   11     -0.77      0.00
  -17   13   11     -2.45      0.00
  -16   13   11     -2.65      0.00
  -15   13   11      3.05      0.00
  -14   13   11      0.20      0.00
  -13   13   11      1.84      0.00
  -12   13   11     -1.22      0.00
  -11   13   11      0.62      0.00
  -10   13   11      0.84      0.00
   -9   13   11      1.84      0.00
   -8   13   11      0.54      0.00
   -7   13   11      2.64      0.00
   -6   13   11      2.57      0.00
   -5   13   11     -0.76      0.00
   -4   13   11     -0.42      0.00
   -3   13   11      2.25      0.00
   -2   13   11     -0.96      0.00
   -1   13   11      0.67      0.00
    0   13   11      1.37      0.00
    1   13   11     -0.18      0.00
    2   13   11      2.52      0.00
  -21   14   11      1.39      0.00
  -20   14   11      2.20      0.00
  -19   14   11      4.65      0.00
  -18   14   11      0.45      0.00
  -17   14   11      1.45      0.00
  -16   14   11      2.03      0.00
  -15   14   11     -4.33      0.00
  -14   14   11     -0.35      0.00
  -13   14   11     -1.05      0.00
  -12   14   11     -0.45      0.00
  -11   14   11     -2.67      0.00
  -10   14   11     -1.38      0.00
   -9   14   11     -2.72      0.00
   -8   14   11      0.09      0.00
   -7   14   11      0.22      0.00
   -6   14   11     -2.84      0.00
   -5   14   11     -3.14      0.00
   -4   14   11      2.10      0.00
   -3   14   11     -1.90      0.00
   -2   14   11     -1.83      0.00
   -1   14   11      3.32      0.00
    0   14   11      1.07      0.00
    1   14   11     -2.07      0.00
  -20   15   11     -3.26      0.00
  -19   15   11     -4.61      0.00
  -18   15   11     -1.34      0.00
  -17   15   11      1.45      0.00
  -16   15   11      3.73      0.00
  -15   15   11      1.59      0.00
  -14   15   11     -1.60      0.00
  -13   15   11      1.87      0.00
  -12   15   11      2.13      0.00
  -11   15   11      4.10      0.00
  -10   15   11      0.62      0.00
   -9   15   11      2.96      0.00
   -8   15   11     -1.67      0.00
   -7   15   11     -2.24      0.00
   -6   15   11      2.46      0.00
   -5   15   11      1.82      0.00
   -4   15   11     -3.08      0.00
   -3   15   11      2.89      0.00
   -2   15   11      4.90      0.00
   -1   15   11     -4.47      0.00
    0   15   11     -3.16      0.00
  -20   16   11      0.47      0.00
  -19   16   11      3.34      0.00
  -18   16   11     -1.25      0.00
  -17   16   11     -3.26      0.00
  -16   16   11     -1.78      0.00
  -15   16   11      0.00      0.00
  -14   16   11     -1.54      0.00
  -13   16   11     -4.75      0.00
  -12   16   11     -1.35      0.00
  -11   16   11     -2.83      0.00
  -10   16   11      2.62      0.00
   -9   16   11     -0.37      0.00
   -8   16   11      1.03      0.00
   -7   16   11      2.41      0.00
   -6   16   11      1.37      0.00
   -5   16   11      1.02      0.00
   -4   16   11     -1.89      0.00
   -3   16   11     -2.95      0.00
   -2   16   11     -2.08      0.00
  -19   17   11     -2.19      0.00
  -18   17   11      2.47      0.00
  -17   17   11      0.80      0.00
  -16   17   11      2.24      0.00
  -15   17   11      7.07      0.00
  -14   17   11      3.07      0.00
  -13   17   11      2.28      0.00
  -12   17   11     -1.47      0.00
  -11   17   11      0.13      0.00
  -10   17   11     -4.50      0.00
   -9   17   11     -3.16      0.00
   -8   17   11     -0.43      0.00
   -7   17   11     -1.23      0.00
   -6   17   11     -1.50      0.00
   -5   17   11      0.65      0.00
   -4   17   11      4.04      0.00
   -3   17   11     -2.01      0.00
  -18   18   11     -0.01      0.00
  -17   18   11     -2.55      0.00
  -16   18   11     -9.51      0.00
  -15   18   11     -9.26      0.00
  -14   18   11      1.41      0.00
  -13   18   11     -1.36      0.00
  -12   18   11      3.12      0.00
  -11   18   11      4.15      0.00
  -10   18   11      3.49      0.00
   -9   18   11      2.33      0.00
   -8   18   11     -0.60      0.00
   -7   18   11     -0.17      0.00
   -6   18   11      0.21      0.00
   -5   18   11     -1.69      0.00
  -17   19   11      5.98      0.00
  -16   19   11      8.82      0.00
  -15   19   11      5.01      0.00
  -14   19   11     -0.17      0.00
  -13   19   11      2.99      0.00
  -12   19   11     -6.25      0.00
  -11   19   11     -4.46      0.00
  -10   19   11      0.77      0.00
   -9   19   11     -0.56      0.00
   -8   19   11      0.18      0.00
   -7   19   11      0.12      0.00
  -15   20   11     -4.42      0.00
  -14   20   11     -1.32      0.00
  -13   20   11     -0.65      0.00
  -12   20   11      3.54      0.00
  -11   20   11     -0.10      0.00
  -10   20   11     -0.03      0.00
    2  -20   12      0.27      0.00
    3  -20   12      3.36      0.00
    4  -20   12      0.90      0.00
    5  -20   12     -2.33      0.00
    6  -20   12     -1.47      0.00
    7  -20   12     -2.76      0.00
    8  -20   12      0.20      0.00
    9  -20   12     -2.91      0.00
   -1  -19   12     -0.59      0.00
    0  -19   12     -4.39      0.00
    1  -19   12      0.00      0.00
    2  -19   12     -0.82      0.00
    3  -19   12     -2.72      0.00
    4  -19   12      0.12      0.00
    5  -19   12      4.54      0.00
    6  -19   12      0.55      0.00
    7  -19   12     -0.46      0.00
    8  -19   12      3.18      0.00
    9  -19   12      3.38      0.00
   10  -19   12     -0.96      0.00
   11  -19   12     -2.04      0.00
   -3  -18   12     -0.41      0.00
   -2  -18   12      1.14      0.00
   -1  -18   12      1.48      0.00
    0  -18   12      8.06      0.00
    1  -18   12      1.94      0.00
    2  -18   12     -2.37      0.00
    3  -18   12     -0.43      0.00
    4  -18   12     -0.93      0.00
    5  -18   12     -1.79      0.00
    6  -18   12     -0.12      0.00
    7  -18   12     -0.14      0.00
    8  -18   12     -1.37      0.00
    9  -18   12     -0.48      0.00
   10  -18   12      2.29      0.00
   11  -18   12      0.58      0.00
   12  -18   12      1.35      0.00
   -5  -17   12      1.62      0.00
   -4  -17   12      4.55      0.00
   -3  -17   12      0.09      0.00
   -2  -17   12     -5.03      0.00
   -1  -17   12     -1.45      0.00
    0  -17   12     -4.83      0.00
    1  -17   12      0.48      0.00
    2  -17   12      2.57      0.00
    3  -17   12      2.40      0.00
    4  -17   12     -0.90      0.00
    5  -17   12     -2.07      0.00
    6  -17   12     -0.59      0.00
    7  -17   12     -0.17      0.00
    8  -17   12     -0.38      0.00
    9  -17   12      0.55      0.00
   10  -17   12     -1.75      0.00
   11  -17   12     -0.20      0.00
   12  -17   12     -0.47      0.00
   -6  -16   12      1.55      0.00
   -5  -16   12     -7.63      0.00
   -4  -16   12     -3.76      0.00
   -3  -16   12      4.70      0.00
   -2  -16   12      2.53      0.00
   -1  -16   12     -3.50      0.00
    0  -16   12      3.21      0.00
    1  -16   12     -2.27      0.00
    2  -16   12     -2.09      0.00
    3  -16   12     -1.59      0.00
    4  -16   12      5.54      0.00
    5  -16   12      2.99      0.00
    6  -16   12      1.71      0.00
    7  -16   12     -0.74      0.00
    8  -16   12     -1.78      0.00
    9  -16   12      1.09      0.00
   10  -16   12      1.61      0.00
   11  -16   12     -2.54      0.00
   12  -16   12      1.91      0.00
   13  -16   12      4.33      0.00
   -7  -15   12      0.31      0.00
   -6  -15   12      4.30      0.00
   -5  -15   12      7.46      0.00
   -4  -15   12     -3.99      0.00
   -3  -15   12     -0.62      0.00
   -2  -15   12      3.38      0.00
   -1  -15   12      2.98      0.00
    0  -15   12     -3.69      0.00
    1  -15   12      5.34      0.00
    2  -15   12     -2.79      0.00
    3  -15   12     -2.72      0.00
    4  -15   12     -3.62      0.00
    5  -15   12      1.77      0.00
    6  -15   12     -0.77      0.00
    7  -15   12     -0.93      0.00
    8  -15   12      1.24      0.00
    9  -15   12     -0.70      0.00
   10  -15   12     -1.11      0.00
   11  -15   12      2.41      0.00
   12  -15   12     -2.33      0.00
   13  -15   12     -3.80      0.00
   14  -15   12      0.07      0.00
   -9  -14   12     -2.26      0.00
   -8  -14   12     -5.49      0.00
   -7  -14   12     -4.76      0.00
   -6  -14   12     -4.68      0.00
   -5  -14   12     -0.20      0.00
   -4  -14   12      2.98      0.00
   -3  -14   12     -5.42      0.00
   -2  -14   12      2.25      0.00
   -1  -14   12     -3.78      0.00
    0  -14   12     -0.45      0.00
    1  -14   12     -2.61      0.00
    2  -14   12      9.80      0.00
    3  -14   12     -1.15      0.00
    4  -14   12     -3.95      0.00
    5  -14   12     -1.57      0.00
    6  -14   12      3.05      0.00
    7  -14   12      0.04      0.00
    8  -14   12     -3.09      0.00
    9  -14   12      2.21      0.00
   10  -14   12      3.45      0.00
   11  -14   12     -1.36      0.00
   12  -14   12      0.87      0.00
   13  -14   12      0.95      0.00
   14  -14   12      0.18      0.00
  -10  -13   12      5.71      0.00
   -9  -13   12      6.90      0.00
   -8  -13   12      4.96      0.00
   -7  -13   12      0.05      0.00
   -6  -13   12      1.24      0.00
   -5  -13   12      1.80      0.00
   -4  -13   12     -1.17      0.00
   -3  -13   12      3.02      0.00
   -2  -13   12     -3.15      0.00
   -1  -13   12      5.92      0.00
    0  -13   12     -3.89      0.00
    1  -13   12      0.97      0.00
    2  -13   12     -4.95      0.00
    3  -13   12      4.96      0.00
    4  -13   12      1.71      0.00
    5  -13   12     -1.36      0.00
    6  -13   12     -1.69      0.00
    7  -13   12      3.25      0.00
    8  -13   12     -0.01      0.00
    9  -13   12     -5.09      0.00
   10  -13   12     -1.12      0.00
   11  -13   12      0.32      0.00
   12  -13   12     -1.20      0.00
   13  -13   12      2.55      0.00
   14  -13   12     -0.41      0.00
  -11  -12   12     -2.46      0.00
  -10  -12   12     -8.39      0.00
   -9  -12   12     -5.21      0.00
   -8  -12   12     -0.49      0.00
   -7  -12   12      2.08      0.00
   -6  -12   12     -0.09      0.00
   -5  -12   12     -0.67      0.00
   -4  -12   12      2.13      0.00
   -3  -12   12     -6.64      0.00
   -2  -12   12      3.07      0.00
   -1  -12   12     -0.99      0.00
    0  -12   12      4.89      0.00
    1  -12   12     -4.54      0.00
    2  -12   12      2.69      0.00
    3  -12   12     -1.67      0.00
    4  -12   12      1.72      0.00
    5  -12   12      0.15      0.00
    6  -12   12      0.33      0.00
    7  -12   12      0.52      0.00
    8  -12   12      2.18      0.00
    9  -12   12      0.73      0.00
   10  -12   12     -0.08      0.00
   11  -12   12      0.28      0.00
   12  -12   12      0.41      0.00
   13  -12   12     -2.00      0.00
   14  -12   12      0.91      0.00
  -12  -11   12     -0.29      0.00
  -11  -11   12      3.42      0.00
  -10  -11   12      3.75      0.00
   -9  -11   12      2.48      0.00
   -8  -11   12     -0.93      0.00
   -7  -11   12      0.16      0.00
   -6  -11   12     -1.96      0.00
   -5  -11   12     -0.60      0.00
   -4  -11   12      1.17      0.00
   -3  -11   12      6.67      0.00
   -2  -11   12     -8.55      0.00
   -1  -11   12      2.45      0.00
    0  -11   12     -0.55      0.00
    1  -11   12      2.13      0.00
    2  -11   12     -4.87      0.00
    3  -11   12      2.08      0.00
    4  -11   12     -4.25      0.00
    5  -11   12     -3.05      0.00
    6  -11   12      1.07      0.00
    7  -11   12     -1.37      0.00
    8  -11   12     -0.34      0.00
    9  -11   12      1.52      0.00
   10  -11   12      1.03      0.00
   11  -11   12      0.45      0.00
   12  -11   12     -4.19      0.00
   13  -11   12      0.42      0.00
   14  -11   12     -0.07      0.00
  -13  -10   12     -0.97      0.00
  -12  -10   12     -0.35      0.00
  -11  -10   12      1.06      0.00
  -10  -10   12     -1.22      0.00
   -9  -10   12     -3.84      0.00
   -8  -10   12      4.00      0.00
   -7  -10   12     -1.89      0.00
   -6  -10   12      0.01      0.00
   -5  -10   12     -1.69      0.00
   -4  -10   12     -1.59      0.00
   -3  -10   12     -3.65      0.00
   -2  -10   12      8.46      0.00
   -1  -10   12     -3.79      0.00
    0  -10   12      1.03      0.00
    1  -10   12     -1.73      0.00
    2  -10   12      5.94      0.00
    3  -10   12     -0.31      0.00
    4  -10   12      5.58      0.00
    5  -10   12      1.56      0.00
    6  -10   12     -4.46      0.00
    7  -10   12      3.09      0.00
    8  -10   12      0.88      0.00
    9  -10   12     -1.92      0.00
   10  -10   12     -2.54      0.00
   11  -10   12      1.64      0.00
   12  -10   12      6.83      0.00
   13  -10   12     -0.86      0.00
   14  -10   12      0.63      0.00
  -13   -9   12      1.60      0.00
  -12   -9   12     -2.42      0.00
  -11   -9   12     -0.62      0.00
  -10   -9   12     -1.02      0.00
   -9   -9   12      4.54      0.00
   -8   -9   12     -0.57      0.00
   -7   -9   12      2.61      0.00
   -6   -9   12     -2.57      0.00
   -5   -9   12      6.02      0.00
   -4   -9   12      0.86      0.00
   -3   -9   12      0.74      0.00
   -2   -9   12     -5.60      0.00
   -1   -9   12      5.73      0.00
    0   -9   12     -4.04      0.00
    1   -9   12     -0.24      0.00
    2   -9   12     -7.33      0.00
    3   -9   12      0.17      0.00
    4   -9   12     -0.52      0.00
    5   -9   12      1.66      0.00
    6   -9   12      2.91      0.00
    7   -9   12     -6.26      0.00
    8   -9   12      0.00      0.00
    9   -9   12      0.16      0.00
   10   -9   12      0.48      0.00
   11   -9   12     -0.77      0.00
   12   -9   12     -4.20      0.00
   13   -9   12     -0.83      0.00
   14   -9   12     -0.69      0.00
  -14   -8   12     -2.42      0.00
  -13   -8   12      1.78      0.00
  -12   -8   12      0.07      0.00
  -11   -8   12     -2.67      0.00
  -10   -8   12      4.35      0.00
   -9   -8   12     -6.04      0.00
   -8   -8   12     -1.62      0.00
   -7   -8   12     -0.53      0.00
   -6   -8   12      3.59      0.00
   -5   -8   12     -8.57      0.00
   -4   -8   12      2.72      0.00
   -3   -8   12     -0.68      0.00
   -2   -8   12      3.04      0.00
   -1   -8   12     -6.90      0.00
    0   -8   12      7.98      0.00
    1   -8   12      3.27      0.00
    2   -8   12      2.69      0.00
    3   -8   12     -3.31      0.00
    4   -8   12      0.32      0.00
    5   -8   12      0.74      0.00
    6   -8   12     -1.62      0.00
    7   -8   12      5.26      0.00
    8   -8   12     -1.14      0.00
    9   -8   12      1.41      0.00
   10   -8   12      0.05      0.00
   11   -8   12      1.53      0.00
   12   -8   12      2.00      0.00
   13   -8   12     -1.12      0.00
   14   -8   12     -0.95      0.00
  -15   -7   12      0.17      0.00
  -14   -7   12     -0.24      0.00
  -13   -7   12     -0.43      0.00
  -12   -7   12      3.10      0.00
  -11   -7   12      4.00      0.00
  -10   -7   12     -3.38      0.00
   -9   -7   12      3.00      0.00
   -8   -7   12     -3.04      0.00
   -7   -7   12      5.14      0.00
   -6   -7   12     -5.92      0.00
   -5   -7   12      3.90      0.00
   -4   -7   12      0.44      0.00
   -3   -7   12      4.65      0.00
   -2   -7   12     -8.36      0.00
   -1   -7   12      3.23      0.00
    0   -7   12     -4.68      0.00
    1   -7   12     -2.83      0.00
    2   -7   12      1.66      0.00
    3   -7   12      2.93      0.00
    4   -7   12     -2.53      0.00
    5   -7   12     -4.65      0.00
    6   -7   12      1.05      0.00
    7   -7   12     -0.96      0.00
    8   -7   12      2.41      0.00
    9   -7   12     -1.96      0.00
   10   -7   12     -0.61      0.00
   11   -7   12     -2.38      0.00
   12   -7   12      2.19      0.00
   13   -7   12      4.30      0.00
   14   -7   12     -0.10      0.00
  -16   -6   12     -4.07      0.00
  -15   -6   12      1.17      0.00
  -14   -6   12     -2.94      0.00
  -13   -6   12      0.78      0.00
  -12   -6   12      0.58      0.00
  -11   -6   12     -2.96      0.00
  -10   -6   12     -0.04      0.00
   -9   -6   12     -3.22      0.00
   -8   -6   12      4.80      0.00
   -7   -6   12     -6.66      0.00
   -6   -6   12     10.23      0.00
   -5   -6   12     -1.65      0.00
   -4   -6   12     -2.21      0.00
   -3   -6   12     -5.22      0.00
   -2   -6   12     11.01      0.00
   -1   -6   12     -0.66      0.00
    0   -6   12     -0.71      0.00
    1   -6   12      2.02      0.00
    2   -6   12      0.38      0.00
    3   -6   12     -1.42      0.00
    4   -6   12      1.62      0.00
    5   -6   12      8.06      0.00
    6   -6   12     -3.38      0.00
    7   -6   12     -2.50      0.00
    8   -6   12     -0.21      0.00
    9   -6   12      4.47      0.00
   10   -6   12     -1.84      0.00
   11   -6   12     -2.88      0.00
   12   -6   12     -2.74      0.00
   13   -6   12     -0.18      0.00
   14   -6   12      2.05      0.00
  -16   -5   12      0.03      0.00
  -15   -5   12      0.37      0.00
  -14   -5   12      5.87      0.00
  -13   -5   12     -3.58      0.00
  -12   -5   12     -4.42      0.00
  -11   -5   12      3.21      0.00
  -10   -5   12      5.85      0.00
   -9   -5   12      4.46      0.00
   -8   -5   12     -9.78      0.00
   -7   -5   12      7.19      0.00
   -6   -5   12     -6.64      0.00
   -5   -5   12     -3.86      0.00
   -4   -5   12     -1.81      0.00
   -3   -5   12      7.91      0.00
   -2   -5   12     -8.90      0.00
   -1   -5   12     -1.49      0.00
    0   -5   12      4.71      0.00
    1   -5   12     -2.20      0.00
    2   -5   12     -6.46      0.00
    3   -5   12      0.39      0.00
    4   -5   12      0.96      0.00
    5   -5   12     -6.64      0.00
    6   -5   12      5.17      0.00
    7   -5   12      0.88      0.00
    8   -5   12     -1.29      0.00
    9   -5   12     -4.83      0.00
   10   -5   12      5.68      0.00
   11   -5   12      1.74      0.00
   12   -5   12     -2.17      0.00
   13   -5   12     -0.12      0.00
  -17   -4   12     -1.93      0.00
  -16   -4   12     -1.32      0.00
  -15   -4   12      2.23      0.00
  -14   -4   12     -4.35      0.00
  -13   -4   12     -1.52      0.00
  -12   -4   12      3.27      0.00
  -11   -4   12     -3.71      0.00
  -10   -4   12     -5.30      0.00
   -9   -4   12     -2.32      0.00
   -8   -4   12     13.00      0.00
   -7   -4   12     -8.27      0.00
   -6   -4   12      5.18      0.00
   -5   -4   12      4.15      0.00
   -4   -4   12      0.64      0.00
   -3   -4   12     -7.07      0.00
   -2   -4   12      8.23      0.00
   -1   -4   12      1.59      0.00
    0   -4   12     -5.95      0.00
    1   -4   12      5.90      0.00
    2   -4   12      8.36      0.00
    3   -4   12     -1.50      0.00
    4   -4   12     -5.31      0.00
    5   -4   12      5.60      0.00
    6   -4   12     -2.38      0.00
    7   -4   12     -1.17      0.00
    8   -4   12     -0.23      0.00
    9   -4   12      5.45      0.00
   10   -4   12     -3.77      0.00
   11   -4   12      1.68      0.00
   12   -4   12      1.24      0.00
   13   -4   12     -3.32      0.00
  -17   -3   12      0.14      0.00
  -16   -3   12      5.93      0.00
  -15   -3   12     -4.60      0.00
  -14   -3   12      2.51      0.00
  -13   -3   12      6.36      0.00
  -12   -3   12     -0.38      0.00
  -11   -3   12     -0.56      0.00
  -10   -3   12     -1.53      0.00
   -9   -3   12      6.11      0.00
   -8   -3   12    -11.18      0.00
   -7   -3   12      3.43      0.00
   -6   -3   12     -3.41      0.00
   -5   -3   12      5.22      0.00
   -4   -3   12     -3.39      0.00
   -3   -3   12      1.52      0.00
   -2   -3   12     -3.92      0.00
   -1   -3   12     -1.43      0.00
    0   -3   12      3.36      0.00
    1   -3   12     -8.24      0.00
    2   -3   12     -1.82      0.00
    3   -3   12      2.50      0.00
    4   -3   12      4.27      0.00
    5   -3   12     -6.03      0.00
    6   -3   12      3.06      0.00
    7   -3   12      1.24      0.00
    8   -3   12     -0.21      0.00
    9   -3   12     -5.51      0.00
   10   -3   12      1.40      0.00
   11   -3   12      3.03      0.00
   12   -3   12     -0.75      0.00
   13   -3   12      0.51      0.00
  -18   -2   12      4.63      0.00
  -17   -2   12     -0.82      0.00
  -16   -2   12     -4.65      0.00
  -15   -2   12      2.02      0.00
  -14   -2   12     -0.08      0.00
  -13   -2   12     -4.85      0.00
  -12   -2   12     -2.04      0.00
  -11   -2   12      2.03      0.00
  -10   -2   12      8.50      0.00
   -9   -2   12     -7.71      0.00
   -8   -2   12      4.32      0.00
   -7   -2   12     -3.43      0.00
   -6   -2   12      1.90      0.00
   -5   -2   12     -7.05      0.00
   -4   -2   12      8.31      0.00
   -3   -2   12      0.89      0.00
   -2   -2   12     -0.05      0.00
   -1   -2   12      1.54      0.00
    0   -2   12     -5.70      0.00
    1   -2   12      7.29      0.00
    2   -2   12     -1.78      0.00
    3   -2   12      1.05      0.00
    4   -2   12     -1.36      0.00
    5   -2   12      1.35      0.00
    6   -2   12     -3.60      0.00
    7   -2   12      1.93      0.00
    8   -2   12      0.24      0.00
    9   -2   12      1.20      0.00
   10   -2   12     -1.17      0.00
   11   -2   12     -3.09      0.00
   12   -2   12      1.24      0.00
  -18   -1   12     -1.16      0.00
  -17   -1   12     -0.14      0.00
  -16   -1   12     -0.87      0.00
  -15   -1   12      2.02      0.00
  -14   -1   12      1.06      0.00
  -13   -1   12     -0.56      0.00
  -12   -1   12      1.79      0.00
  -11   -1   12      3.45      0.00
  -10   -1   12    -11.80      0.00
   -9   -1   12      4.53      0.00
   -8   -1   12      3.72      0.00
   -7   -1   12      5.82      0.00
   -6   -1   12     -6.49      0.00
   -5   -1   12      2.93      0.00
   -4   -1   12     -5.07      0.00
   -3   -1   12     -0.23      0.00
   -2   -1   12     -2.83      0.00
   -1   -1   12     -0.04      0.00
    0   -1   12     11.55      0.00
    1   -1   12     -9.04      0.00
    2   -1   12     -1.49      0.00
    3   -1   12     -1.23      0.00
    4   -1   12      4.43      0.00
    5   -1   12      0.04      0.00
    6   -1   12      0.26      0.00
    7   -1   12     -2.60      0.00
    8   -1   12      1.32      0.00
    9   -1   12      2.55      0.00
   10   -1   12     -0.01      0.00
   11   -1   12     -0.04      0.00
   12   -1   12      2.72      0.00
  -19    0   12     -0.05      0.00
  -18    0   12     -0.25      0.00
  -17    0   12      1.39      0.00
  -16    0   12      1.74      0.00
  -15    0   12     -3.82      0.00
  -14    0   12     -1.86      0.00
  -13    0   12      4.19      0.00
  -12    0   12      0.09      0.00
  -11    0   12     -7.00      0.00
  -10    0   12      6.03      0.00
   -9    0   12     -1.19      0.00
   -8    0   12     -0.92      0.00
   -7    0   12     -8.21      0.00
   -6    0   12      7.39      0.00
   -5    0   12      3.24      0.00
   -4    0   12      0.69      0.00
   -3    0   12     -3.19      0.00
   -2    0   12      6.83      0.00
   -1    0   12      3.30      0.00
    0    0   12    -13.04      0.00
    1    0   12      5.40      0.00
    2    0   12      2.76      0.00
    3    0   12      0.27      0.00
    4    0   12     -4.81      0.00
    5    0   12      3.72      0.00
    6    0   12     -1.19      0.00
    7    0   12      0.72      0.00
    8    0   12     -1.37      0.00
    9    0   12     -0.88      0.00
   10    0   12     -2.25      0.00
   11    0   12     -0.27      0.00
  -19    1   12     -1.16      0.00
  -18    1   12      1.58      0.00
  -17    1   12      0.52      0.00
  -16    1   12     -2.88      0.00
  -15    1   12      0.91      0.00
  -14    1   12      2.66      0.00
  -13    1   12     -1.27      0.00
  -12    1   12     -3.17      0.00
  -11    1   12      6.87      0.00
  -10    1   12      1.18      0.00
   -9    1   12     -1.79      0.00
   -8    1   12     -5.60      0.00
   -7    1   12     11.37      0.00
   -6    1   12     -4.11      0.00
   -5    1   12     -9.54      0.00
   -4    1   12     -0.60      0.00
   -3    1   12      7.72      0.00
   -2    1   12     -7.04      0.00
   -1    1   12    -10.60      0.00
    0    1   12     16.63      0.00
    1    1   12      2.21      0.00
    2    1   12     -7.20      0.00
    3    1   12     -5.03      0.00
    4    1   12      5.23      0.00
    5    1   12     -2.50      0.00
    6    1   12      2.65      0.00
    7    1   12     -0.72      0.00
    8    1   12      0.22      0.00
    9    1   12     -0.40      0.00
   10    1   12      4.17      0.00
   11    1   12     -3.02      0.00
  -20    2   12      2.83      0.00
  -19    2   12      2.89      0.00
  -18    2   12     -3.92      0.00
  -17    2   12     -1.31      0.00
  -16    2   12      5.74      0.00
  -15    2   12      1.30      0.00
  -14    2   12     -2.80      0.00
  -13    2   12     -1.05      0.00
  -12    2   12      2.40      0.00
  -11    2   12     -5.93      0.00
  -10    2   12     -3.43      0.00
   -9    2   12     -0.82      0.00
   -8    2   12     10.61      0.00
   -7    2   12     -5.81      0.00
   -6    2   12     -3.73      0.00
   -5    2   12      6.29      0.00
   -4    2   12      6.25      0.00
   -3    2   12     -7.88      0.00
   -2    2   12      0.08      0.00
   -1    2   12     12.47      0.00
    0    2   12    -12.58      0.00
    1    2   12     -1.89      0.00
    2    2   12      8.45      0.00
    3    2   12      6.87      0.00
    4    2   12     -8.92      0.00
    5    2   12      1.87      0.00
    6    2   12      1.01      0.00
    7    2   12     -0.51      0.00
    8    2   12     -1.94      0.00
    9    2   12      2.49      0.00
   10    2   12     -0.90      0.00
  -20    3   12     -3.45      0.00
  -19    3   12     -0.97      0.00
  -18    3   12      0.70      0.00
  -17    3   12      1.24      0.00
  -16    3   12     -5.94      0.00
  -15    3   12     -1.21      0.00
  -14    3   12      0.78      0.00
  -13    3   12      3.68      0.00
  -12    3   12      0.79      0.00
  -11    3   12      1.40      0.00
  -10    3   12      5.30      0.00
   -9    3   12      3.73      0.00
   -8    3   12    -12.06      0.00
   -7    3   12      0.59      0.00
   -6    3   12      9.35      0.00
   -5    3   12     -1.36      0.00
   -4    3   12    -10.32      0.00
   -3    3   12      5.81      0.00
   -2    3   12      8.37      0.00
   -1    3   12    -13.92      0.00
    0    3   12     -2.20      0.00
    1    3   12      5.72      0.00
    2    3   12     -0.51      0.00
    3    3   12     -7.97      0.00
    4    3   12      5.84      0.00
    5    3   12     -1.69      0.00
    6    3   12     -0.34      0.00
    7    3   12      0.75      0.00
    8    3   12      2.81      0.00
    9    3   12     -4.53      0.00
   10    3   12      2.20      0.00
  -20    4   12      0.53      0.00
  -19    4   12      0.46      0.00
  -18    4   12      5.43      0.00
  -17    4   12      0.06      0.00
  -16    4   12      1.75      0.00
  -15    4   12     -1.85      0.00
  -14    4   12      0.84      0.00
  -13    4   12     -4.32      0.00
  -12    4   12     -1.52      0.00
  -11    4   12      1.66      0.00
  -10    4   12     -3.82      0.00
   -9    4   12     -3.47      0.00
   -8    4   12      5.54      0.00
   -7    4   12      1.88      0.00
   -6    4   12     -3.00      0.00
   -5    4   12     -4.03      0.00
   -4    4   12      5.74      0.00
   -3    4   12      1.01      0.00
   -2    4   12     -9.32      0.00
   -1    4   12     10.14      0.00
    0    4   12      9.37      0.00
    1    4   12     -8.28      0.00
    2    4   12     -5.31      0.00
    3    4   12      7.80      0.00
    4    4   12     -2.26      0.00
    5    4   12     -1.20      0.00
    6    4   12     -0.27      0.00
    7    4   12      0.88      0.00
    8    4   12     -5.54      0.00
    9    4   12      1.52      0.00
  -21    5   12     -0.57      0.00
  -20    5   12     -0.57      0.00
  -19    5   12     -2.33      0.00
  -18    5   12     -6.37      0.00
  -17    5   12      1.56      0.00
  -16    5   12      3.28      0.00
  -15    5   12      1.32      0.00
  -14    5   12     -1.91      0.00
  -13    5   12      1.39      0.00
  -12    5   12      2.70      0.00
  -11    5   12      0.07      0.00
  -10    5   12     -1.18      0.00
   -9    5   12      0.29      0.00
   -8    5   12     -1.91      0.00
   -7    5   12     -1.28      0.00
   -6    5   12     -2.08      0.00
   -5    5   12      6.65      0.00
   -4    5   12     -0.66      0.00
   -3    5   12     -6.41      0.00
   -2    5   12      6.01      0.00
   -1    5   12     -0.18      0.00
    0    5   12     -7.88      0.00
    1    5   12      1.60      0.00
    2    5   12      8.66      0.00
    3    5   12     -1.74      0.00
    4    5   12      0.84      0.00
    5    5   12     -1.11      0.00
    6    5   12      2.12      0.00
    7    5   12      4.53      0.00
    8    5   12      3.75      0.00
    9    5   12     -3.11      0.00
  -21    6   12      1.78      0.00
  -20    6   12      2.11      0.00
  -19    6   12     -0.53      0.00
  -18    6   12      1.21      0.00
  -17    6   12     -1.27      0.00
  -16    6   12     -0.07      0.00
  -15    6   12     -1.70      0.00
  -14    6   12     -0.62      0.00
  -13    6   12      1.04      0.00
  -12    6   12     -0.28      0.00
  -11    6   12     -0.83      0.00
  -10    6   12      3.04      0.00
   -9    6   12      3.70      0.00
   -8    6   12     -0.81      0.00
   -7    6   12     -3.41      0.00
   -6    6   12      6.72      0.00
   -5    6   12     -2.60      0.00
   -4    6   12     -6.24      0.00
   -3    6   12      6.29      0.00
   -2    6   12      0.48      0.00
   -1    6   12     -6.39      0.00
    0    6   12      0.28      0.00
    1    6   12      3.45      0.00
    2    6   12     -7.46      0.00
    3    6   12     -2.10      0.00
    4    6   12      1.00      0.00
    5    6   12     -0.33      0.00
    6    6   12     -5.61      0.00
    7    6   12     -4.16      0.00
    8    6   12      3.82      0.00
  -21    7   12     -1.51      0.00
  -20    7   12      1.48      0.00
  -19    7   12      3.12      0.00
  -18    7   12      1.08      0.00
  -17    7   12     -0.26      0.00
  -16    7   12     -1.83      0.00
  -15    7   12      2.88      0.00
  -14    7   12      1.64      0.00
  -13    7   12     -1.58      0.00
  -12    7   12     -4.86      0.00
  -11    7   12      0.83      0.00
  -10    7   12      0.56      0.00
   -9    7   12     -3.58      0.00
   -8    7   12      0.90      0.00
   -7    7   12      2.53      0.00
   -6    7   12     -7.29      0.00
   -5    7   12      0.51      0.00
   -4    7   12      7.60      0.00
   -3    7   12     -4.09      0.00
   -2    7   12     -2.53      0.00
   -1    7   12      6.21      0.00
    0    7   12      5.14      0.00
    1    7   12     -3.74      0.00
    2    7   12      2.84      0.00
    3    7   12      2.85      0.00
    4    7   12      1.90      0.00
    5    7   12      2.17      0.00
    6    7   12      0.14      0.00
    7    7   12      1.80      0.00
  -21    8   12     -1.12      0.00
  -20    8   12     -1.16      0.00
  -19    8   12     -4.33      0.00
  -18    8   12     -4.40      0.00
  -17    8   12     -2.64      0.00
  -16    8   12      2.78      0.00
  -15    8   12      0.95      0.00
  -14    8   12     -1.08      0.00
  -13    8   12      1.69      0.00
  -12    8   12      4.07      0.00
  -11    8   12     -1.46      0.00
  -10    8   12     -1.25      0.00
   -9    8   12      2.34      0.00
   -8    8   12      3.44      0.00
   -7    8   12     -1.55      0.00
   -6    8   12     -0.04      0.00
   -5    8   12      2.95      0.00
   -4    8   12     -1.68      0.00
   -3    8   12     -0.99      0.00
   -2    8   12     -0.24      0.00
   -1    8   12     -1.10      0.00
    0    8   12     -3.28      0.00
    1    8   12     -0.27      0.00
    2    8   12      0.33      0.00
    3    8   12     -2.45      0.00
    4    8   12     -5.00      0.00
    5    8   12     -0.24      0.00
    6    8   12      0.80      0.00
  -21    9   12      0.30      0.00
  -20    9   12      4.62      0.00
  -19    9   12      8.18      0.00
  -18    9   12      2.80      0.00
  -17    9   12      1.98      0.00
  -16    9   12     -1.86      0.00
  -15    9   12     -1.38      0.00
  -14    9   12     -0.96      0.00
  -13    9   12     -0.96      0.00
  -12    9   12     -2.19      0.00
  -11    9   12     -0.87      0.00
  -10    9   12     -0.20      0.00
   -9    9   12     -0.11      0.00
   -8    9   12     -4.29      0.00
   -7    9   12      1.11      0.00
   -6    9   12      3.12      0.00
   -5    9   12     -3.31      0.00
   -4    9   12     -2.77      0.00
   -3    9   12      0.62      0.00
   -2    9   12      4.82      0.00
   -1    9   12     -1.07      0.00
    0    9   12     -0.71      0.00
    1    9   12      2.84      0.00
    2    9   12     -1.41      0.00
    3    9   12      2.38      0.00
    4    9   12      5.25      0.00
    5    9   12      2.82      0.00
    6    9   12      0.97      0.00
  -21   10   12     -4.37      0.00
  -20   10   12     -8.56      0.00
  -19   10   12     -4.53      0.00
  -18   10   12     -0.40      0.00
  -17   10   12     -1.19      0.00
  -16   10   12     -0.09      0.00
  -15   10   12      1.04      0.00
  -14   10   12      2.85      0.00
  -13   10   12     -1.56      0.00
  -12   10   12      3.30      0.00
  -11   10   12      1.42      0.00
  -10   10   12      0.36      0.00
   -9   10   12      0.20      0.00
   -8   10   12      1.83      0.00
   -7   10   12      1.13      0.00
   -6   10   12     -1.53      0.00
   -5   10   12     -1.01      0.00
   -4   10   12      4.69      0.00
   -3   10   12      1.58      0.00
   -2   10   12     -6.82      0.00
   -1   10   12      0.32      0.00
    0   10   12      1.68      0.00
    1   10   12     -1.79      0.00
    2   10   12     -1.49      0.00
    3   10   12     -2.28      0.00
    4   10   12     -1.37      0.00
    5   10   12     -3.85      0.00
  -21   11   12      3.05      0.00
  -20   11   12      3.12      0.00
  -19   11   12      4.80      0.00
  -18   11   12      1.51      0.00
  -17   11   12     -0.90      0.00
  -16   11   12      0.13      0.00
  -15   11   12     -0.96      0.00
  -14   11   12     -2.62      0.00
  -13   11   12      3.02      0.00
  -12   11   12     -2.47      0.00
  -11   11   12     -1.32      0.00
  -10   11   12     -0.77      0.00
   -9   11   12     -0.53      0.00
   -8   11   12     -0.51      0.00
   -7   11   12     -1.90      0.00
   -6   11   12      0.49      0.00
   -5   11   12      1.96      0.00
   -4   11   12     -1.84      0.00
   -3   11   12     -1.81      0.00
   -2   11   12      2.12      0.00
   -1   11   12      4.31      0.00
    0   11   12      0.68      0.00
    1   11   12     -1.39      0.00
    2   11   12      1.57      0.00
    3   11   12      0.84      0.00
    4   11   12     -1.24      0.00
  -21   12   12      0.89      0.00
  -20   12   12     -1.95      0.00
  -19   12   12     -3.74      0.00
  -18   12   12      1.74      0.00
  -17   12   12      1.49      0.00
  -16   12   12     -0.96      0.00
  -15   12   12     -1.06      0.00
  -14   12   12      1.31      0.00
  -13   12   12     -1.33      0.00
  -12   12   12      1.93      0.00
  -11   12   12     -0.05      0.00
  -10   12   12     -0.13      0.00
   -9   12   12      0.65      0.00
   -8   12   12      0.23      0.00
   -7   12   12     -0.24      0.00
   -6   12   12     -0.17      0.00
   -5   12   12     -0.09      0.00
   -4   12   12     -1.57      0.00
   -3   12   12      2.17      0.00
   -2   12   12     -0.47      0.00
   -1   12   12     -6.60      0.00
    0   12   12      0.55      0.00
    1   12   12      3.88      0.00
    2   12   12     -0.14      0.00
    3   12   12     -1.79      0.00
  -21   13   12      0.52      0.00
  -20   13   12      0.42      0.00
  -19   13   12     -2.52      0.00
  -18   13   12     -1.10      0.00
  -17   13   12     -3.17      0.00
  -16   13   12      0.58      0.00
  -15   13   12      5.06      0.00
  -14   13   12     -0.49      0.00
  -13   13   12     -0.10      0.00
  -12   13   12     -0.40      0.00
  -11   13   12      1.93      0.00
  -10   13   12     -1.19      0.00
   -9   13   12     -0.56      0.00
   -8   13   12      2.21      0.00
   -7   13   12      1.80      0.00
   -6   13   12      0.94      0.00
   -5   13   12     -0.97      0.00
   -4   13   12      1.57      0.00
   -3   13   12     -0.56      0.00
   -2   13   12      0.08      0.00
   -1   13   12      1.32      0.00
    0   13   12     -2.42      0.00
    1   13   12     -1.07      0.00
    2   13   12      1.57      0.00
  -21   14   12      1.28      0.00
  -20   14   12      1.32      0.00
  -19   14   12      4.64      0.00
  -18   14   12      0.24      0.00
  -17   14   12      2.06      0.00
  -16   14   12     -2.14      0.00
  -15   14   12     -4.29      0.00
  -14   14   12      1.91      0.00
  -13   14   12     -1.67      0.00
  -12   14   12     -1.91      0.00
  -11   14   12     -1.74      0.00
  -10   14   12      0.74      0.00
   -9   14   12      0.43      0.00
   -8   14   12     -1.63      0.00
   -7   14   12     -1.76      0.00
   -6   14   12     -3.38      0.00
   -5   14   12      2.45      0.00
   -4   14   12      0.36      0.00
   -3   14   12     -1.58      0.00
   -2   14   12      1.61      0.00
   -1   14   12      2.53      0.00
    0   14   12      1.61      0.00
  -20   15   12     -1.52      0.00
  -19   15   12     -5.43      0.00
  -18   15   12      1.39      0.00
  -17   15   12      4.66      0.00
  -16   15   12      0.64      0.00
  -15   15   12     -1.73      0.00
  -14   15   12     -1.39      0.00
  -13   15   12      3.84      0.00
  -12   15   12      3.29      0.00
  -11   15   12      1.35      0.00
  -10   15   12     -0.28      0.00
   -9   15   12     -1.63      0.00
   -8   15   12     -1.39      0.00
   -7   15   12     -0.38      0.00
   -6   15   12      2.73      0.00
   -5   15   12     -2.36      0.00
   -4   15   12     -0.23      0.00
   -3   15   12      4.41      0.00
   -2   15   12     -1.50      0.00
   -1   15   12     -4.39      0.00
  -20   16   12      1.26      0.00
  -19   16   12      3.08      0.00
  -18   16   12     -3.36      0.00
  -17   16   12     -2.99      0.00
  -16   16   12      2.30      0.00
  -15   16   12      0.87      0.00
  -14   16   12     -2.42      0.00
  -13   16   12     -2.96      0.00
  -12   16   12     -0.86      0.00
  -11   16   12      0.82      0.00
  -10   16   12      3.03      0.00
   -9   16   12      2.45      0.00
   -8   16   12      2.16      0.00
   -7   16   12      3.17      0.00
   -6   16   12     -0.19      0.00
   -5   16   12     -2.51      0.00
   -4   16   12     -3.01      0.00
   -3   16   12     -3.08      0.00
   -2   16   12      1.51      0.00
  -19   17   12     -1.18      0.00
  -18   17   12      0.77      0.00
  -17   17   12      0.03      0.00
  -16   17   12      3.30      0.00
  -15   17   12      3.26      0.00
  -14   17   12     -0.07      0.00
  -13   17   12      0.26      0.00
  -12   17   12     -2.56      0.00
  -11   17   12     -3.74      0.00
  -10   17   12     -6.43      0.00
   -9   17   12     -2.34      0.00
   -8   17   12      1.60      0.00
   -7   17   12     -1.79      0.00
   -6   17   12      0.54      0.00
   -5   17   12      5.63      0.00
   -4   17   12      1.95      0.00
  -18   18   12     -0.55      0.00
  -17   18   12     -5.71      0.00
  -16   18   12     -7.76      0.00
  -15   18   12      0.22      0.00
  -14   18   12      2.89      0.00
  -13   18   12     -0.64      0.00
  -12   18   12      7.10      0.00
  -11   18   12      5.40      0.00
  -10   18   12      3.17      0.00
   -9   18   12      0.40      0.00
   -8   18   12     -3.84      0.00
   -7   18   12     -0.27      0.00
   -6   18   12     -1.98      0.00
  -16   19   12      4.38      0.00
  -15   19   12     -0.38      0.00
  -14   19   12     -0.27      0.00
  -13   19   12     -2.62      0.00
  -12   19   12     -9.05      0.00
  -11   19   12     -0.80      0.00
  -10   19   12      2.02      0.00
   -9   19   12     -1.33      0.00
    3  -20   13      1.77      0.00
    4  -20   13     -2.25      0.00
    5  -20   13     -0.64      0.00
    6  -20   13     -1.01      0.00
    7  -20   13      1.05      0.00
    8  -20   13     -0.76      0.00
    0  -19   13     -0.54      0.00
    1  -19   13     -1.62      0.00
    2  -19   13     -0.84      0.00
    3  -19   13     -0.40      0.00
    4  -19   13      3.00      0.00
    5  -19   13     -0.93      0.00
    6  -19   13     -2.25      0.00
    7  -19   13      1.64      0.00
    8  -19   13      3.21      0.00
    9  -19   13     -2.04      0.00
   10  -19   13     -2.34      0.00
   -2  -18   13     -0.42      0.00
   -1  -18   13      4.57      0.00
    0  -18   13      3.68      0.00
    1  -18   13     -1.46      0.00
    2  -18   13     -2.61      0.00
    3  -18   13      0.94      0.00
    4  -18   13      0.30      0.00
    5  -18   13      1.68      0.00
    6  -18   13     -0.05      0.00
    7  -18   13     -0.35      0.00
    8  -18   13     -1.33      0.00
    9  -18   13      3.80      0.00
   10  -18   13      1.79      0.00
   11  -18   13      0.09      0.00
   -4  -17   13      3.06      0.00
   -3  -17   13     -4.92      0.00
   -2  -17   13     -0.33      0.00
   -1  -17   13     -1.44      0.00
    0  -17   13     -2.06      0.00
    1  -17   13      1.68      0.00
    2  -17   13      3.05      0.00
    3  -17   13     -1.36      0.00
    4  -17   13     -3.00      0.00
    5  -17   13     -1.49      0.00
    6  -17   13      0.45      0.00
    7  -17   13     -2.08      0.00
    8  -17   13      1.79      0.00
    9  -17   13     -1.95      0.00
   10  -17   13     -0.88      0.00
   11  -17   13      1.53      0.00
   12  -17   13     -0.08      0.00
   -6  -16   13     -4.79      0.00
   -5  -16   13     -5.35      0.00
   -4  -16   13      2.29      0.00
   -3  -16   13      2.44      0.00
   -2  -16   13     -4.16      0.00
   -1  -16   13     -0.32      0.00
    0  -16   13      1.30      0.00
    1  -16   13     -1.69      0.00
    2  -16   13     -2.32      0.00
    3  -16   13      3.12      0.00
    4  -16   13      4.11      0.00
    5  -16   13      1.18      0.00
    6  -16   13     -0.59      0.00
    7  -16   13     -0.86      0.00
    8  -16   13     -1.76      0.00
    9  -16   13      1.33      0.00
   10  -16   13     -1.94      0.00
   11  -16   13     -1.20      0.00
   12  -16   13      4.54      0.00
   -7  -15   13      1.04      0.00
   -6  -15   13      7.37      0.00
   -5  -15   13     -1.40      0.00
   -4  -15   13     -1.76      0.00
   -3  -15   13      6.54      0.00
   -2  -15   13      2.52      0.00
   -1  -15   13     -2.22      0.00
    0  -15   13      1.66      0.00
    1  -15   13      1.62      0.00
    2  -15   13     -2.71      0.00
    3  -15   13     -1.29      0.00
    4  -15   13      0.05      0.00
    5  -15   13      1.34      0.00
    6  -15   13     -1.04      0.00
    7  -15   13      0.70      0.00
    8  -15   13      2.32      0.00
    9  -15   13     -1.03      0.00
   10  -15   13      1.56      0.00
   11  -15   13     -0.05      0.00
   12  -15   13     -5.19      0.00
   13  -15   13     -0.99      0.00
   -8  -14   13     -4.88      0.00
   -7  -14   13     -1.25      0.00
   -6  -14   13     -1.78      0.00
   -5  -14   13      2.60      0.00
   -4  -14   13     -5.37      0.00
   -3  -14   13     -3.68      0.00
   -2  -14   13      2.25      0.00
   -1  -14   13     -2.53      0.00
    0  -14   13     -0.87      0.00
    1  -14   13      3.05      0.00
    2  -14   13      2.89      0.00
    3  -14   13     -6.67      0.00
    4  -14   13     -1.24      0.00
    5  -14   13      0.58      0.00
    6  -14   13      2.15      0.00
    7  -14   13     -2.15      0.00
    8  -14   13     -1.15      0.00
    9  -14   13      4.57      0.00
   10  -14   13     -0.14      0.00
   11  -14   13     -0.83      0.00
   12  -14   13      2.43      0.00
   13  -14   13      0.97      0.00
  -10  -13   13      6.39      0.00
   -9  -13   13      1.51      0.00
   -8  -13   13      1.50      0.00
   -7  -13   13     -2.32      0.00
   -6  -13   13      3.52      0.00
   -5  -13   13     -0.25      0.00
   -4  -13   13      1.91      0.00
   -3  -13   13     -0.66      0.00
   -2  -13   13     -1.07      0.00
   -1  -13   13      1.44      0.00
    0  -13   13     -2.50      0.00
    1  -13   13      1.45      0.00
    2  -13   13     -0.86      0.00
    3  -13   13      5.54      0.00
    4  -13   13     -1.97      0.00
    5  -13   13     -0.93      0.00
    6  -13   13      0.70      0.00
    7  -13   13      1.33      0.00
    8  -13   13     -3.90      0.00
    9  -13   13     -3.18      0.00
   10  -13   13      0.39      0.00
   11  -13   13     -0.86      0.00
   12  -13   13      0.39      0.00
   13  -13   13     -0.52      0.00
  -11  -12   13     -4.03      0.00
  -10  -12   13     -5.22      0.00
   -9  -12   13      2.11      0.00
   -8  -12   13      1.73      0.00
   -7  -12   13      2.60      0.00
   -6  -12   13     -2.93      0.00
   -5  -12   13      2.82      0.00
   -4  -12   13     -2.18      0.00
   -3  -12   13      0.32      0.00
   -2  -12   13      5.96      0.00
   -1  -12   13     -0.01      0.00
    0  -12   13     -0.74      0.00
    1  -12   13     -4.62      0.00
    2  -12   13      4.44      0.00
    3  -12   13     -2.26      0.00
    4  -12   13      2.22      0.00
    5  -12   13     -0.86      0.00
    6  -12   13      0.95      0.00
    7  -12   13      1.45      0.00
    8  -12   13      2.01      0.00
    9  -12   13      0.07      0.00
   10  -12   13      0.95      0.00
   11  -12   13      0.67      0.00
   12  -12   13      0.09      0.00
   13  -12   13      1.15      0.00
   14  -12   13      1.97      0.00
  -12  -11   13      1.63      0.00
  -11  -11   13     -0.04      0.00
  -10  -11   13      2.16      0.00
   -9  -11   13     -2.07      0.00
   -8  -11   13     -0.65      0.00
   -7  -11   13     -3.90      0.00
   -6  -11   13     -0.46      0.00
   -5  -11   13     -1.09      0.00
   -4  -11   13      2.82      0.00
   -3  -11   13     -4.14      0.00
   -2  -11   13     -5.69      0.00
   -1  -11   13      5.71      0.00
    0  -11   13     -1.29      0.00
    1  -11   13      1.15      0.00
    2  -11   13     -3.67      0.00
    3  -11   13      2.13      0.00
    4  -11   13     -5.82      0.00
    5  -11   13      2.38      0.00
    6  -11   13     -1.16      0.00
    7  -11   13     -1.25      0.00
    8  -11   13     -0.13      0.00
    9  -11   13      0.93      0.00
   10  -11   13     -0.20      0.00
   11  -11   13     -2.64      0.00
   12  -11   13     -3.03      0.00
   13  -11   13     -0.36      0.00
   14  -11   13     -2.68      0.00
  -12  -10   13      2.30      0.00
  -11  -10   13      2.47      0.00
  -10  -10   13     -2.57      0.00
   -9  -10   13      2.65      0.00
   -8  -10   13      0.36      0.00
   -7  -10   13     -0.47      0.00
   -6  -10   13     -0.43      0.00
   -5  -10   13      1.01      0.00
   -4  -10   13     -0.06      0.00
   -3  -10   13      2.68      0.00
   -2  -10   13      2.95      0.00
   -1  -10   13     -5.51      0.00
    0  -10   13      3.29      0.00
    1  -10   13     -0.74      0.00
    2  -10   13      4.45      0.00
    3  -10   13     -1.98      0.00
    4  -10   13      6.58      0.00
    5  -10   13     -5.41      0.00
    6  -10   13      1.53      0.00
    7  -10   13      2.80      0.00
    8  -10   13     -0.39      0.00
    9  -10   13     -2.57      0.00
   10  -10   13      1.48      0.00
   11  -10   13      5.71      0.00
   12  -10   13      2.80      0.00
   13  -10   13     -0.13      0.00
   14  -10   13      1.60      0.00
  -13   -9   13     -3.56      0.00
  -12   -9   13     -1.94      0.00
  -11   -9   13     -1.12      0.00
  -10   -9   13      2.49      0.00
   -9   -9   13      1.25      0.00
   -8   -9   13      1.01      0.00
   -7   -9   13      0.28      0.00
   -6   -9   13      1.18      0.00
   -5   -9   13      1.75      0.00
   -4   -9   13     -1.64      0.00
   -3   -9   13     -1.38      0.00
   -2   -9   13     -2.17      0.00
   -1   -9   13      3.14      0.00
    0   -9   13     -5.03      0.00
    1   -9   13      1.15      0.00
    2   -9   13     -5.80      0.00
    3   -9   13      6.36      0.00
    4   -9   13     -3.65      0.00
    5   -9   13      4.25      0.00
    6   -9   13     -4.89      0.00
    7   -9   13     -2.18      0.00
    8   -9   13      0.38      0.00
    9   -9   13      0.16      0.00
   10   -9   13     -0.55      0.00
   11   -9   13     -3.08      0.00
   12   -9   13     -3.42      0.00
   13   -9   13      0.32      0.00
   14   -9   13      0.87      0.00
  -14   -8   13      0.52      0.00
  -13   -8   13      3.26      0.00
  -12   -8   13     -3.39      0.00
  -11   -8   13      0.98      0.00
  -10   -8   13     -3.48      0.00
   -9   -8   13     -5.45      0.00
   -8   -8   13      2.26      0.00
   -7   -8   13      1.34      0.00
   -6   -8   13     -3.36      0.00
   -5   -8   13     -1.69      0.00
   -4   -8   13      4.47      0.00
   -3   -8   13     -0.23      0.00
   -2   -8   13      1.18      0.00
   -1   -8   13     -2.10      0.00
    0   -8   13      7.83      0.00
    1   -8   13     -3.84      0.00
    2   -8   13      2.61      0.00
    3   -8   13     -7.75      0.00
    4   -8   13      5.38      0.00
    5   -8   13     -2.12      0.00
    6   -8   13      4.12      0.00
    7   -8   13      0.11      0.00
    8   -8   13      1.48      0.00
    9   -8   13      0.51      0.00
   10   -8   13     -0.54      0.00
   11   -8   13      1.26      0.00
   12   -8   13      0.34      0.00
   13   -8   13     -2.08      0.00
  -15   -7   13     -2.79      0.00
  -14   -7   13      0.56      0.00
  -13   -7   13      0.57      0.00
  -12   -7   13      6.24      0.00
  -11   -7   13     -0.88      0.00
  -10   -7   13      1.23      0.00
   -9   -7   13      1.50      0.00
   -8   -7   13     -0.28      0.00
   -7   -7   13      0.93      0.00
   -6   -7   13     -2.28      0.00
   -5   -7   13      1.37      0.00
   -4   -7   13     -1.69      0.00
   -3   -7   13     -0.48      0.00
   -2   -7   13     -5.52      0.00
   -1   -7   13      6.92      0.00
    0   -7   13     -5.55      0.00
    1   -7   13      5.49      0.00
    2   -7   13     -1.99      0.00
    3   -7   13      4.67      0.00
    4   -7   13     -7.82      0.00
    5   -7   13      0.74      0.00
    6   -7   13      0.27      0.00
    7   -7   13      1.86      0.00
    8   -7   13     -2.11      0.00
    9   -7   13     -0.87      0.00
   10   -7   13     -0.85      0.00
   11   -7   13      2.34      0.00
   12   -7   13      4.69      0.00
   13   -7   13      0.02      0.00
  -16   -6   13      0.46      0.00
  -15   -6   13     -0.08      0.00
  -14   -6   13     -2.52      0.00
  -13   -6   13      1.56      0.00
  -12   -6   13     -3.91      0.00
  -11   -6   13     -0.67      0.00
  -10   -6   13     -2.22      0.00
   -9   -6   13      0.54      0.00
   -8   -6   13     -0.35      0.00
   -7   -6   13      1.41      0.00
   -6   -6   13      6.67      0.00
   -5   -6   13     -4.13      0.00
   -4   -6   13     -1.43      0.00
   -3   -6   13      0.81      0.00
   -2   -6   13      9.70      0.00
   -1   -6   13    -11.65      0.00
    0   -6   13      1.96      0.00
    1   -6   13     -2.23      0.00
    2   -6   13      4.99      0.00
    3   -6   13     -5.10      0.00
    4   -6   13      8.56      0.00
    5   -6   13     -0.31      0.00
    6   -6   13     -4.04      0.00
    7   -6   13     -1.41      0.00
    8   -6   13      3.74      0.00
    9   -6   13      1.17      0.00
   10   -6   13     -3.48      0.00
   11   -6   13     -3.91      0.00
   12   -6   13     -0.01      0.00
   13   -6   13      3.25      0.00
  -16   -5   13      0.04      0.00
  -15   -5   13      3.89      0.00
  -14   -5   13      0.40      0.00
  -13   -5   13     -5.19      0.00
  -12   -5   13      1.67      0.00
  -11   -5   13      6.02      0.00
  -10   -5   13      4.60      0.00
   -9   -5   13     -5.37      0.00
   -8   -5   13     -2.31      0.00
   -7   -5   13      2.84      0.00
   -6   -5   13     -8.90      0.00
   -5   -5   13      1.53      0.00
   -4   -5   13      5.54      0.00
   -3   -5   13      1.97      0.00
   -2   -5   13    -12.16      0.00
   -1   -5   13     11.57      0.00
    0   -5   13     -1.13      0.00
    1   -5   13     -3.41      0.00
    2   -5   13     -6.60      0.00
    3   -5   13      7.95      0.00
    4   -5   13     -6.72      0.00
    5   -5   13      1.93      0.00
    6   -5   13      2.71      0.00
    7   -5   13      0.50      0.00
    8   -5   13     -4.30      0.00
    9   -5   13     -0.45      0.00
   10   -5   13      4.05      0.00
   11   -5   13     -0.58      0.00
   12   -5   13     -2.35      0.00
   13   -5   13     -0.76      0.00
  -17   -4   13     -3.41      0.00
  -16   -4   13      0.79      0.00
  -15   -4   13     -0.56      0.00
  -14   -4   13     -3.99      0.00
  -13   -4   13      3.00      0.00
  -12   -4   13     -1.19      0.00
  -11   -4   13     -5.05      0.00
  -10   -4   13     -1.48      0.00
   -9   -4   13      7.60      0.00
   -8   -4   13      1.22      0.00
   -7   -4   13     -7.13      0.00
   -6   -4   13      8.90      0.00
   -5   -4   13     -2.75      0.00
   -4   -4   13     -4.66      0.00
   -3   -4   13     -1.51      0.00
   -2   -4   13     11.99      0.00
   -1   -4   13     -9.66      0.00
    0   -4   13      2.78      0.00
    1   -4   13      5.41      0.00
    2   -4   13      5.81      0.00
    3   -4   13    -10.87      0.00
    4   -4   13      3.61      0.00
    5   -4   13     -0.80      0.00
    6   -4   13     -1.03      0.00
    7   -4   13     -1.80      0.00
    8   -4   13      5.55      0.00
    9   -4   13      2.71      0.00
   10   -4   13     -1.11      0.00
   11   -4   13      0.04      0.00
   12   -4   13     -0.83      0.00
  -17   -3   13      6.52      0.00
  -16   -3   13     -2.89      0.00
  -15   -3   13     -2.27      0.00
  -14   -3   13      7.58      0.00
  -13   -3   13      0.49      0.00
  -12   -3   13     -0.90      0.00
  -11   -3   13     -1.63      0.00
  -10   -3   13      3.49      0.00
   -9   -3   13     -3.56      0.00
   -8   -3   13     -4.63      0.00
   -7   -3   13      6.85      0.00
   -6   -3   13     -0.07      0.00
   -5   -3   13      3.74      0.00
   -4   -3   13     -5.26      0.00
   -3   -3   13      4.01      0.00
   -2   -3   13     -8.93      0.00
   -1   -3   13      6.06      0.00
    0   -3   13     -4.18      0.00
    1   -3   13     -1.04      0.00
    2   -3   13     -3.07      0.00
    3   -3   13      8.65      0.00
    4   -3   13     -2.93      0.00
    5   -3   13      0.92      0.00
    6   -3   13      0.10      0.00
    7   -3   13      0.32      0.00
    8   -3   13     -5.22      0.00
    9   -3   13     -2.65      0.00
   10   -3   13      3.20      0.00
   11   -3   13      0.80      0.00
   12   -3   13     -2.50      0.00
  -18   -2   13      0.78      0.00
  -17   -2   13     -3.56      0.00
  -16   -2   13      0.97      0.00
  -15   -2   13      2.14      0.00
  -14   -2   13     -5.12      0.00
  -13   -2   13     -2.53      0.00
  -12   -2   13      0.71      0.00
  -11   -2   13      5.74      0.00
  -10   -2   13     -3.84      0.00
   -9   -2   13     -3.13      0.00
   -8   -2   13      4.29      0.00
   -7   -2   13     -5.61      0.00
   -6   -2   13     -1.91      0.00
   -5   -2   13      0.30      0.00
   -4   -2   13      9.78      0.00
   -3   -2   13    -10.03      0.00
   -2   -2   13      7.33      0.00
   -1   -2   13     -4.33      0.00
    0   -2   13      3.00      0.00
    1   -2   13     -2.58      0.00
    2   -2   13      3.39      0.00
    3   -2   13     -2.17      0.00
    4   -2   13     -0.91      0.00
    5   -2   13     -2.13      0.00
    6   -2   13      3.17      0.00
    7   -2   13      1.10      0.00
    8   -2   13      0.86      0.00
    9   -2   13     -0.28      0.00
   10   -2   13     -1.24      0.00
   11   -2   13      1.27      0.00
   12   -2   13      2.84      0.00
  -18   -1   13     -0.34      0.00
  -17   -1   13     -1.38      0.00
  -16   -1   13      1.35      0.00
  -15   -1   13      1.67      0.00
  -14   -1   13      1.56      0.00
  -13   -1   13      0.06      0.00
  -12   -1   13      3.52      0.00
  -11   -1   13     -6.38      0.00
  -10   -1   13     -0.42      0.00
   -9   -1   13      9.53      0.00
   -8   -1   13     -0.25      0.00
   -7   -1   13      0.55      0.00
   -6   -1   13     -3.85      0.00
   -5   -1   13      0.94      0.00
   -4   -1   13     -6.64      0.00
   -3   -1   13      8.06      0.00
   -2   -1   13     -7.40      0.00
   -1   -1   13      8.18      0.00
    0   -1   13     -2.62      0.00
    1   -1   13     -0.90      0.00
    2   -1   13     -3.25      0.00
    3   -1   13      2.66      0.00
    4   -1   13      2.99      0.00
    5   -1   13     -0.48      0.00
    6   -1   13     -4.00      0.00
    7   -1   13     -0.65      0.00
    8   -1   13      2.09      0.00
    9   -1   13      1.01      0.00
   10   -1   13     -3.16      0.00
   11   -1   13      0.87      0.00
  -19    0   13     -0.04      0.00
  -18    0   13      0.39      0.00
  -17    0   13      1.58      0.00
  -16    0   13     -1.82      0.00
  -15    0   13     -2.98      0.00
  -14    0   13      1.65      0.00
  -13    0   13      2.73      0.00
  -12    0   13     -5.50      0.00
  -11    0   13      1.61      0.00
  -10    0   13      1.72      0.00
   -9    0   13     -4.67      0.00
   -8    0   13     -1.06      0.00
   -7    0   13     -0.40      0.00
   -6    0   13      8.07      0.00
   -5    0   13     -2.76      0.00
   -4    0   13      3.35      0.00
   -3    0   13     -3.58      0.00
   -2    0   13      8.63      0.00
   -1    0   13     -9.15      0.00
    0    0   13     -0.56      0.00
    1    0   13      2.02      0.00
    2    0   13      2.65      0.00
    3    0   13     -3.21      0.00
    4    0   13      0.77      0.00
    5    0   13      0.66      0.00
    6    0   13      1.58      0.00
    7    0   13      0.29      0.00
    8    0   13     -0.07      0.00
    9    0   13     -1.06      0.00
   10    0   13      0.55      0.00
   11    0   13      0.52      0.00
  -19    1   13     -0.13      0.00
  -18    1   13      1.52      0.00
  -17    1   13     -2.04      0.00
  -16    1   13     -1.47      0.00
  -15    1   13      1.18      0.00
  -14    1   13      0.54      0.00
  -13    1   13     -4.47      0.00
  -12    1   13      3.19      0.00
  -11    1   13      3.62      0.00
  -10    1   13     -1.66      0.00
   -9    1   13     -3.31      0.00
   -8    1   13      2.19      0.00
   -7    1   13      4.27      0.00
   -6    1   13    -11.64      0.00
   -5    1   13      1.06      0.00
   -4    1   13      0.94      0.00
   -3    1   13      4.38      0.00
   -2    1   13    -13.22      0.00
   -1    1   13      8.61      0.00
    0    1   13      7.52      0.00
    1    1   13     -4.02      0.00
    2    1   13     -7.35      0.00
    3    1   13      2.37      0.00
    4    1   13      0.01      0.00
    5    1   13      0.57      0.00
    6    1   13     -0.53      0.00
    7    1   13     -0.92      0.00
    8    1   13     -1.67      0.00
    9    1   13      2.24      0.00
   10    1   13      0.70      0.00
  -20    2   13      2.24      0.00
  -19    2   13     -1.47      0.00
  -18    2   13     -1.08      0.00
  -17    2   13      5.17      0.00
  -16    2   13      3.78      0.00
  -15    2   13     -0.42      0.00
  -14    2   13     -1.26      0.00
  -13    2   13      3.42      0.00
  -12    2   13     -2.85      0.00
  -11    2   13     -3.37      0.00
  -10    2   13     -1.15      0.00
   -9    2   13      6.47      0.00
   -8    2   13      2.67      0.00
   -7    2   13     -8.84      0.00
   -6    2   13      6.30      0.00
   -5    2   13      2.79      0.00
   -4    2   13     -0.44      0.00
   -3    2   13     -8.97      0.00
   -2    2   13     13.04      0.00
   -1    2   13     -4.01      0.00
    0    2   13     -5.23      0.00
    1    2   13      4.09      0.00
    2    2   13      7.87      0.00
    3    2   13     -4.38      0.00
    4    2   13     -1.98      0.00
    5    2   13      3.24      0.00
    6    2   13      0.34      0.00
    7    2   13     -1.61      0.00
    8    2   13      0.69      0.00
    9    2   13      1.21      0.00
   10    2   13     -0.67      0.00
  -20    3   13     -0.84      0.00
  -19    3   13     -0.63      0.00
  -18    3   13     -1.41      0.00
  -17    3   13     -5.72      0.00
  -16    3   13     -4.02      0.00
  -15    3   13     -0.90      0.00
  -14    3   13      1.32      0.00
  -13    3   13      1.96      0.00
  -12    3   13      0.17      0.00
  -11    3   13      2.81      0.00
  -10    3   13      4.23      0.00
   -9    3   13     -8.07      0.00
   -8    3   13     -5.41      0.00
   -7    3   13     11.77      0.00
   -6    3   13      0.68      0.00
   -5    3   13     -6.42      0.00
   -4    3   13     -3.02      0.00
   -3    3   13     13.16      0.00
   -2    3   13     -9.66      0.00
   -1    3   13     -7.30      0.00
    0    3   13      3.41      0.00
    1    3   13      4.81      0.00
    2    3   13     -6.38      0.00
    3    3   13      1.20      0.00
    4    3   13      0.57      0.00
    5    3   13     -3.00      0.00
    6    3   13      0.75      0.00
    7    3   13      3.79      0.00
    8    3   13     -1.17      0.00
    9    3   13     -2.71      0.00
  -20    4   13      0.11      0.00
  -19    4   13      5.51      0.00
  -18    4   13      4.48      0.00
  -17    4   13      3.06      0.00
  -16    4   13      0.15      0.00
  -15    4   13      0.82      0.00
  -14    4   13     -1.35      0.00
  -13    4   13     -3.42      0.00
  -12    4   13      2.40      0.00
  -11    4   13     -1.79      0.00
  -10    4   13     -4.11      0.00
   -9    4   13      3.49      0.00
   -8    4   13      3.57      0.00
   -7    4   13     -4.32      0.00
   -6    4   13     -3.56      0.00
   -5    4   13      1.48      0.00
   -4    4   13      6.88      0.00
   -3    4   13    -10.18      0.00
   -2    4   13      3.11      0.00
   -1    4   13     10.62      0.00
    0    4   13     -3.09      0.00
    1    4   13    -10.62      0.00
    2    4   13      5.79      0.00
    3    4   13      3.71      0.00
    4    4   13     -1.76      0.00
    5    4   13     -0.64      0.00
    6    4   13      0.55      0.00
    7    4   13     -3.67      0.00
    8    4   13     -0.65      0.00
    9    4   13      2.42      0.00
  -21    5   13      0.49      0.00
  -20    5   13     -2.63      0.00
  -19    5   13     -7.06      0.00
  -18    5   13     -3.26      0.00
  -17    5   13      2.51      0.00
  -16    5   13      0.85      0.00
  -15    5   13     -2.09      0.00
  -14    5   13     -0.64      0.00
  -13    5   13      3.52      0.00
  -12    5   13     -0.04      0.00
  -11    5   13     -2.11      0.00
  -10    5   13      2.17      0.00
   -9    5   13     -0.46      0.00
   -8    5   13     -1.41      0.00
   -7    5   13     -1.22      0.00
   -6    5   13      3.69      0.00
   -5    5   13      4.62      0.00
   -4    5   13     -8.00      0.00
   -3    5   13      4.01      0.00
   -2    5   13      4.83      0.00
   -1    5   13     -5.07      0.00
    0    5   13     -2.37      0.00
    1    5   13      9.39      0.00
    2    5   13     -0.44      0.00
    3    5   13     -3.29      0.00
    4    5   13      0.36      0.00
    5    5   13      0.85      0.00
    6    5   13      2.50      0.00
    7    5   13      1.29      0.00
    8    5   13     -2.05      0.00
  -21    6   13      1.88      0.00
  -20    6   13      1.36      0.00
  -19    6   13      1.94      0.00
  -18    6   13      0.96      0.00
  -17    6   13     -0.10      0.00
  -16    6   13      0.23      0.00
  -15    6   13      0.56      0.00
  -14    6   13      1.82      0.00
  -13    6   13     -1.54      0.00
  -12    6   13     -0.69      0.00
  -11    6   13      1.83      0.00
  -10    6   13      1.39      0.00
   -9    6   13     -0.04      0.00
   -8    6   13     -3.39      0.00
   -7    6   13      4.27      0.00
   -6    6   13      0.70      0.00
   -5    6   13     -9.50      0.00
   -4    6   13      4.51      0.00
   -3    6   13      3.13      0.00
   -2    6   13     -7.83      0.00
   -1    6   13     -4.42      0.00
    0    6   13      5.57      0.00
    1    6   13     -3.21      0.00
    2    6   13     -5.54      0.00
    3    6   13      2.72      0.00
    4    6   13      1.41      0.00
    5    6   13     -2.10      0.00
    6    6   13     -3.36      0.00
    7    6   13      4.86      0.00
  -21    7   13      0.59      0.00
  -20    7   13      2.25      0.00
  -19    7   13      0.51      0.00
  -18    7   13     -2.23      0.00
  -17    7   13     -2.48      0.00
  -16    7   13      0.90      0.00
  -15    7   13     -0.03      0.00
  -14    7   13     -1.41      0.00
  -13    7   13     -2.57      0.00
  -12    7   13     -0.87      0.00
  -11    7   13      2.93      0.00
  -10    7   13     -2.66      0.00
   -9    7   13      0.32      0.00
   -8    7   13      2.34      0.00
   -7    7   13     -5.28      0.00
   -6    7   13     -1.06      0.00
   -5    7   13      8.51      0.00
   -4    7   13     -1.31      0.00
   -3    7   13     -4.44      0.00
   -2    7   13      5.72      0.00
   -1    7   13      8.89      0.00
    0    7   13     -3.93      0.00
    1    7   13     -2.67      0.00
    2    7   13      5.69      0.00
    3    7   13     -0.79      0.00
    4    7   13      0.42      0.00
    5    7   13     -1.30      0.00
    6    7   13      1.16      0.00
    7    7   13     -2.79      0.00
  -21    8   13     -0.52      0.00
  -20    8   13     -2.67      0.00
  -19    8   13     -3.53      0.00
  -18    8   13     -0.40      0.00
  -17    8   13      3.23      0.00
  -16    8   13      3.16      0.00
  -15    8   13      0.07      0.00
  -14    8   13      0.33      0.00
  -13    8   13      2.87      0.00
  -12    8   13      1.21      0.00
  -11    8   13     -3.41      0.00
  -10    8   13      2.10      0.00
   -9    8   13      2.06      0.00
   -8    8   13      0.00      0.00
   -7    8   13     -1.18      0.00
   -6    8   13      1.46      0.00
   -5    8   13     -0.75      0.00
   -4    8   13     -2.90      0.00
   -3    8   13      0.79      0.00
   -2    8   13     -0.30      0.00
   -1    8   13     -4.93      0.00
    0    8   13     -0.15      0.00
    1    8   13      4.63      0.00
    2    8   13     -2.39      0.00
    3    8   13     -3.84      0.00
    4    8   13     -0.46      0.00
    5    8   13      2.80      0.00
    6    8   13     -3.10      0.00
  -21    9   13      1.32      0.00
  -20    9   13      6.68      0.00
  -19    9   13      3.20      0.00
  -18    9   13      0.55      0.00
  -17    9   13     -2.77      0.00
  -16    9   13     -3.00      0.00
  -15    9   13     -1.23      0.00
  -14    9   13     -1.11      0.00
  -13    9   13     -0.81      0.00
  -12    9   13     -2.36      0.00
  -11    9   13      1.80      0.00
  -10    9   13     -0.59      0.00
   -9    9   13     -2.28      0.00
   -8    9   13      0.33      0.00
   -7    9   13      3.33      0.00
   -6    9   13     -1.81      0.00
   -5    9   13     -2.91      0.00
   -4    9   13      1.29      0.00
   -3    9   13      2.34      0.00
   -2    9   13     -1.12      0.00
   -1    9   13     -1.06      0.00
    0    9   13      2.21      0.00
    1    9   13     -3.82      0.00
    2    9   13      0.93      0.00
    3    9   13      5.81      0.00
    4    9   13      1.51      0.00
    5    9   13     -0.91      0.00
  -21   10   13     -6.60      0.00
  -20   10   13     -4.09      0.00
  -19   10   13      0.36      0.00
  -18   10   13     -1.44      0.00
  -17   10   13      0.69      0.00
  -16   10   13      0.81      0.00
  -15   10   13      3.55      0.00
  -14   10   13     -0.36      0.00
  -13   10   13      0.17      0.00
  -12   10   13      3.04      0.00
  -11   10   13     -1.91      0.00
  -10   10   13     -0.08      0.00
   -9   10   13      0.58      0.00
   -8   10   13      1.15      0.00
   -7   10   13      0.34      0.00
   -6   10   13     -2.13      0.00
   -5   10   13      3.29      0.00
   -4   10   13      3.41      0.00
   -3   10   13     -3.87      0.00
   -2   10   13     -0.14      0.00
   -1   10   13      2.21      0.00
    0   10   13     -1.26      0.00
    1   10   13      0.94      0.00
    2   10   13     -0.83      0.00
    3   10   13     -1.70      0.00
    4   10   13     -0.79      0.00
  -21   11   13      2.58      0.00
  -20   11   13      3.77      0.00
  -19   11   13      1.53      0.00
  -18   11   13     -0.56      0.00
  -17   11   13     -1.36      0.00
  -16   11   13      0.19      0.00
  -15   11   13     -1.94      0.00
  -14   11   13      2.65      0.00
  -13   11   13      0.60      0.00
  -12   11   13     -2.93      0.00
  -11   11   13      0.99      0.00
  -10   11   13      0.61      0.00
   -9   11   13     -1.11      0.00
   -8   11   13     -2.30      0.00
   -7   11   13     -1.72      0.00
   -6   11   13      3.83      0.00
   -5   11   13     -2.22      0.00
   -4   11   13     -2.79      0.00
   -3   11   13      0.68      0.00
   -2   11   13      2.39      0.00
   -1   11   13      1.55      0.00
    0   11   13     -1.81      0.00
    1   11   13     -0.45      0.00
    2   11   13     -1.44      0.00
    3   11   13     -2.32      0.00
  -21   12   13     -0.63      0.00
  -20   12   13     -4.51      0.00
  -19   12   13      1.82      0.00
  -18   12   13      1.59      0.00
  -17   12   13     -0.09      0.00
  -16   12   13     -1.68      0.00
  -15   12   13     -1.25      0.00
  -14   12   13     -1.42      0.00
  -13   12   13     -0.01      0.00
  -12   12   13      0.02      0.00
  -11   12   13     -0.51      0.00
  -10   12   13      0.53      0.00
   -9   12   13      1.43      0.00
   -8   12   13     -0.34      0.00
   -7   12   13      1.56      0.00
   -6   12   13     -2.42      0.00
   -5   12   13      0.11      0.00
   -4   12   13      0.99      0.00
   -3   12   13      1.45      0.00
   -2   12   13     -3.88      0.00
   -1   12   13     -1.81      0.00
    0   12   13      5.32      0.00
    1   12   13      2.05      0.00
    2   12   13      1.75      0.00
  -21   13   13      0.25      0.00
  -20   13   13     -1.83      0.00
  -19   13   13     -2.92      0.00
  -18   13   13     -0.22      0.00
  -17   13   13      0.08      0.00
  -16   13   13      4.91      0.00
  -15   13   13      3.17      0.00
  -14   13   13     -1.23      0.00
  -13   13   13      0.35      0.00
  -12   13   13      3.41      0.00
  -11   13   13     -1.56      0.00
  -10   13   13     -1.32      0.00
   -9   13   13      1.94      0.00
   -8   13   13      3.47      0.00
   -7   13   13     -1.39      0.00
   -6   13   13      0.71      0.00
   -5   13   13     -0.69      0.00
   -4   13   13      0.17      0.00
   -3   13   13     -0.98      0.00
   -2   13   13      0.91      0.00
   -1   13   13     -1.69      0.00
    0   13   13     -5.34      0.00
    1   13   13      0.47      0.00
  -20   14   13      3.49      0.00
  -19   14   13      2.98      0.00
  -18   14   13     -0.74      0.00
  -17   14   13     -2.22      0.00
  -16   14   13     -4.14      0.00
  -15   14   13     -1.19      0.00
  -14   14   13      0.60      0.00
  -13   14   13     -2.51      0.00
  -12   14   13     -3.30      0.00
  -11   14   13      1.37      0.00
  -10   14   13      0.42      0.00
   -9   14   13     -2.06      0.00
   -8   14   13     -4.04      0.00
   -7   14   13      0.77      0.00
   -6   14   13      1.62      0.00
   -5   14   13      2.43      0.00
   -4   14   13     -1.53      0.00
   -3   14   13      1.07      0.00
   -2   14   13      1.79      0.00
   -1   14   13      2.72      0.00
    0   14   13      2.19      0.00
  -20   15   13     -3.31      0.00
  -19   15   13     -2.75      0.00
  -18   15   13      5.68      0.00
  -17   15   13      3.12      0.00
  -16   15   13     -3.84      0.00
  -15   15   13     -0.83      0.00
  -14   15   13      2.09      0.00
  -13   15   13      3.98      0.00
  -12   15   13      3.26      0.00
  -11   15   13     -0.60      0.00
  -10   15   13     -1.16      0.00
   -9   15   13     -1.78      0.00
   -8   15   13      0.63      0.00
   -7   15   13     -0.75      0.00
   -6   15   13     -0.44      0.00
   -5   15   13     -1.97      0.00
   -4   15   13      2.98      0.00
   -3   15   13      0.86      0.00
   -2   15   13     -2.84      0.00
  -19   16   13      0.08      0.00
  -18   16   13     -4.07      0.00
  -17   16   13      0.67      0.00
  -16   16   13      5.67      0.00
  -15   16   13     -1.30      0.00
  -14   16   13     -2.76      0.00
  -13   16   13     -1.34      0.00
  -12   16   13     -1.95      0.00
  -11   16   13      2.30      0.00
  -10   16   13      2.90      0.00
   -9   16   13      3.66      0.00
   -8   16   13      1.37      0.00
   -7   16   13      0.73      0.00
   -6   16   13     -3.16      0.00
   -5   16   13     -2.68      0.00
   -4   16   13     -3.26      0.00
   -3   16   13     -1.22      0.00
  -19   17   13     -1.08      0.00
  -18   17   13     -1.29      0.00
  -17   17   13      0.50      0.00
  -16   17   13      0.42      0.00
  -15   17   13     -0.51      0.00
  -14   17   13      0.63      0.00
  -13   17   13     -1.18      0.00
  -12   17   13     -1.32      0.00
  -11   17   13     -5.26      0.00
  -10   17   13     -3.40      0.00
   -9   17   13      1.24      0.00
   -8   17   13      1.56      0.00
   -7   17   13     -1.06      0.00
   -6   17   13      4.47      0.00
   -5   17   13      5.51      0.00
  -17   18   13     -4.51      0.00
  -16   18   13     -0.37      0.00
  -15   18   13      4.57      0.00
  -14   18   13     -2.43      0.00
  -13   18   13      3.23      0.00
  -12   18   13      6.16      0.00
  -11   18   13      2.84      0.00
  -10   18   13     -0.27      0.00
   -9   18   13     -3.81      0.00
   -8   18   13     -2.84      0.00
   -7   18   13     -0.24      0.00
  -15   19   13     -1.85      0.00
  -14   19   13      0.91      0.00
  -13   19   13     -6.58      0.00
  -12   19   13     -3.79      0.00
  -11   19   13      3.02      0.00
  -10   19   13      0.39      0.00
    0  -19   14     -0.43      0.00
    1  -19   14     -0.25      0.00
    2  -19   14      1.81      0.00
    3  -19   14      1.04      0.00
    4  -19   14     -0.31      0.00
    5  -19   14     -4.89      0.00
    6  -19   14      1.15      0.00
    7  -19   14      1.57      0.00
    8  -19   14     -1.39      0.00
   -2  -18   14     -1.64      0.00
   -1  -18   14      3.03      0.00
    0  -18   14     -1.31      0.00
    1  -18   14     -2.71      0.00
    2  -18   14     -1.08      0.00
    3  -18   14      2.68      0.00
    4  -18   14      1.07      0.00
    5  -18   14      1.30      0.00
    6  -18   14     -0.89      0.00
    7  -18   14      0.42      0.00
    8  -18   14      2.14      0.00
    9  -18   14      3.96      0.00
   10  -18   14     -0.41      0.00
   -4  -17   14     -0.72      0.00
   -3  -17   14     -2.57      0.00
   -2  -17   14      4.10      0.00
   -1  -17   14     -2.38      0.00
    0  -17   14      1.24      0.00
    1  -17   14      2.39      0.00
    2  -17   14      1.16      0.00
    3  -17   14     -4.19      0.00
    4  -17   14     -0.47      0.00
    5  -17   14     -0.13      0.00
    6  -17   14     -1.76      0.00
    7  -17   14     -0.17      0.00
    8  -17   14      1.47      0.00
    9  -17   14     -2.56      0.00
   10  -17   14      2.05      0.00
   11  -17   14      1.50      0.00
   -5  -16   14      0.94      0.00
   -4  -16   14     -0.37      0.00
   -3  -16   14     -3.15      0.00
   -2  -16   14     -4.68      0.00
   -1  -16   14      2.78      0.00
    0  -16   14     -0.99      0.00
    1  -16   14     -1.55      0.00
    2  -16   14     -1.38      0.00
    3  -16   14      4.90      0.00
    4  -16   14      0.33      0.00
    5  -16   14      0.17      0.00
    6  -16   14     -1.23      0.00
    7  -16   14     -1.11      0.00
    8  -16   14     -2.05      0.00
    9  -16   14      0.43      0.00
   10  -16   14     -2.23      0.00
   11  -16   14      2.45      0.00
   -7  -15   14      4.39      0.00
   -6  -15   14      2.68      0.00
   -5  -15   14     -3.40      0.00
   -4  -15   14      8.64      0.00
   -3  -15   14      4.17      0.00
   -2  -15   14     -1.44      0.00
   -1  -15   14     -0.92      0.00
    0  -15   14      3.55      0.00
    1  -15   14     -2.57      0.00
    2  -15   14      1.39      0.00
    3  -15   14     -1.84      0.00
    4  -15   14      2.15      0.00
    5  -15   14     -0.61      0.00
    6  -15   14      0.66      0.00
    7  -15   14      1.12      0.00
    8  -15   14      1.39      0.00
    9  -15   14     -1.28      0.00
   10  -15   14      0.98      0.00
   11  -15   14     -3.95      0.00
   12  -15   14     -2.40      0.00
   -8  -14   14     -0.64      0.00
   -7  -14   14     -0.31      0.00
   -6  -14   14     -1.35      0.00
   -5  -14   14     -2.63      0.00
   -4  -14   14     -8.66      0.00
   -3  -14   14      3.71      0.00
   -2  -14   14      0.54      0.00
   -1  -14   14     -0.67      0.00
    0  -14   14     -0.55      0.00
    1  -14   14      4.33      0.00
    2  -14   14     -5.74      0.00
    3  -14   14     -0.56      0.00
    4  -14   14     -0.55      0.00
    5  -14   14      2.40      0.00
    6  -14   14     -0.11      0.00
    7  -14   14     -0.93      0.00
    8  -14   14      2.54      0.00
    9  -14   14      3.29      0.00
   10  -14   14     -2.21      0.00
   11  -14   14      1.75      0.00
   12  -14   14      2.23      0.00
   -9  -13   14      0.57      0.00
   -8  -13   14     -1.33      0.00
   -7  -13   14      0.14      0.00
   -6  -13   14      3.84      0.00
   -5  -13   14     -0.52      0.00
   -4  -13   14      1.68      0.00
   -3  -13   14     -5.06      0.00
   -2  -13   14      0.70      0.00
   -1  -13   14     -2.68      0.00
    0  -13   14      2.71      0.00
    1  -13   14     -2.51      0.00
    2  -13   14      2.96      0.00
    3  -13   14     -0.57      0.00
    4  -13   14     -1.07      0.00
    5  -13   14     -0.32      0.00
    6  -13   14      1.06      0.00
    7  -13   14     -3.15      0.00
    8  -13   14     -3.34      0.00
    9  -13   14     -1.60      0.00
   10  -13   14      0.70      0.00
   11  -13   14      0.02      0.00
   12  -13   14     -1.00      0.00
   13  -13   14     -1.64      0.00
  -10  -12   14      1.09      0.00
   -9  -12   14      2.56      0.00
   -8  -12   14      1.93      0.00
   -7  -12   14      0.37      0.00
   -6  -12   14     -1.03      0.00
   -5  -12   14      3.27      0.00
   -4  -12   14     -0.84      0.00
   -3  -12   14      8.54      0.00
   -2  -12   14      0.26      0.00
   -1  -12   14      0.21      0.00
    0  -12   14     -5.17      0.00
    1  -12   14      4.80      0.00
    2  -12   14      0.67      0.00
    3  -12   14     -0.41      0.00
    4  -12   14      0.40      0.00
    5  -12   14     -0.63      0.00
    6  -12   14      1.03      0.00
    7  -12   14      3.02      0.00
    8  -12   14      0.03      0.00
    9  -12   14      1.37      0.00
   10  -12   14      0.35      0.00
   11  -12   14     -0.17      0.00
   12  -12   14      1.12      0.00
   13  -12   14      1.84      0.00
  -11  -11   14      0.45      0.00
  -10  -11   14     -0.66      0.00
   -9  -11   14     -3.08      0.00
   -8  -11   14     -3.93      0.00
   -7  -11   14     -3.35      0.00
   -6  -11   14      2.04      0.00
   -5  -11   14     -2.74      0.00
   -4  -11   14     -1.33      0.00
   -3  -11   14     -8.71      0.00
   -2  -11   14      5.19      0.00
   -1  -11   14     -0.89      0.00
    0  -11   14      0.65      0.00
    1  -11   14     -2.54      0.00
    2  -11   14      0.96      0.00
    3  -11   14     -1.78      0.00
    4  -11   14     -0.82      0.00
    5  -11   14      1.72      0.00
    6  -11   14     -2.29      0.00
    7  -11   14     -1.25      0.00
    8  -11   14      1.39      0.00
    9  -11   14      0.44      0.00
   10  -11   14     -1.14      0.00
   11  -11   14     -2.65      0.00
   12  -11   14     -0.91      0.00
   13  -11   14     -2.02      0.00
  -12  -10   14      3.45      0.00
  -11  -10   14     -1.10      0.00
  -10  -10   14      1.52      0.00
   -9  -10   14      3.29      0.00
   -8  -10   14     -0.75      0.00
   -7  -10   14      0.45      0.00
   -6  -10   14     -0.63      0.00
   -5  -10   14      5.61      0.00
   -4  -10   14     -1.49      0.00
   -3  -10   14      4.63      0.00
   -2  -10   14     -5.08      0.00
   -1  -10   14      2.85      0.00
    0  -10   14     -0.51      0.00
    1  -10   14      1.47      0.00
    2  -10   14     -0.60      0.00
    3  -10   14      2.41      0.00
    4  -10   14      0.67      0.00
    5  -10   14     -3.19      0.00
    6  -10   14      4.13      0.00
    7  -10   14      0.38      0.00
    8  -10   14     -3.10      0.00
    9  -10   14     -0.68      0.00
   10  -10   14      3.78      0.00
   11  -10   14      2.90      0.00
   12  -10   14     -0.24      0.00
   13  -10   14      1.22      0.00
  -13   -9   14     -3.08      0.00
  -12   -9   14      0.17      0.00
  -11   -9   14      0.87      0.00
  -10   -9   14      0.22      0.00
   -9   -9   14      0.24      0.00
   -8   -9   14      2.70      0.00
   -7   -9   14     -0.65      0.00
   -6   -9   14      1.79      0.00
   -5   -9   14     -4.29      0.00
   -4   -9   14      2.33      0.00
   -3   -9   14     -4.50      0.00
   -2   -9   14      3.52      0.00
   -1   -9   14     -2.92      0.00
    0   -9   14      2.07      0.00
    1   -9   14     -3.30      0.00
    2   -9   14      1.73      0.00
    3   -9   14      1.76      0.00
    4   -9   14     -2.01      0.00
    5   -9   14      1.01      0.00
    6   -9   14     -4.36      0.00
    7   -9   14      1.82      0.00
    8   -9   14      0.53      0.00
    9   -9   14      1.00      0.00
   10   -9   14     -0.80      0.00
   11   -9   14     -3.42      0.00
   12   -9   14      0.28      0.00
   13   -9   14      1.76      0.00
  -14   -8   14      2.07      0.00
  -13   -8   14     -2.22      0.00
  -12   -8   14     -3.13      0.00
  -11   -8   14     -0.96      0.00
  -10   -8   14     -5.08      0.00
   -9   -8   14      1.44      0.00
   -8   -8   14      1.33      0.00
   -7   -8   14     -1.47      0.00
   -6   -8   14     -4.09      0.00
   -5   -8   14      5.54      0.00
   -4   -8   14     -1.80      0.00
   -3   -8   14      2.78      0.00
   -2   -8   14     -3.62      0.00
   -1   -8   14      3.79      0.00
    0   -8   14     -2.68      0.00
    1   -8   14      0.69      0.00
    2   -8   14     -3.37      0.00
    3   -8   14     -2.18      0.00
    4   -8   14      4.58      0.00
    5   -8   14     -0.53      0.00
    6   -8   14      1.79      0.00
    7   -8   14     -1.27      0.00
    8   -8   14      1.54      0.00
    9   -8   14     -3.14      0.00
   10   -8   14     -0.64      0.00
   11   -8   14      1.40      0.00
   12   -8   14     -2.15      0.00
   13   -8   14     -1.31      0.00
  -15   -7   14     -0.47      0.00
  -14   -7   14      1.50      0.00
  -13   -7   14      5.36      0.00
  -12   -7   14      2.65      0.00
  -11   -7   14     -1.47      0.00
  -10   -7   14      3.74      0.00
   -9   -7   14     -1.18      0.00
   -8   -7   14      1.76      0.00
   -7   -7   14     -1.57      0.00
   -6   -7   14      1.13      0.00
   -5   -7   14     -3.44      0.00
   -4   -7   14      3.81      0.00
   -3   -7   14     -4.76      0.00
   -2   -7   14      5.41      0.00
   -1   -7   14      1.38      0.00
    0   -7   14      1.76      0.00
    1   -7   14      1.09      0.00
    2   -7   14      0.75      0.00
    3   -7   14     -0.02      0.00
    4   -7   14     -5.78      0.00
    5   -7   14      3.46      0.00
    6   -7   14      1.09      0.00
    7   -7   14      0.20      0.00
    8   -7   14     -1.85      0.00
    9   -7   14      0.73      0.00
   10   -7   14      2.24      0.00
   11   -7   14      5.18      0.00
   12   -7   14      0.24      0.00
   13   -7   14     -3.46      0.00
  -15   -6   14     -3.21      0.00
  -14   -6   14     -0.78      0.00
  -13   -6   14     -1.62      0.00
  -12   -6   14     -1.75      0.00
  -11   -6   14      0.23      0.00
  -10   -6   14     -3.08      0.00
   -9   -6   14      0.46      0.00
   -8   -6   14     -1.04      0.00
   -7   -6   14      5.78      0.00
   -6   -6   14     -2.58      0.00
   -5   -6   14     -1.13      0.00
   -4   -6   14     -4.26      0.00
   -3   -6   14      8.54      0.00
   -2   -6   14     -6.66      0.00
   -1   -6   14     -8.83      0.00
    0   -6   14      1.43      0.00
    1   -6   14      2.91      0.00
    2   -6   14      0.70      0.00
    3   -6   14     -1.16      0.00
    4   -6   14      6.26      0.00
    5   -6   14     -6.01      0.00
    6   -6   14     -1.83      0.00
    7   -6   14      0.91      0.00
    8   -6   14      3.50      0.00
    9   -6   14     -1.46      0.00
   10   -6   14     -5.09      0.00
   11   -6   14     -2.26      0.00
   12   -6   14      4.26      0.00
  -16   -5   14      1.85      0.00
  -15   -5   14      1.62      0.00
  -14   -5   14     -2.72      0.00
  -13   -5   14     -2.78      0.00
  -12   -5   14      6.47      0.00
  -11   -5   14      3.84      0.00
  -10   -5   14     -0.98      0.00
   -9   -5   14     -4.63      0.00
   -8   -5   14      3.96      0.00
   -7   -5   14     -4.06      0.00
   -6   -5   14     -0.25      0.00
   -5   -5   14      5.35      0.00
   -4   -5   14      5.76      0.00
   -3   -5   14    -10.21      0.00
   -2   -5   14      4.07      0.00
   -1   -5   14     10.24      0.00
    0   -5   14     -5.45      0.00
    1   -5   14     -5.18      0.00
    2   -5   14      1.71      0.00
    3   -5   14      3.53      0.00
    4   -5   14     -4.50      0.00
    5   -5   14      5.21      0.00
    6   -5   14     -0.08      0.00
    7   -5   14     -0.92      0.00
    8   -5   14     -4.58      0.00
    9   -5   14      1.73      0.00
   10   -5   14      2.28      0.00
   11   -5   14     -1.30      0.00
   12   -5   14     -2.47      0.00
  -17   -4   14     -2.24      0.00
  -16   -4   14      2.67      0.00
  -15   -4   14     -2.25      0.00
  -14   -4   14     -0.06      0.00
  -13   -4   14      3.67      0.00
  -12   -4   14     -6.88      0.00
  -11   -4   14     -0.65      0.00
  -10   -4   14      2.35      0.00
   -9   -4   14      4.13      0.00
   -8   -4   14     -8.77      0.00
   -7   -4   14      3.22      0.00
   -6   -4   14      1.93      0.00
   -5   -4   14     -6.36      0.00
   -4   -4   14     -3.91      0.00
   -3   -4   14      8.38      0.00
   -2   -4   14     -0.33      0.00
   -1   -4   14     -7.77      0.00
    0   -4   14      5.61      0.00
    1   -4   14      4.13      0.00
    2   -4   14     -3.37      0.00
    3   -4   14     -6.53      0.00
    4   -4   14      3.21      0.00
    5   -4   14     -2.58      0.00
    6   -4   14      0.94      0.00
    7   -4   14      1.56      0.00
    8   -4   14      7.02      0.00
    9   -4   14      0.23      0.00
   10   -4   14     -1.81      0.00
   11   -4   14     -1.08      0.00
   12   -4   14      1.20      0.00
  -17   -3   14      0.20      0.00
  -16   -3   14     -5.79      0.00
  -15   -3   14      4.81      0.00
  -14   -3   14      3.77      0.00
  -13   -3   14     -3.41      0.00
  -12   -3   14      1.79      0.00
  -11   -3   14      0.29      0.00
  -10   -3   14      2.87      0.00
   -9   -3   14     -6.81      0.00
   -8   -3   14      6.63      0.00
   -7   -3   14      3.32      0.00
   -6   -3   14      2.12      0.00
   -5   -3   14     -3.07      0.00
   -4   -3   14      1.71      0.00
   -3   -3   14     -1.29      0.00
   -2   -3   14     -2.86      0.00
   -1   -3   14      5.49      0.00
    0   -3   14     -2.68      0.00
    1   -3   14     -1.26      0.00
    2   -3   14      1.33      0.00
    3   -3   14      6.69      0.00
    4   -3   14     -2.31      0.00
    5   -3   14      0.75      0.00
    6   -3   14     -2.79      0.00
    7   -3   14     -1.77      0.00
    8   -3   14     -5.82      0.00
    9   -3   14      1.39      0.00
   10   -3   14      1.05      0.00
   11   -3   14     -2.47      0.00
  -18   -2   14      0.60      0.00
  -17   -2   14     -0.43      0.00
  -16   -2   14      3.10      0.00
  -15   -2   14     -2.73      0.00
  -14   -2   14     -5.18      0.00
  -13   -2   14      1.60      0.00
  -12   -2   14      0.54      0.00
  -11   -2   14      1.09      0.00
  -10   -2   14     -7.55      0.00
   -9   -2   14      6.38      0.00
   -8   -2   14     -3.80      0.00
   -7   -2   14     -5.84      0.00
   -6   -2   14     -1.15      0.00
   -5   -2   14      9.27      0.00
   -4   -2   14     -5.53      0.00
   -3   -2   14     -4.58      0.00
   -2   -2   14      6.28      0.00
   -1   -2   14     -3.87      0.00
    0   -2   14     -0.08      0.00
    1   -2   14     -1.42      0.00
    2   -2   14      5.03      0.00
    3   -2   14     -6.81      0.00
    4   -2   14     -0.44      0.00
    5   -2   14      2.13      0.00
    6   -2   14      4.04      0.00
    7   -2   14     -0.69      0.00
    8   -2   14      1.57      0.00
    9   -2   14     -0.03      0.00
   10   -2   14      3.11      0.00
   11   -2   14      4.13      0.00
  -18   -1   14     -2.36      0.00
  -17   -1   14      1.00      0.00
  -16   -1   14      1.62      0.00
  -15   -1   14      1.56      0.00
  -14   -1   14      1.34      0.00
  -13   -1   14      0.22      0.00
  -12   -1   14     -0.50      0.00
  -11   -1   14     -6.04      0.00
  -10   -1   14     11.87      0.00
   -9   -1   14     -0.42      0.00
   -8   -1   14     -0.30      0.00
   -7   -1   14     -0.69      0.00
   -6   -1   14      0.39      0.00
   -5   -1   14     -4.32      0.00
   -4   -1   14      4.99      0.00
   -3   -1   14      3.47      0.00
   -2   -1   14     -4.43      0.00
   -1   -1   14      3.87      0.00
    0   -1   14     -2.35      0.00
    1   -1   14      2.54      0.00
    2   -1   14     -4.86      0.00
    3   -1   14      6.55      0.00
    4   -1   14     -0.48      0.00
    5   -1   14     -2.94      0.00
    6   -1   14     -3.85      0.00
    7   -1   14      1.95      0.00
    8   -1   14      0.35      0.00
    9   -1   14     -3.12      0.00
   10   -1   14     -2.65      0.00
   11   -1   14     -0.48      0.00
  -19    0   14      1.90      0.00
  -18    0   14      0.00      0.00
  -17    0   14     -0.18      0.00
  -16    0   14     -2.36      0.00
  -15    0   14      0.58      0.00
  -14    0   14      2.64      0.00
  -13    0   14     -0.68      0.00
  -12    0   14     -1.91      0.00
  -11    0   14      5.82      0.00
  -10    0   14     -7.76      0.00
   -9    0   14     -0.34      0.00
   -8    0   14     -0.46      0.00
   -7    0   14      4.00      0.00
   -6    0   14     -0.21      0.00
   -5    0   14     -0.04      0.00
   -4    0   14     -0.60      0.00
   -3    0   14     -1.55      0.00
   -2    0   14      2.01      0.00
   -1    0   14     -5.67      0.00
    0    0   14      3.30      0.00
    1    0   14     -2.03      0.00
    2    0   14      2.38      0.00
    3    0   14     -2.12      0.00
    4    0   14      1.62      0.00
    5    0   14      0.54      0.00
    6    0   14      2.90      0.00
    7    0   14     -1.24      0.00
    8    0   14      1.21      0.00
    9    0   14     -0.25      0.00
   10    0   14      1.51      0.00
  -19    1   14     -0.90      0.00
  -18    1   14      0.62      0.00
  -17    1   14     -3.14      0.00
  -16    1   14     -0.64      0.00
  -15    1   14      0.74      0.00
  -14    1   14     -3.61      0.00
  -13    1   14     -1.92      0.00
  -12    1   14      4.88      0.00
  -11    1   14     -3.47      0.00
  -10    1   14      0.98      0.00
   -9    1   14     -1.32      0.00
   -8    1   14      5.25      0.00
   -7    1   14     -5.03      0.00
   -6    1   14     -2.37      0.00
   -5    1   14      3.67      0.00
   -4    1   14      1.22      0.00
   -3    1   14     -1.89      0.00
   -2    1   14     -3.67      0.00
   -1    1   14     10.39      0.00
    0    1   14     -3.23      0.00
    1    1   14     -3.29      0.00
    2    1   14     -2.29      0.00
    3    1   14      1.97      0.00
    4    1   14     -0.82      0.00
    5    1   14      1.33      0.00
    6    1   14     -2.07      0.00
    7    1   14      0.13      0.00
    8    1   14     -1.61      0.00
    9    1   14      3.53      0.00
   10    1   14     -3.41      0.00
  -20    2   14     -2.08      0.00
  -19    2   14      1.84      0.00
  -18    2   14      2.65      0.00
  -17    2   14      4.74      0.00
  -16    2   14      0.62      0.00
  -15    2   14     -0.71      0.00
  -14    2   14      3.82      0.00
  -13    2   14      0.25      0.00
  -12    2   14     -3.81      0.00
  -11    2   14      1.27      0.00
  -10    2   14     -0.39      0.00
   -9    2   14      6.35      0.00
   -8    2   14     -8.22      0.00
   -7    2   14      0.04      0.00
   -6    2   14      4.07      0.00
   -5    2   14     -2.44      0.00
   -4    2   14     -3.54      0.00
   -3    2   14      2.18      0.00
   -2    2   14      7.11      0.00
   -1    2   14     -7.65      0.00
    0    2   14      2.54      0.00
    1    2   14      3.40      0.00
    2    2   14      0.80      0.00
    3    2   14     -4.20      0.00
    4    2   14      3.29      0.00
    5    2   14     -0.38      0.00
    6    2   14     -0.13      0.00
    7    2   14     -2.80      0.00
    8    2   14      3.54      0.00
    9    2   14     -1.39      0.00
  -20    3   14      1.38      0.00
  -19    3   14     -4.70      0.00
  -18    3   14     -3.02      0.00
  -17    3   14     -5.10      0.00
  -16    3   14     -0.87      0.00
  -15    3   14     -0.30      0.00
  -14    3   14      1.52      0.00
  -13    3   14      0.46      0.00
  -12    3   14      1.01      0.00
  -11    3   14      1.95      0.00
  -10    3   14     -0.54      0.00
   -9    3   14     -8.63      0.00
   -8    3   14     10.17      0.00
   -7    3   14      5.59      0.00
   -6    3   14     -5.93      0.00
   -5    3   14     -2.88      0.00
   -4    3   14      5.65      0.00
   -3    3   14      1.91      0.00
   -2    3   14    -12.11      0.00
   -1    3   14      2.78      0.00
    0    3   14      4.83      0.00
    1    3   14     -0.45      0.00
    2    3   14     -2.91      0.00
    3    3   14      1.77      0.00
    4    3   14     -3.88      0.00
    5    3   14      1.05      0.00
    6    3   14      2.93      0.00
    7    3   14      3.18      0.00
    8    3   14     -6.05      0.00
    9    3   14      2.06      0.00
  -20    4   14      1.96      0.00
  -19    4   14      7.28      0.00
  -18    4   14      2.37      0.00
  -17    4   14      2.04      0.00
  -16    4   14     -0.82      0.00
  -15    4   14     -0.36      0.00
  -14    4   14     -2.68      0.00
  -13    4   14      1.40      0.00
  -12    4   14     -0.15      0.00
  -11    4   14     -2.62      0.00
  -10    4   14     -1.66      0.00
   -9    4   14      5.75      0.00
   -8    4   14     -4.63      0.00
   -7    4   14     -4.80      0.00
   -6    4   14      0.84      0.00
   -5    4   14      4.98      0.00
   -4    4   14     -2.75      0.00
   -3    4   14     -7.10      0.00
   -2    4   14      9.94      0.00
   -1    4   14      0.14      0.00
    0    4   14     -9.14      0.00
    1    4   14      0.11      0.00
    2    4   14      7.26      0.00
    3    4   14     -0.41      0.00
    4    4   14     -1.10      0.00
    5    4   14     -1.10      0.00
    6    4   14     -0.84      0.00
    7    4   14     -1.75      0.00
    8    4   14      4.51      0.00
  -21    5   14     -2.65      0.00
  -20    5   14     -4.69      0.00
  -19    5   14     -6.99      0.00
  -18    5   14      1.98      0.00
  -17    5   14      0.46      0.00
  -16    5   14     -0.91      0.00
  -15    5   14     -1.04      0.00
  -14    5   14      1.31      0.00
  -13    5   14      1.86      0.00
  -12    5   14     -2.80      0.00
  -11    5   14      1.01      0.00
  -10    5   14      4.05      0.00
   -9    5   14     -3.83      0.00
   -8    5   14      0.92      0.00
   -7    5   14      1.85      0.00
   -6    5   14      5.96      0.00
   -5    5   14     -3.56      0.00
   -4    5   14     -2.61      0.00
   -3    5   14     10.16      0.00
   -2    5   14     -2.15      0.00
   -1    5   14     -4.12      0.00
    0    5   14      5.79      0.00
    1    5   14      1.82      0.00
    2    5   14     -4.56      0.00
    3    5   14     -0.02      0.00
    4    5   14      0.59      0.00
    5    5   14      0.95      0.00
    6    5   14     -1.37      0.00
    7    5   14     -2.02      0.00
  -21    6   14      2.52      0.00
  -20    6   14      1.69      0.00
  -19    6   14      3.63      0.00
  -18    6   14     -0.39      0.00
  -17    6   14      1.94      0.00
  -16    6   14      1.32      0.00
  -15    6   14      1.69      0.00
  -14    6   14     -0.26      0.00
  -13    6   14     -3.01      0.00
  -12    6   14      2.71      0.00
  -11    6   14      0.92      0.00
  -10    6   14     -2.31      0.00
   -9    6   14     -1.01      0.00
   -8    6   14     -0.02      0.00
   -7    6   14      3.61      0.00
   -6    6   14     -9.45      0.00
   -5    6   14     -0.26      0.00
   -4    6   14      6.83      0.00
   -3    6   14     -8.11      0.00
   -2    6   14     -6.07      0.00
   -1    6   14      4.52      0.00
    0    6   14      1.85      0.00
    1    6   14     -5.54      0.00
    2    6   14     -0.37      0.00
    3    6   14      4.07      0.00
    4    6   14      1.48      0.00
    5    6   14     -1.46      0.00
    6    6   14      3.42      0.00
    7    6   14      5.59      0.00
  -21    7   14      0.83      0.00
  -20    7   14      0.28      0.00
  -19    7   14     -5.06      0.00
  -18    7   14     -3.20      0.00
  -17    7   14     -0.89      0.00
  -16    7   14     -1.09      0.00
  -15    7   14     -1.83      0.00
  -14    7   14     -2.18      0.00
  -13    7   14      0.34      0.00
  -12    7   14      2.11      0.00
  -11    7   14     -0.74      0.00
  -10    7   14      0.52      0.00
   -9    7   14      2.00      0.00
   -8    7   14     -2.17      0.00
   -7    7   14     -3.77      0.00
   -6    7   14      8.02      0.00
   -5    7   14      2.09      0.00
   -4    7   14     -5.27      0.00
   -3    7   14      3.24      0.00
   -2    7   14      8.10      0.00
   -1    7   14     -1.07      0.00
    0    7   14     -6.57      0.00
    1    7   14      3.45      0.00
    2    7   14      1.81      0.00
    3    7   14     -3.16      0.00
    4    7   14     -2.74      0.00
    5    7   14     -0.57      0.00
    6    7   14     -0.55      0.00
  -21    8   14      0.40      0.00
  -20    8   14     -1.96      0.00
  -19    8   14      2.89      0.00
  -18    8   14      3.13      0.00
  -17    8   14      4.64      0.00
  -16    8   14      1.12      0.00
  -15    8   14      0.09      0.00
  -14    8   14      2.65      0.00
  -13    8   14      0.60      0.00
  -12    8   14     -2.79      0.00
  -11    8   14     -0.75      0.00
  -10    8   14      1.66      0.00
   -9    8   14     -0.15      0.00
   -8    8   14     -2.17      0.00
   -7    8   14      1.69      0.00
   -6    8   14     -0.64      0.00
   -5    8   14     -3.54      0.00
   -4    8   14      0.51      0.00
   -3    8   14      2.64      0.00
   -2    8   14     -3.16      0.00
   -1    8   14     -2.36      0.00
    0    8   14      6.55      0.00
    1    8   14      2.17      0.00
    2    8   14     -5.42      0.00
    3    8   14     -0.11      0.00
    4    8   14      4.22      0.00
    5    8   14     -0.57      0.00
  -21    9   14      2.14      0.00
  -20    9   14      3.29      0.00
  -19    9   14     -1.25      0.00
  -18    9   14     -2.29      0.00
  -17    9   14     -5.81      0.00
  -16    9   14     -0.35      0.00
  -15    9   14     -1.17      0.00
  -14    9   14     -0.20      0.00
  -13    9   14     -0.58      0.00
  -12    9   14      0.81      0.00
  -11    9   14      2.00      0.00
  -10    9   14     -1.70      0.00
   -9    9   14      1.37      0.00
   -8    9   14      4.29      0.00
   -7    9   14     -2.26      0.00
   -6    9   14     -2.16      0.00
   -5    9   14      0.89      0.00
   -4    9   14      0.82      0.00
   -3    9   14     -3.11      0.00
   -2    9   14     -2.80      0.00
   -1    9   14      2.96      0.00
    0    9   14     -3.23      0.00
    1    9   14     -3.32      0.00
    2    9   14      6.75      0.00
    3    9   14      1.47      0.00
    4    9   14     -2.61      0.00
  -21   10   14     -2.02      0.00
  -20   10   14      0.55      0.00
  -19   10   14     -0.71      0.00
  -18   10   14     -0.76      0.00
  -17   10   14      3.08      0.00
  -16   10   14      1.68      0.00
  -15   10   14      1.44      0.00
  -14   10   14     -2.62      0.00
  -13   10   14      1.50      0.00
  -12   10   14     -0.61      0.00
  -11   10   14     -2.89      0.00
  -10   10   14     -0.56      0.00
   -9   10   14     -0.09      0.00
   -8   10   14      0.38      0.00
   -7   10   14     -0.18      0.00
   -6   10   14      0.06      0.00
   -5   10   14      5.32      0.00
   -4   10   14     -0.86      0.00
   -3   10   14     -0.29      0.00
   -2   10   14      3.63      0.00
   -1   10   14     -2.36      0.00
    0   10   14     -0.21      0.00
    1   10   14      1.84      0.00
    2   10   14     -2.05      0.00
    3   10   14     -0.25      0.00
  -21   11   14      1.55      0.00
  -20   11   14      1.14      0.00
  -19   11   14     -0.99      0.00
  -18   11   14      0.64      0.00
  -17   11   14     -0.60      0.00
  -16   11   14      0.12      0.00
  -15   11   14      1.07      0.00
  -14   11   14      3.89      0.00
  -13   11   14     -2.76      0.00
  -12   11   14      0.12      0.00
  -11   11   14      3.75      0.00
  -10   11   14      0.25      0.00
   -9   11   14     -2.52      0.00
   -8   11   14     -2.11      0.00
   -7   11   14      2.25      0.00
   -6   11   14      0.78      0.00
   -5   11   14     -5.46      0.00
   -4   11   14      0.38      0.00
   -3   11   14      2.15      0.00
   -2   11   14      0.52      0.00
   -1   11   14      0.68      0.00
    0   11   14      0.27      0.00
    1   11   14     -1.99      0.00
    2   11   14     -2.93      0.00
  -21   12   14     -3.91      0.00
  -20   12   14      1.29      0.00
  -19   12   14      2.92      0.00
  -18   12   14     -3.12      0.00
  -17   12   14     -1.26      0.00
  -16   12   14     -2.92      0.00
  -15   12   14     -1.80      0.00
  -14   12   14     -2.05      0.00
  -13   12   14      0.67      0.00
  -12   12   14     -1.23      0.00
  -11   12   14     -0.67      0.00
  -10   12   14      0.39      0.00
   -9   12   14     -0.52      0.00
   -8   12   14      1.90      0.00
   -7   12   14     -0.60      0.00
   -6   12   14     -1.83      0.00
   -5   12   14      2.33      0.00
   -4   12   14      0.66      0.00
   -3   12   14     -2.15      0.00
   -2   12   14     -2.82      0.00
   -1   12   14      1.84      0.00
    0   12   14      2.91      0.00
    1   12   14      1.72      0.00
  -20   13   14     -3.19      0.00
  -19   13   14      0.89      0.00
  -18   13   14      3.36      0.00
  -17   13   14      3.43      0.00
  -16   13   14      4.72      0.00
  -15   13   14     -0.28      0.00
  -14   13   14      0.41      0.00
  -13   13   14      3.38      0.00
  -12   13   14      1.22      0.00
  -11   13   14     -2.20      0.00
  -10   13   14      2.69      0.00
   -9   13   14      4.54      0.00
   -8   13   14     -2.58      0.00
   -7   13   14     -1.88      0.00
   -6   13   14      0.61      0.00
   -5   13   14     -0.95      0.00
   -4   13   14     -0.27      0.00
   -3   13   14      0.77      0.00
   -2   13   14      0.65      0.00
   -1   13   14     -4.09      0.00
    0   13   14     -2.37      0.00
  -20   14   14      3.23      0.00
  -19   14   14     -1.59      0.00
  -18   14   14     -4.19      0.00
  -17   14   14     -4.09      0.00
  -16   14   14     -2.29      0.00
  -15   14   14      0.77      0.00
  -14   14   14     -1.66      0.00
  -13   14   14     -3.79      0.00
  -12   14   14     -2.19      0.00
  -11   14   14      0.82      0.00
  -10   14   14     -1.71      0.00
   -9   14   14     -5.20      0.00
   -8   14   14      2.65      0.00
   -7   14   14      4.90      0.00
   -6   14   14      1.40      0.00
   -5   14   14     -1.01      0.00
   -4   14   14      0.16      0.00
   -3   14   14      0.75      0.00
   -2   14   14      1.15      0.00
   -1   14   14      2.73      0.00
  -20   15   14     -3.82      0.00
  -19   15   14      3.82      0.00
  -18   15   14      5.72      0.00
  -17   15   14     -2.11      0.00
  -16   15   14     -2.31      0.00
  -15   15   14      1.40      0.00
  -14   15   14      3.62      0.00
  -13   15   14      4.24      0.00
  -12   15   14      3.10      0.00
  -11   15   14     -0.69      0.00
  -10   15   14     -2.89      0.00
   -9   15   14      1.53      0.00
   -8   15   14     -2.22      0.00
   -7   15   14     -1.97      0.00
   -6   15   14     -1.21      0.00
   -5   15   14      1.12      0.00
   -4   15   14      1.95      0.00
   -3   15   14     -0.65      0.00
  -19   16   14     -3.21      0.00
  -18   16   14     -1.43      0.00
  -17   16   14      5.51      0.00
  -16   16   14      2.51      0.00
  -15   16   14     -3.00      0.00
  -14   16   14     -2.99      0.00
  -13   16   14     -3.45      0.00
  -12   16   14     -2.07      0.00
  -11   16   14      1.69      0.00
  -10   16   14      5.66      0.00
   -9   16   14      0.24      0.00
   -8   16   14     -0.13      0.00
   -7   16   14     -1.90      0.00
   -6   16   14     -1.09      0.00
   -5   16   14     -2.10      0.00
   -4   16   14     -3.32      0.00
  -18   17   14     -1.71      0.00
  -17   17   14     -0.47      0.00
  -16   17   14     -1.56      0.00
  -15   17   14      0.85      0.00
  -14   17   14      2.60      0.00
  -13   17   14      0.83      0.00
  -12   17   14     -0.78      0.00
  -11   17   14     -2.49      0.00
  -10   17   14     -1.34      0.00
   -9   17   14      3.74      0.00
   -8   17   14     -0.94      0.00
   -7   17   14      1.16      0.00
   -6   17   14      4.88      0.00
  -16   18   14      3.59      0.00
  -15   18   14     -1.48      0.00
  -14   18   14     -3.96      0.00
  -13   18   14      4.84      0.00
  -12   18   14      2.23      0.00
  -11   18   14     -1.55      0.00
  -10   18   14     -2.21      0.00
   -9   18   14     -3.94      0.00
    2  -19   15      0.80      0.00
    3  -19   15     -0.67      0.00
    4  -19   15     -3.51      0.00
    5  -19   15     -0.75      0.00
    6  -19   15      1.98      0.00
    7  -19   15     -1.20      0.00
   -1  -18   15     -0.99      0.00
    0  -18   15     -0.93      0.00
    1  -18   15     -2.59      0.00
    2  -18   15      2.03      0.00
    3  -18   15      1.88      0.00
    4  -18   15     -0.61      0.00
    5  -18   15     -0.12      0.00
    6  -18   15      0.67      0.00
    7  -18   15      1.68      0.00
    8  -18   15      2.49      0.00
    9  -18   15      1.22      0.00
   -3  -17   15      2.77      0.00
   -2  -17   15      1.32      0.00
   -1  -17   15     -0.72      0.00
    0  -17   15      1.29      0.00
    1  -17   15      1.87      0.00
    2  -17   15     -1.91      0.00
    3  -17   15     -1.87      0.00
    4  -17   15      2.04      0.00
    5  -17   15     -2.37      0.00
    6  -17   15     -1.09      0.00
    7  -17   15      2.46      0.00
    8  -17   15     -0.74      0.00
    9  -17   15     -0.22      0.00
   10  -17   15      2.71      0.00
   -5  -16   15      0.86      0.00
   -4  -16   15     -5.38      0.00
   -3  -16   15     -2.88      0.00
   -2  -16   15      0.41      0.00
   -1  -16   15      2.08      0.00
    0  -16   15     -1.34      0.00
    1  -16   15     -1.97      0.00
    2  -16   15      0.86      0.00
    3  -16   15      3.28      0.00
    4  -16   15     -1.50      0.00
    5  -16   15      0.06      0.00
    6  -16   15     -0.97      0.00
    7  -16   15     -2.20      0.00
    8  -16   15     -0.21      0.00
    9  -16   15      0.23      0.00
   10  -16   15     -0.33      0.00
   -7  -15   15      3.91      0.00
   -6  -15   15     -1.81      0.00
   -5  -15   15      3.34      0.00
   -4  -15   15      9.40      0.00
   -3  -15   15     -4.08      0.00
   -2  -15   15     -0.85      0.00
   -1  -15   15      0.99      0.00
    0  -15   15     -0.58      0.00
    1  -15   15     -0.17      0.00
    2  -15   15      1.43      0.00
    3  -15   15     -2.42      0.00
    4  -15   15      2.20      0.00
    5  -15   15     -1.06      0.00
    6  -15   15      0.12      0.00
    7  -15   15      0.11      0.00
    8  -15   15     -0.69      0.00
    9  -15   15     -1.23      0.00
   10  -15   15     -0.62      0.00
   11  -15   15     -2.89      0.00
   -8  -14   15      1.82      0.00
   -7  -14   15     -2.70      0.00
   -6  -14   15     -2.50      0.00
   -5  -14   15     -5.03      0.00
   -4  -14   15     -1.86      0.00
   -3  -14   15      7.49      0.00
   -2  -14   15     -2.11      0.00
   -1  -14   15      0.61      0.00
    0  -14   15      1.66      0.00
    1  -14   15     -0.36      0.00
    2  -14   15     -2.97      0.00
    3  -14   15      3.38      0.00
    4  -14   15     -1.04      0.00
    5  -14   15      3.35      0.00
    6  -14   15     -0.39      0.00
    7  -14   15      2.65      0.00
    8  -14   15      2.60      0.00
    9  -14   15     -0.15      0.00
   10  -14   15     -1.63      0.00
   11  -14   15      2.52      0.00
   -9  -13   15      1.89      0.00
   -8  -13   15     -4.30      0.00
   -7  -13   15      3.12      0.00
   -6  -13   15      1.34      0.00
   -5  -13   15     -1.25      0.00
   -4  -13   15     -1.93      0.00
   -3  -13   15     -5.44      0.00
   -2  -13   15      0.93      0.00
   -1  -13   15     -1.34      0.00
    0  -13   15      0.86      0.00
    1  -13   15     -3.88      0.00
    2  -13   15      2.36      0.00
    3  -13   15     -3.46      0.00
    4  -13   15      1.79      0.00
    5  -13   15     -1.23      0.00
    6  -13   15     -1.19      0.00
    7  -13   15     -4.41      0.00
    8  -13   15     -0.59      0.00
    9  -13   15     -0.27      0.00
   10  -13   15      2.80      0.00
   11  -13   15     -0.66      0.00
   12  -13   15     -1.40      0.00
  -10  -12   15      3.33      0.00
   -9  -12   15     -0.25      0.00
   -8  -12   15      5.26      0.00
   -7  -12   15     -0.67      0.00
   -6  -12   15      1.35      0.00
   -5  -12   15      2.87      0.00
   -4  -12   15      3.88      0.00
   -3  -12   15      5.14      0.00
   -2  -12   15     -3.41      0.00
   -1  -12   15      0.95      0.00
    0  -12   15      0.27      0.00
    1  -12   15      6.96      0.00
    2  -12   15     -4.29      0.00
    3  -12   15      2.18      0.00
    4  -12   15     -2.73      0.00
    5  -12   15      1.07      0.00
    6  -12   15      1.96      0.00
    7  -12   15      1.98      0.00
    8  -12   15     -1.39      0.00
    9  -12   15      1.57      0.00
   10  -12   15     -3.04      0.00
   11  -12   15     -0.25      0.00
   12  -12   15      0.98      0.00
  -11  -11   15      2.17      0.00
  -10  -11   15     -6.34      0.00
   -9  -11   15     -3.53      0.00
   -8  -11   15     -6.04      0.00
   -7  -11   15      3.31      0.00
   -6  -11   15     -0.12      0.00
   -5  -11   15     -4.89      0.00
   -4  -11   15     -3.60      0.00
   -3  -11   15     -1.07      0.00
   -2  -11   15      4.42      0.00
   -1  -11   15     -5.96      0.00
    0  -11   15      2.53      0.00
    1  -11   15     -3.36      0.00
    2  -11   15      2.51      0.00
    3  -11   15     -3.27      0.00
    4  -11   15      2.90      0.00
    5  -11   15     -2.11      0.00
    6  -11   15     -0.82      0.00
    7  -11   15      0.08      0.00
    8  -11   15      4.09      0.00
    9  -11   15     -1.17      0.00
   10  -11   15      0.61      0.00
   11  -11   15     -0.23      0.00
   12  -11   15     -0.82      0.00
  -12  -10   15      0.37      0.00
  -11  -10   15     -0.28      0.00
  -10  -10   15      7.87      0.00
   -9  -10   15     -0.50      0.00
   -8  -10   15     -0.43      0.00
   -7  -10   15     -2.63      0.00
   -6  -10   15      4.19      0.00
   -5  -10   15      2.47      0.00
   -4  -10   15     -2.42      0.00
   -3  -10   15      2.12      0.00
   -2  -10   15     -3.03      0.00
   -1  -10   15      5.80      0.00
    0  -10   15     -4.62      0.00
    1  -10   15      4.10      0.00
    2  -10   15     -1.18      0.00
    3  -10   15      4.21      0.00
    4  -10   15     -3.46      0.00
    5  -10   15      2.32      0.00
    6  -10   15      0.51      0.00
    7  -10   15     -2.28      0.00
    8  -10   15     -4.99      0.00
    9  -10   15      2.37      0.00
   10  -10   15      0.30      0.00
   11  -10   15     -0.16      0.00
   12  -10   15      0.46      0.00
  -13   -9   15      1.35      0.00
  -12   -9   15     -0.36      0.00
  -11   -9   15     -1.18      0.00
  -10   -9   15     -2.40      0.00
   -9   -9   15      5.07      0.00
   -8   -9   15      0.78      0.00
   -7   -9   15      0.36      0.00
   -6   -9   15     -1.92      0.00
   -5   -9   15     -0.44      0.00
   -4   -9   15      2.68      0.00
   -3   -9   15     -3.76      0.00
   -2   -9   15      3.96      0.00
   -1   -9   15     -3.79      0.00
    0   -9   15      2.52      0.00
    1   -9   15     -6.44      0.00
    2   -9   15      5.31      0.00
    3   -9   15     -3.98      0.00
    4   -9   15      1.64      0.00
    5   -9   15     -2.71      0.00
    6   -9   15      1.69      0.00
    7   -9   15      1.40      0.00
    8   -9   15      2.98      0.00
    9   -9   15      1.43      0.00
   10   -9   15     -0.86      0.00
   11   -9   15     -1.38      0.00
   12   -9   15      2.31      0.00
  -14   -8   15     -2.07      0.00
  -13   -8   15     -5.29      0.00
  -12   -8   15      0.59      0.00
  -11   -8   15     -2.14      0.00
  -10   -8   15      0.40      0.00
   -9   -8   15      0.72      0.00
   -8   -8   15     -1.46      0.00
   -7   -8   15     -3.75      0.00
   -6   -8   15      0.27      0.00
   -5   -8   15      2.46      0.00
   -4   -8   15     -3.49      0.00
   -3   -8   15      2.96      0.00
   -2   -8   15     -3.28      0.00
   -1   -8   15      3.85      0.00
    0   -8   15     -3.70      0.00
    1   -8   15      4.80      0.00
    2   -8   15     -7.18      0.00
    3   -8   15      5.52      0.00
    4   -8   15      0.65      0.00
    5   -8   15      0.90      0.00
    6   -8   15     -2.70      0.00
    7   -8   15      0.72      0.00
    8   -8   15     -3.87      0.00
    9   -8   15     -3.25      0.00
   10   -8   15      1.20      0.00
   11   -8   15     -0.02      0.00
   12   -8   15     -2.27      0.00
  -15   -7   15      2.20      0.00
  -14   -7   15      4.84      0.00
  -13   -7   15      4.22      0.00
  -12   -7   15     -2.95      0.00
  -11   -7   15      2.48      0.00
  -10   -7   15      0.20      0.00
   -9   -7   15      0.47      0.00
   -8   -7   15      1.24      0.00
   -7   -7   15      0.15      0.00
   -6   -7   15      0.38      0.00
   -5   -7   15      0.10      0.00
   -4   -7   15      3.39      0.00
   -3   -7   15     -4.21      0.00
   -2   -7   15      7.48      0.00
   -1   -7   15     -3.81      0.00
    0   -7   15      4.76      0.00
    1   -7   15     -4.44      0.00
    2   -7   15      3.77      0.00
    3   -7   15     -6.49      0.00
    4   -7   15      0.88      0.00
    5   -7   15      2.34      0.00
    6   -7   15      1.67      0.00
    7   -7   15     -0.75      0.00
    8   -7   15      1.20      0.00
    9   -7   15      1.72      0.00
   10   -7   15      5.63      0.00
   11   -7   15      0.60      0.00
   12   -7   15     -4.17      0.00
  -15   -6   15     -2.76      0.00
  -14   -6   15     -0.91      0.00
  -13   -6   15      0.14      0.00
  -12   -6   15      0.99      0.00
  -11   -6   15     -3.11      0.00
  -10   -6   15     -1.99      0.00
   -9   -6   15     -0.92      0.00
   -8   -6   15      2.88      0.00
   -7   -6   15      0.37      0.00
   -6   -6   15     -3.57      0.00
   -5   -6   15     -0.92      0.00
   -4   -6   15      0.28      0.00
   -3   -6   15      5.35      0.00
   -2   -6   15    -15.24      0.00
   -1   -6   15      2.99      0.00
    0   -6   15      0.79      0.00
    1   -6   15      6.55      0.00
    2   -6   15     -4.64      0.00
    3   -6   15      5.06      0.00
    4   -6   15     -2.48      0.00
    5   -6   15     -3.57      0.00
    6   -6   15     -0.30      0.00
    7   -6   15      2.13      0.00
    8   -6   15      0.99      0.00
    9   -6   15     -4.08      0.00
   10   -6   15     -6.43      0.00
   11   -6   15      3.25      0.00
   12   -6   15      5.48      0.00
  -16   -5   15      1.79      0.00
  -15   -5   15     -0.55      0.00
  -14   -5   15     -3.81      0.00
  -13   -5   15      1.55      0.00
  -12   -5   15      6.55      0.00
  -11   -5   15     -0.71      0.00
  -10   -5   15     -1.92      0.00
   -9   -5   15      1.42      0.00
   -8   -5   15      0.63      0.00
   -7   -5   15     -2.43      0.00
   -6   -5   15      4.45      0.00
   -5   -5   15      2.09      0.00
   -4   -5   15     -2.97      0.00
   -3   -5   15     -5.92      0.00
   -2   -5   15     15.79      0.00
   -1   -5   15     -3.39      0.00
    0   -5   15     -4.14      0.00
    1   -5   15     -4.61      0.00
    2   -5   15      7.32      0.00
    3   -5   15     -3.08      0.00
    4   -5   15      2.49      0.00
    5   -5   15      0.79      0.00
    6   -5   15     -0.24      0.00
    7   -5   15     -2.74      0.00
    8   -5   15     -1.39      0.00
    9   -5   15      3.01      0.00
   10   -5   15      2.81      0.00
   11   -5   15     -2.26      0.00
  -17   -4   15      1.68      0.00
  -16   -4   15      0.59      0.00
  -15   -4   15     -1.80      0.00
  -14   -4   15      3.88      0.00
  -13   -4   15     -2.73      0.00
  -12   -4   15     -6.09      0.00
  -11   -4   15      3.22      0.00
  -10   -4   15      1.42      0.00
   -9   -4   15     -3.99      0.00
   -8   -4   15     -2.84      0.00
   -7   -4   15      6.84      0.00
   -6   -4   15     -5.32      0.00
   -5   -4   15     -2.39      0.00
   -4   -4   15      2.03      0.00
   -3   -4   15      6.54      0.00
   -2   -4   15    -10.13      0.00
   -1   -4   15      1.11      0.00
    0   -4   15      2.06      0.00
    1   -4   15      3.60      0.00
    2   -4   15     -8.45      0.00
    3   -4   15      0.75      0.00
    4   -4   15     -0.88      0.00
    5   -4   15      2.37      0.00
    6   -4   15      0.29      0.00
    7   -4   15      4.22      0.00
    8   -4   15      2.59      0.00
    9   -4   15     -2.00      0.00
   10   -4   15     -3.42      0.00
   11   -4   15      1.04      0.00
  -17   -3   15     -3.81      0.00
  -16   -3   15      0.97      0.00
  -15   -3   15      5.03      0.00
  -14   -3   15     -1.82      0.00
  -13   -3   15      0.12      0.00
  -12   -3   15      4.11      0.00
  -11   -3   15      0.72      0.00
  -10   -3   15     -2.39      0.00
   -9   -3   15     -0.50      0.00
   -8   -3   15      6.84      0.00
   -7   -3   15     -1.49      0.00
   -6   -3   15     -0.35      0.00
   -5   -3   15     -2.42      0.00
   -4   -3   15      5.29      0.00
   -3   -3   15     -5.42      0.00
   -2   -3   15      5.36      0.00
   -1   -3   15      0.97      0.00
    0   -3   15     -0.21      0.00
    1   -3   15     -4.57      0.00
    2   -3   15      7.57      0.00
    3   -3   15      0.77      0.00
    4   -3   15     -0.81      0.00
    5   -3   15     -4.04      0.00
    6   -3   15     -0.46      0.00
    7   -3   15     -3.81      0.00
    8   -3   15     -0.81      0.00
    9   -3   15      0.57      0.00
   10   -3   15     -0.54      0.00
   11   -3   15     -1.47      0.00
  -18   -2   15      0.26      0.00
  -17   -2   15     -0.13      0.00
  -16   -2   15      0.14      0.00
  -15   -2   15     -5.54      0.00
  -14   -2   15     -0.89      0.00
  -13   -2   15      0.65      0.00
  -12   -2   15     -0.64      0.00
  -11   -2   15     -2.18      0.00
  -10   -2   15      0.93      0.00
   -9   -2   15      4.09      0.00
   -8   -2   15     -9.65      0.00
   -7   -2   15     -1.47      0.00
   -6   -2   15      6.39      0.00
   -5   -2   15      2.67      0.00
   -4   -2   15    -13.47      0.00
   -3   -2   15      5.77      0.00
   -2   -2   15     -0.31      0.00
   -1   -2   15     -1.20      0.00
    0   -2   15     -3.61      0.00
    1   -2   15      7.17      0.00
    2   -2   15     -4.21      0.00
    3   -2   15     -3.79      0.00
    4   -2   15      2.48      0.00
    5   -2   15      4.24      0.00
    6   -2   15     -0.32      0.00
    7   -2   15      1.00      0.00
    8   -2   15      0.71      0.00
    9   -2   15      3.40      0.00
   10   -2   15      3.38      0.00
  -18   -1   15      0.65      0.00
  -17   -1   15      3.26      0.00
  -16   -1   15      0.28      0.00
  -15   -1   15      2.10      0.00
  -14   -1   15     -0.17      0.00
  -13   -1   15     -0.37      0.00
  -12   -1   15     -4.77      0.00
  -11   -1   15      4.17      0.00
  -10   -1   15      7.14      0.00
   -9   -1   15     -6.16      0.00
   -8   -1   15      3.20      0.00
   -7   -1   15     -0.28      0.00
   -6   -1   15     -1.20      0.00
   -5   -1   15     -0.72      0.00
   -4   -1   15     11.19      0.00
   -3   -1   15     -5.04      0.00
   -2   -1   15     -0.52      0.00
   -1   -1   15     -0.72      0.00
    0   -1   15      5.89      0.00
    1   -1   15     -5.39      0.00
    2   -1   15      1.29      0.00
    3   -1   15      3.27      0.00
    4   -1   15     -2.41      0.00
    5   -1   15     -3.80      0.00
    6   -1   15     -0.15      0.00
    7   -1   15      1.69      0.00
    8   -1   15     -2.18      0.00
    9   -1   15     -3.21      0.00
   10   -1   15     -0.56      0.00
  -19    0   15     -0.50      0.00
  -18    0   15     -0.88      0.00
  -17    0   15     -2.05      0.00
  -16    0   15      0.86      0.00
  -15    0   15      1.31      0.00
  -14    0   15      1.62      0.00
  -13    0   15     -0.86      0.00
  -12    0   15      4.23      0.00
  -11    0   15     -2.18      0.00
  -10    0   15     -8.55      0.00
   -9    0   15      4.82      0.00
   -8    0   15     -0.33      0.00
   -7    0   15      1.52      0.00
   -6    0   15     -3.60      0.00
   -5    0   15      1.95      0.00
   -4    0   15     -5.88      0.00
   -3    0   15      2.00      0.00
   -2    0   15     -1.70      0.00
   -1    0   15      1.89      0.00
    0    0   15     -4.07      0.00
    1    0   15      1.63      0.00
    2    0   15      1.72      0.00
    3    0   15     -0.21      0.00
    4    0   15      0.08      0.00
    5    0   15      2.40      0.00
    6    0   15     -0.52      0.00
    7    0   15     -1.16      0.00
    8    0   15      1.05      0.00
    9    0   15      0.08      0.00
  -19    1   15      0.57      0.00
  -18    1   15     -0.92      0.00
  -17    1   15     -1.40      0.00
  -16    1   15      0.28      0.00
  -15    1   15     -0.46      0.00
  -14    1   15     -4.80      0.00
  -13    1   15      3.07      0.00
  -12    1   15     -1.38      0.00
  -11    1   15     -1.94      0.00
  -10    1   15      5.11      0.00
   -9    1   15     -0.40      0.00
   -8    1   15      2.25      0.00
   -7    1   15     -4.17      0.00
   -6    1   15      5.32      0.00
   -5    1   15     -0.65      0.00
   -4    1   15      1.69      0.00
   -3    1   15     -3.41      0.00
   -2    1   15      4.81      0.00
   -1    1   15     -0.67      0.00
    0    1   15     -1.84      0.00
    1    1   15     -1.10      0.00
    2    1   15     -0.10      0.00
    3    1   15     -0.71      0.00
    4    1   15      2.08      0.00
    5    1   15      0.34      0.00
    6    1   15     -0.06      0.00
    7    1   15     -0.33      0.00
    8    1   15      0.64      0.00
    9    1   15     -0.04      0.00
  -19    2   15      3.58      0.00
  -18    2   15      0.90      0.00
  -17    2   15     -0.04      0.00
  -16    2   15     -1.12      0.00
  -15    2   15      2.12      0.00
  -14    2   15      3.15      0.00
  -13    2   15     -3.70      0.00
  -12    2   15      1.10      0.00
  -11    2   15      0.33      0.00
  -10    2   15      0.11      0.00
   -9    2   15     -0.86      0.00
   -8    2   15     -6.91      0.00
   -7    2   15      4.68      0.00
   -6    2   15     -3.24      0.00
   -5    2   15     -0.12      0.00
   -4    2   15     -0.56      0.00
   -3    2   15      5.79      0.00
   -2    2   15     -3.09      0.00
   -1    2   15     -0.85      0.00
    0    2   15      1.87      0.00
    1    2   15      1.01      0.00
    2    2   15     -3.06      0.00
    3    2   15      1.64      0.00
    4    2   15     -0.57      0.00
    5    2   15     -1.56      0.00
    6    2   15     -1.90      0.00
    7    2   15      0.37      0.00
    8    2   15      3.03      0.00
  -20    3   15     -1.14      0.00
  -19    3   15     -3.69      0.00
  -18    3   15     -0.37      0.00
  -17    3   15     -0.11      0.00
  -16    3   15     -0.01      0.00
  -15    3   15      1.70      0.00
  -14    3   15     -0.21      0.00
  -13    3   15     -0.51      0.00
  -12    3   15      0.66      0.00
  -11    3   15      0.11      0.00
  -10    3   15     -3.18      0.00
   -9    3   15      1.68      0.00
   -8    3   15     10.53      0.00
   -7    3   15     -4.71      0.00
   -6    3   15     -2.75      0.00
   -5    3   15      0.93      0.00
   -4    3   15      4.65      0.00
   -3    3   15     -6.21      0.00
   -2    3   15     -1.45      0.00
   -1    3   15      5.06      0.00
    0    3   15      1.85      0.00
    1    3   15     -3.02      0.00
    2    3   15      1.39      0.00
    3    3   15     -2.82      0.00
    4    3   15     -0.28      0.00
    5    3   15      4.05      0.00
    6    3   15      3.28      0.00
    7    3   15     -3.21      0.00
    8    3   15     -4.01      0.00
  -20    4   15      2.10      0.00
  -19    4   15      4.01      0.00
  -18    4   15     -0.59      0.00
  -17    4   15     -1.45      0.00
  -16    4   15     -1.35      0.00
  -15    4   15     -2.53      0.00
  -14    4   15      2.87      0.00
  -13    4   15      2.02      0.00
  -12    4   15     -1.77      0.00
  -11    4   15     -0.57      0.00
  -10    4   15      1.39      0.00
   -9    4   15      1.57      0.00
   -8    4   15     -8.00      0.00
   -7    4   15      0.49      0.00
   -6    4   15      3.20      0.00
   -5    4   15      0.74      0.00
   -4    4   15     -8.34      0.00
   -3    4   15      1.48      0.00
   -2    4   15      5.18      0.00
   -1    4   15     -6.04      0.00
    0    4   15     -2.95      0.00
    1    4   15      6.49      0.00
    2    4   15      1.13      0.00
    3    4   15     -1.06      0.00
    4    4   15     -1.36      0.00
    5    4   15     -1.54      0.00
    6    4   15      0.25      0.00
    7    4   15      2.74      0.00
  -20    5   15     -3.51      0.00
  -19    5   15     -1.68      0.00
  -18    5   15      3.53      0.00
  -17    5   15     -0.30      0.00
  -16    5   15     -0.62      0.00
  -15    5   15     -0.41      0.00
  -14    5   15     -0.29      0.00
  -13    5   15     -2.89      0.00
  -12    5   15     -1.01      0.00
  -11    5   15      2.98      0.00
  -10    5   15     -0.49      0.00
   -9    5   15     -2.79      0.00
   -8    5   15      4.00      0.00
   -7    5   15      4.38      0.00
   -6    5   15      0.69      0.00
   -5    5   15     -4.99      0.00
   -4    5   15      7.92      0.00
   -3    5   15      4.62      0.00
   -2    5   15     -7.33      0.00
   -1    5   15      2.44      0.00
    0    5   15      2.57      0.00
    1    5   15     -3.68      0.00
    2    5   15      0.11      0.00
    3    5   15      0.32      0.00
    4    5   15     -0.99      0.00
    5    5   15     -1.24      0.00
    6    5   15     -3.11      0.00
    7    5   15     -1.55      0.00
  -21    6   15      2.46      0.00
  -20    6   15      1.67      0.00
  -19    6   15      1.92      0.00
  -18    6   15     -0.14      0.00
  -17    6   15      2.60      0.00
  -16    6   15      1.78      0.00
  -15    6   15      0.87      0.00
  -14    6   15     -1.84      0.00
  -13    6   15      2.87      0.00
  -12    6   15      2.37      0.00
  -11    6   15     -1.54      0.00
  -10    6   15     -2.75      0.00
   -9    6   15      0.77      0.00
   -8    6   15      2.30      0.00
   -7    6   15     -5.29      0.00
   -6    6   15     -4.69      0.00
   -5    6   15      7.06      0.00
   -4    6   15     -4.01      0.00
   -3    6   15     -8.27      0.00
   -2    6   15      4.91      0.00
   -1    6   15      3.15      0.00
    0    6   15     -2.91      0.00
    1    6   15     -3.15      0.00
    2    6   15      3.32      0.00
    3    6   15      4.94      0.00
    4    6   15      1.61      0.00
    5    6   15      0.07      0.00
    6    6   15      4.97      0.00
  -21    7   15     -0.45      0.00
  -20    7   15     -3.68      0.00
  -19    7   15     -5.78      0.00
  -18    7   15      0.36      0.00
  -17    7   15     -2.14      0.00
  -16    7   15     -2.72      0.00
  -15    7   15     -2.01      0.00
  -14    7   15     -0.12      0.00
  -13    7   15      1.64      0.00
  -12    7   15      0.02      0.00
  -11    7   15     -1.25      0.00
  -10    7   15      3.48      0.00
   -9    7   15     -1.93      0.00
   -8    7   15     -3.86      0.00
   -7    7   15      3.96      0.00
   -6    7   15      5.58      0.00
   -5    7   15     -3.66      0.00
   -4    7   15     -0.45      0.00
   -3    7   15      6.32      0.00
   -2    7   15     -0.22      0.00
   -1    7   15     -4.91      0.00
    0    7   15     -0.89      0.00
    1    7   15      3.26      0.00
    2    7   15     -3.14      0.00
    3    7   15     -4.33      0.00
    4    7   15     -2.46      0.00
    5    7   15      2.04      0.00
  -21    8   15      0.29      0.00
  -20    8   15      2.66      0.00
  -19    8   15      4.29      0.00
  -18    8   15      2.33      0.00
  -17    8   15      2.99      0.00
  -16    8   15     -0.06      0.00
  -15    8   15      2.42      0.00
  -14    8   15      0.43      0.00
  -13    8   15     -2.69      0.00
  -12    8   15     -2.28      0.00
  -11    8   15      2.65      0.00
  -10    8   15     -0.79      0.00
   -9    8   15     -1.67      0.00
   -8    8   15      0.86      0.00
   -7    8   15      1.29      0.00
   -6    8   15     -4.88      0.00
   -5    8   15     -1.10      0.00
   -4    8   15      4.73      0.00
   -3    8   15     -0.71      0.00
   -2    8   15     -2.64      0.00
   -1    8   15      3.24      0.00
    0    8   15      6.56      0.00
    1    8   15     -4.47      0.00
    2    8   15     -2.78      0.00
    3    8   15      4.23      0.00
    4    8   15      2.15      0.00
  -21    9   15      2.37      0.00
  -20    9   15     -0.38      0.00
  -19    9   15     -2.09      0.00
  -18    9   15     -5.18      0.00
  -17    9   15     -1.64      0.00
  -16    9   15      1.38      0.00
  -15    9   15     -0.83      0.00
  -14    9   15      0.95      0.00
  -13    9   15     -0.08      0.00
  -12    9   15      2.51      0.00
  -11    9   15     -1.23      0.00
  -10    9   15      1.70      0.00
   -9    9   15      4.88      0.00
   -8    9   15     -1.51      0.00
   -7    9   15     -3.26      0.00
   -6    9   15      2.29      0.00
   -5    9   15      0.60      0.00
   -4    9   15     -3.94      0.00
   -3    9   15     -3.63      0.00
   -2    9   15      2.09      0.00
   -1    9   15      1.37      0.00
    0    9   15     -5.27      0.00
    1    9   15      4.81      0.00
    2    9   15      4.35      0.00
    3    9   15     -2.62      0.00
  -21   10   15     -0.05      0.00
  -20   10   15     -0.63      0.00
  -19   10   15     -1.90      0.00
  -18   10   15      2.44      0.00
  -17   10   15      2.00      0.00
  -16   10   15     -0.07      0.00
  -15   10   15     -2.02      0.00
  -14   10   15     -1.14      0.00
  -13   10   15      1.46      0.00
  -12   10   15     -2.47      0.00
  -11   10   15     -2.62      0.00
  -10   10   15     -0.67      0.00
   -9   10   15     -0.46      0.00
   -8   10   15      1.24      0.00
   -7   10   15     -0.90      0.00
   -6   10   15      3.02      0.00
   -5   10   15      1.95      0.00
   -4   10   15     -1.48      0.00
   -3   10   15      2.91      0.00
   -2   10   15     -1.60      0.00
   -1   10   15     -5.13      0.00
    0   10   15      1.71      0.00
    1   10   15     -0.65      0.00
    2   10   15     -2.72      0.00
  -21   11   15      1.72      0.00
  -20   11   15     -1.72      0.00
  -19   11   15      2.40      0.00
  -18   11   15      2.08      0.00
  -17   11   15     -0.96      0.00
  -16   11   15      0.84      0.00
  -15   11   15      3.51      0.00
  -14   11   15     -0.28      0.00
  -13   11   15     -2.44      0.00
  -12   11   15      3.49      0.00
  -11   11   15      3.52      0.00
  -10   11   15     -3.30      0.00
   -9   11   15     -1.45      0.00
   -8   11   15     -0.11      0.00
   -7   11   15      2.68      0.00
   -6   11   15     -4.08      0.00
   -5   11   15     -1.10      0.00
   -4   11   15      4.26      0.00
   -3   11   15      0.75      0.00
   -2   11   15      1.22      0.00
   -1   11   15      4.62      0.00
    0   11   15     -0.09      0.00
    1   11   15     -2.82      0.00
  -20   12   15      5.33      0.00
  -19   12   15     -5.13      0.00
  -18   12   15     -4.94      0.00
  -17   12   15     -0.12      0.00
  -16   12   15     -2.37      0.00
  -15   12   15     -1.68      0.00
  -14   12   15      0.34      0.00
  -13   12   15      0.01      0.00
  -12   12   15     -0.69      0.00
  -11   12   15     -1.68      0.00
  -10   12   15      0.70      0.00
   -9   12   15      0.70      0.00
   -8   12   15      3.54      0.00
   -7   12   15     -3.16      0.00
   -6   12   15      0.81      0.00
   -5   12   15      0.39      0.00
   -4   12   15     -2.54      0.00
   -3   12   15     -3.39      0.00
   -2   12   15     -1.27      0.00
   -1   12   15     -0.02      0.00
    0   12   15      0.52      0.00
  -20   13   15     -0.97      0.00
  -19   13   15      5.61      0.00
  -18   13   15      4.67      0.00
  -17   13   15      1.55      0.00
  -16   13   15      1.52      0.00
  -15   13   15     -1.16      0.00
  -14   13   15      2.70      0.00
  -13   13   15      2.69      0.00
  -12   13   15     -2.77      0.00
  -11   13   15      2.81      0.00
  -10   13   15      2.62      0.00
   -9   13   15     -1.46      0.00
   -8   13   15     -6.98      0.00
   -7   13   15      1.75      0.00
   -6   13   15      0.30      0.00
   -5   13   15      0.15      0.00
   -4   13   15      1.06      0.00
   -3   13   15      2.74      0.00
   -2   13   15     -1.05      0.00
   -1   13   15     -2.82      0.00
  -20   14   15      0.32      0.00
  -19   14   15     -4.61      0.00
  -18   14   15     -4.93      0.00
  -17   14   15     -0.53      0.00
  -16   14   15     -0.36      0.00
  -15   14   15      0.94      0.00
  -14   14   15     -3.65      0.00
  -13   14   15     -4.49      0.00
  -12   14   15      0.70      0.00
  -11   14   15     -0.52      0.00
  -10   14   15     -1.36      0.00
   -9   14   15      0.17      0.00
   -8   14   15      9.56      0.00
   -7   14   15      0.89      0.00
   -6   14   15     -2.49      0.00
   -5   14   15     -0.26      0.00
   -4   14   15      0.74      0.00
   -3   14   15     -0.60      0.00
   -2   14   15      1.75      0.00
  -19   15   15      5.90      0.00
  -18   15   15      1.13      0.00
  -17   15   15     -3.63      0.00
  -16   15   15      1.17      0.00
  -15   15   15      1.05      0.00
  -14   15   15      4.91      0.00
  -13   15   15      5.26      0.00
  -12   15   15      0.04      0.00
  -11   15   15     -3.27      0.00
  -10   15   15     -2.45      0.00
   -9   15   15      1.12      0.00
   -8   15   15     -5.30      0.00
   -7   15   15     -0.80      0.00
   -6   15   15      0.57      0.00
   -5   15   15      0.83      0.00
   -4   15   15      0.25      0.00
  -18   16   15      2.77      0.00
  -17   16   15      4.89      0.00
  -16   16   15     -2.38      0.00
  -15   16   15     -2.83      0.00
  -14   16   15     -5.04      0.00
  -13   16   15     -3.90      0.00
  -12   16   15      0.06      0.00
  -11   16   15      4.71      0.00
  -10   16   15      4.78      0.00
   -9   16   15     -4.07      0.00
   -8   16   15      0.38      0.00
   -7   16   15      1.57      0.00
   -6   16   15      0.46      0.00
  -17   17   15     -1.50      0.00
  -16   17   15      0.83      0.00
  -15   17   15      3.79      0.00
  -14   17   15      3.52      0.00
  -13   17   15      1.30      0.00
  -12   17   15     -1.37      0.00
  -11   17   15     -1.75      0.00
  -10   17   15     -0.53      0.00
   -9   17   15      2.33      0.00
   -8   17   15     -2.73      0.00
  -15   18   15     -6.33      0.00
  -14   18   15      0.61      0.00
  -13   18   15      3.20      0.00
  -12   18   15     -0.39      0.00
  -11   18   15     -2.60      0.00
    0  -18   16      0.18      0.00
    1  -18   16     -1.28      0.00
    2  -18   16      2.68      0.00
    3  -18   16     -2.06      0.00
    4  -18   16     -1.14      0.00
    5  -18   16      0.75      0.00
    6  -18   16      2.03      0.00
    7  -18   16      0.03      0.00
   -3  -17   16      1.57      0.00
   -2  -17   16     -1.90      0.00
   -1  -17   16      0.74      0.00
    0  -17   16     -0.42      0.00
    1  -17   16      1.97      0.00
    2  -17   16     -2.25      0.00
    3  -17   16      2.49      0.00
    4  -17   16     -0.68      0.00
    5  -17   16     -1.93      0.00
    6  -17   16      1.75      0.00
    7  -17   16      1.32      0.00
    8  -17   16     -0.78      0.00
    9  -17   16      1.56      0.00
   -5  -16   16     -2.76      0.00
   -4  -16   16     -2.98      0.00
   -3  -16   16      2.08      0.00
   -2  -16   16      2.81      0.00
   -1  -16   16     -0.99      0.00
    0  -16   16     -0.49      0.00
    1  -16   16     -3.60      0.00
    2  -16   16      3.15      0.00
    3  -16   16     -0.01      0.00
    4  -16   16     -1.16      0.00
    5  -16   16      0.04      0.00
    6  -16   16     -1.14      0.00
    7  -16   16     -0.74      0.00
    8  -16   16      1.26      0.00
    9  -16   16     -0.69      0.00
   -6  -15   16     -1.40      0.00
   -5  -15   16      6.44      0.00
   -4  -15   16     -0.36      0.00
   -3  -15   16     -5.07      0.00
   -2  -15   16      1.02      0.00
   -1  -15   16      0.01      0.00
    0  -15   16     -0.93      0.00
    1  -15   16      4.62      0.00
    2  -15   16     -2.78      0.00
    3  -15   16      0.14      0.00
    4  -15   16      0.90      0.00
    5  -15   16     -2.06      0.00
    6  -15   16     -1.44      0.00
    7  -15   16     -0.27      0.00
    8  -15   16     -1.44      0.00
    9  -15   16      0.31      0.00
   10  -15   16     -0.79      0.00
   -8  -14   16      0.98      0.00
   -7  -14   16     -2.63      0.00
   -6  -14   16     -0.69      0.00
   -5  -14   16     -1.57      0.00
   -4  -14   16      5.05      0.00
   -3  -14   16      2.41      0.00
   -2  -14   16     -2.08      0.00
   -1  -14   16      1.10      0.00
    0  -14   16      0.33      0.00
    1  -14   16     -3.29      0.00
    2  -14   16      3.16      0.00
    3  -14   16     -0.23      0.00
    4  -14   16      1.05      0.00
    5  -14   16      2.59      0.00
    6  -14   16      2.06      0.00
    7  -14   16      1.78      0.00
    8  -14   16     -0.13      0.00
    9  -14   16     -1.79      0.00
   10  -14   16     -0.44      0.00
   11  -14   16      1.00      0.00
   -9  -13   16     -2.95      0.00
   -8  -13   16     -4.56      0.00
   -7  -13   16      3.30      0.00
   -6  -13   16     -1.76      0.00
   -5  -13   16     -1.99      0.00
   -4  -13   16     -4.23      0.00
   -3  -13   16     -0.93      0.00
   -2  -13   16      0.81      0.00
   -1  -13   16      0.60      0.00
    0  -13   16     -3.10      0.00
    1  -13   16      0.52      0.00
    2  -13   16     -0.65      0.00
    3  -13   16      0.80      0.00
    4  -13   16      1.25      0.00
    5  -13   16     -2.35      0.00
    6  -13   16     -2.93      0.00
    7  -13   16     -1.08      0.00
    8  -13   16      0.82      0.00
    9  -13   16      2.18      0.00
   10  -13   16      2.91      0.00
   11  -13   16     -1.20      0.00
  -10  -12   16      2.07      0.00
   -9  -12   16      4.11      0.00
   -8  -12   16      6.78      0.00
   -7  -12   16     -2.91      0.00
   -6  -12   16      2.41      0.00
   -5  -12   16      2.48      0.00
   -4  -12   16      3.54      0.00
   -3  -12   16     -2.27      0.00
   -2  -12   16      0.06      0.00
   -1  -12   16      1.49      0.00
    0  -12   16      4.50      0.00
    1  -12   16     -2.35      0.00
    2  -12   16     -2.23      0.00
    3  -12   16     -0.50      0.00
    4  -12   16     -2.35      0.00
    5  -12   16      3.04      0.00
    6  -12   16      1.50      0.00
    7  -12   16     -0.57      0.00
    8  -12   16     -0.62      0.00
    9  -12   16     -1.91      0.00
   10  -12   16     -4.65      0.00
   11  -12   16      0.31      0.00
  -11  -11   16     -4.89      0.00
  -10  -11   16     -8.29      0.00
   -9  -11   16     -3.01      0.00
   -8  -11   16     -0.74      0.00
   -7  -11   16      5.92      0.00
   -6  -11   16     -5.67      0.00
   -5  -11   16     -2.27      0.00
   -4  -11   16     -0.69      0.00
   -3  -11   16      4.12      0.00
   -2  -11   16     -4.27      0.00
   -1  -11   16     -0.44      0.00
    0  -11   16      0.86      0.00
    1  -11   16      0.10      0.00
    2  -11   16      0.72      0.00
    3  -11   16     -0.52      0.00
    4  -11   16      0.72      0.00
    5  -11   16     -2.11      0.00
    6  -11   16      0.62      0.00
    7  -11   16      2.98      0.00
    8  -11   16      2.32      0.00
    9  -11   16     -0.28      0.00
   10  -11   16      3.64      0.00
   11  -11   16     -0.53      0.00
  -12  -10   16      0.34      0.00
  -11  -10   16      8.16      0.00
  -10  -10   16      5.24      0.00
   -9  -10   16     -5.37      0.00
   -8  -10   16     -2.20      0.00
   -7  -10   16     -0.57      0.00
   -6  -10   16      6.16      0.00
   -5  -10   16     -4.88      0.00
   -4  -10   16      1.70      0.00
   -3  -10   16     -1.75      0.00
   -2  -10   16      3.08      0.00
   -1  -10   16     -1.13      0.00
    0  -10   16     -0.23      0.00
    1  -10   16      3.31      0.00
    2  -10   16      0.26      0.00
    3  -10   16      1.32      0.00
    4  -10   16     -0.85      0.00
    5  -10   16      1.73      0.00
    6  -10   16     -2.23      0.00
    7  -10   16     -4.37      0.00
    8  -10   16     -2.05      0.00
    9  -10   16      1.14      0.00
   10  -10   16     -2.57      0.00
   11  -10   16      1.45      0.00
  -13   -9   16     -0.80      0.00
  -12   -9   16     -3.92      0.00
  -11   -9   16     -3.02      0.00
  -10   -9   16      2.73      0.00
   -9   -9   16      5.45      0.00
   -8   -9   16     -2.31      0.00
   -7   -9   16      0.72      0.00
   -6   -9   16     -2.14      0.00
   -5   -9   16      5.86      0.00
   -4   -9   16     -3.38      0.00
   -3   -9   16      1.42      0.00
   -2   -9   16     -1.12      0.00
   -1   -9   16     -1.24      0.00
    0   -9   16     -3.78      0.00
    1   -9   16     -1.43      0.00
    2   -9   16      1.74      0.00
    3   -9   16     -2.70      0.00
    4   -9   16      0.03      0.00
    5   -9   16     -0.94      0.00
    6   -9   16      2.81      0.00
    7   -9   16      1.63      0.00
    8   -9   16      4.69      0.00
    9   -9   16      0.04      0.00
   10   -9   16     -1.32      0.00
   11   -9   16     -0.02      0.00
  -14   -8   16     -5.22      0.00
  -13   -8   16      0.66      0.00
  -12   -8   16      2.82      0.00
  -11   -8   16     -1.16      0.00
  -10   -8   16      1.68      0.00
   -9   -8   16     -2.58      0.00
   -8   -8   16     -1.31      0.00
   -7   -8   16     -4.13      0.00
   -6   -8   16      3.26      0.00
   -5   -8   16     -3.66      0.00
   -4   -8   16      1.75      0.00
   -3   -8   16      0.53      0.00
   -2   -8   16      1.70      0.00
   -1   -8   16      1.10      0.00
    0   -8   16      2.44      0.00
    1   -8   16     -0.42      0.00
    2   -8   16     -1.58      0.00
    3   -8   16      5.60      0.00
    4   -8   16      0.01      0.00
    5   -8   16     -1.12      0.00
    6   -8   16     -1.87      0.00
    7   -8   16     -1.73      0.00
    8   -8   16     -5.95      0.00
    9   -8   16      1.45      0.00
   10   -8   16      1.43      0.00
   11   -8   16     -1.40      0.00
  -15   -7   16      3.24      0.00
  -14   -7   16      4.24      0.00
  -13   -7   16     -2.94      0.00
  -12   -7   16     -1.78      0.00
  -11   -7   16      2.01      0.00
  -10   -7   16     -2.29      0.00
   -9   -7   16      3.63      0.00
   -8   -7   16     -0.95      0.00
   -7   -7   16      2.95      0.00
   -6   -7   16     -1.33      0.00
   -5   -7   16      3.49      0.00
   -4   -7   16     -3.93      0.00
   -3   -7   16      0.34      0.00
   -2   -7   16      0.18      0.00
   -1   -7   16     -1.07      0.00
    0   -7   16      0.74      0.00
    1   -7   16     -3.17      0.00
    2   -7   16     -0.35      0.00
    3   -7   16     -4.39      0.00
    4   -7   16      3.17      0.00
    5   -7   16      1.30      0.00
    6   -7   16      1.58      0.00
    7   -7   16      0.92      0.00
    8   -7   16      1.27      0.00
    9   -7   16      3.75      0.00
   10   -7   16      3.10      0.00
   11   -7   16     -4.22      0.00
  -15   -6   16     -0.27      0.00
  -14   -6   16      2.22      0.00
  -13   -6   16      2.26      0.00
  -12   -6   16     -1.41      0.00
  -11   -6   16     -3.71      0.00
  -10   -6   16      0.31      0.00
   -9   -6   16      0.55      0.00
   -8   -6   16      3.51      0.00
   -7   -6   16     -4.11      0.00
   -6   -6   16      0.67      0.00
   -5   -6   16     -0.72      0.00
   -4   -6   16      6.39      0.00
   -3   -6   16     -6.29      0.00
   -2   -6   16     -4.99      0.00
   -1   -6   16      6.40      0.00
    0   -6   16      1.54      0.00
    1   -6   16      3.04      0.00
    2   -6   16     -2.65      0.00
    3   -6   16      2.69      0.00
    4   -6   16     -4.62      0.00
    5   -6   16      0.14      0.00
    6   -6   16     -0.05      0.00
    7   -6   16      1.24      0.00
    8   -6   16     -1.93      0.00
    9   -6   16     -7.98      0.00
   10   -6   16     -2.03      0.00
   11   -6   16      6.75      0.00
  -16   -5   16      0.79      0.00
  -15   -5   16     -3.33      0.00
  -14   -5   16     -3.88      0.00
  -13   -5   16      6.24      0.00
  -12   -5   16      0.77      0.00
  -11   -5   16     -0.90      0.00
  -10   -5   16     -0.50      0.00
   -9   -5   16      1.59      0.00
   -8   -5   16     -3.14      0.00
   -7   -5   16      1.56      0.00
   -6   -5   16     -0.41      0.00
   -5   -5   16     -1.89      0.00
   -4   -5   16     -5.11      0.00
   -3   -5   16      8.11      0.00
   -2   -5   16      6.15      0.00
   -1   -5   16     -8.91      0.00
    0   -5   16     -1.34      0.00
    1   -5   16      0.16      0.00
    2   -5   16      4.83      0.00
    3   -5   16     -2.77      0.00
    4   -5   16      2.26      0.00
    5   -5   16     -2.07      0.00
    6   -5   16      0.33      0.00
    7   -5   16     -1.25      0.00
    8   -5   16      2.56      0.00
    9   -5   16      5.10      0.00
   10   -5   16      1.93      0.00
   11   -5   16     -2.48      0.00
  -16   -4   16     -1.57      0.00
  -15   -4   16      2.17      0.00
  -14   -4   16      2.58      0.00
  -13   -4   16     -8.58      0.00
  -12   -4   16      1.62      0.00
  -11   -4   16      1.92      0.00
  -10   -4   16     -0.61      0.00
   -9   -4   16     -3.93      0.00
   -8   -4   16      6.85      0.00
   -7   -4   16      0.09      0.00
   -6   -4   16     -2.98      0.00
   -5   -4   16      1.63      0.00
   -4   -4   16      3.34      0.00
   -3   -4   16     -2.81      0.00
   -2   -4   16     -6.78      0.00
   -1   -4   16      3.70      0.00
    0   -4   16      1.55      0.00
    1   -4   16      0.75      0.00
    2   -4   16     -6.09      0.00
    3   -4   16      2.83      0.00
    4   -4   16      1.32      0.00
    5   -4   16      2.55      0.00
    6   -4   16     -1.00      0.00
    7   -4   16      2.44      0.00
    8   -4   16     -1.87      0.00
    9   -4   16     -3.78      0.00
   10   -4   16     -2.52      0.00
  -17   -3   16     -0.50      0.00
  -16   -3   16      3.18      0.00
  -15   -3   16      0.38      0.00
  -14   -3   16     -2.36      0.00
  -13   -3   16      6.43      0.00
  -12   -3   16      0.00      0.00
  -11   -3   16     -1.80      0.00
  -10   -3   16     -3.81      0.00
   -9   -3   16      4.67      0.00
   -8   -3   16     -1.23      0.00
   -7   -3   16     -1.85      0.00
   -6   -3   16     -1.36      0.00
   -5   -3   16      3.14      0.00
   -4   -3   16      0.80      0.00
   -3   -3   16     -1.58      0.00
   -2   -3   16      6.10      0.00
   -1   -3   16     -1.65      0.00
    0   -3   16     -2.88      0.00
    1   -3   16     -1.61      0.00
    2   -3   16      7.06      0.00
    3   -3   16     -3.49      0.00
    4   -3   16     -2.76      0.00
    5   -3   16     -1.98      0.00
    6   -3   16      0.51      0.00
    7   -3   16     -1.89      0.00
    8   -3   16      1.27      0.00
    9   -3   16     -0.01      0.00
   10   -3   16      1.44      0.00
  -18   -2   16     -2.36      0.00
  -17   -2   16      0.30      0.00
  -16   -2   16     -2.04      0.00
  -15   -2   16     -3.21      0.00
  -14   -2   16      1.31      0.00
  -13   -2   16     -2.03      0.00
  -12   -2   16      1.96      0.00
  -11   -2   16     -0.55      0.00
  -10   -2   16      5.65      0.00
   -9   -2   16     -5.89      0.00
   -8   -2   16     -4.75      0.00
   -7   -2   16      6.05      0.00
   -6   -2   16      5.67      0.00
   -5   -2   16    -10.66      0.00
   -4   -2   16     -4.63      0.00
   -3   -2   16      6.67      0.00
   -2   -2   16     -2.27      0.00
   -1   -2   16     -1.47      0.00
    0   -2   16      1.67      0.00
    1   -2   16      4.65      0.00
    2   -2   16     -7.91      0.00
    3   -2   16      3.56      0.00
    4   -2   16      2.55      0.00
    5   -2   16      1.25      0.00
    6   -2   16     -0.47      0.00
    7   -2   16      1.14      0.00
    8   -2   16      1.00      0.00
    9   -2   16      2.55      0.00
   10   -2   16     -1.57      0.00
  -18   -1   16      2.87      0.00
  -17   -1   16      0.73      0.00
  -16   -1   16     -0.40      0.00
  -15   -1   16      1.02      0.00
  -14   -1   16     -1.28      0.00
  -13   -1   16     -2.34      0.00
  -12   -1   16     -2.21      0.00
  -11   -1   16      9.18      0.00
  -10   -1   16     -4.02      0.00
   -9   -1   16     -0.77      0.00
   -8   -1   16      2.93      0.00
   -7   -1   16     -1.79      0.00
   -6   -1   16     -2.01      0.00
   -5   -1   16      8.58      0.00
   -4   -1   16      4.03      0.00
   -3   -1   16     -6.96      0.00
   -2   -1   16      0.03      0.00
   -1   -1   16      4.31      0.00
    0   -1   16      1.66      0.00
    1   -1   16     -7.92      0.00
    2   -1   16      5.38      0.00
    3   -1   16     -1.93      0.00
    4   -1   16     -2.04      0.00
    5   -1   16     -2.44      0.00
    6   -1   16      2.44      0.00
    7   -1   16     -0.38      0.00
    8   -1   16     -1.59      0.00
    9   -1   16     -0.51      0.00
  -19    0   16     -2.21      0.00
  -18    0   16     -0.41      0.00
  -17    0   16     -0.10      0.00
  -16    0   16      2.34      0.00
  -15    0   16      0.32      0.00
  -14    0   16      1.28      0.00
  -13    0   16      1.01      0.00
  -12    0   16      2.66      0.00
  -11    0   16    -11.37      0.00
  -10    0   16      1.46      0.00
   -9    0   16      4.16      0.00
   -8    0   16     -1.74      0.00
   -7    0   16     -2.46      0.00
   -6    0   16     -0.79      0.00
   -5    0   16     -1.39      0.00
   -4    0   16     -4.14      0.00
   -3    0   16      2.55      0.00
   -2    0   16      0.86      0.00
   -1    0   16     -1.74      0.00
    0    0   16     -4.26      0.00
    1    0   16      7.66      0.00
    2    0   16     -0.48      0.00
    3    0   16      0.03      0.00
    4    0   16      0.51      0.00
    5    0   16      1.00      0.00
    6    0   16     -3.51      0.00
    7    0   16      0.91      0.00
    8    0   16      0.31      0.00
    9    0   16      0.50      0.00
  -19    1   16      1.23      0.00
  -18    1   16     -1.98      0.00
  -17    1   16      0.85      0.00
  -16    1   16      0.97      0.00
  -15    1   16     -2.88      0.00
  -14    1   16     -0.81      0.00
  -13    1   16      2.37      0.00
  -12    1   16     -4.92      0.00
  -11    1   16      8.09      0.00
  -10    1   16      1.29      0.00
   -9    1   16     -0.09      0.00
   -8    1   16     -0.03      0.00
   -7    1   16      1.60      0.00
   -6    1   16      2.76      0.00
   -5    1   16     -2.93      0.00
   -4    1   16      2.08      0.00
   -3    1   16      0.31      0.00
   -2    1   16      0.75      0.00
   -1    1   16     -3.52      0.00
    0    1   16      3.11      0.00
    1    1   16     -2.53      0.00
    2    1   16     -1.49      0.00
    3    1   16      0.70      0.00
    4    1   16      3.69      0.00
    5    1   16     -0.71      0.00
    6    1   16      0.48      0.00
    7    1   16     -1.37      0.00
    8    1   16     -0.11      0.00
  -19    2   16     -1.03      0.00
  -18    2   16     -1.53      0.00
  -17    2   16     -2.85      0.00
  -16    2   16      1.16      0.00
  -15    2   16      3.34      0.00
  -14    2   16     -1.47      0.00
  -13    2   16     -1.50      0.00
  -12    2   16      3.03      0.00
  -11    2   16     -3.83      0.00
  -10    2   16      0.30      0.00
   -9    2   16     -4.98      0.00
   -8    2   16      0.56      0.00
   -7    2   16      0.62      0.00
   -6    2   16     -1.99      0.00
   -5    2   16      3.62      0.00
   -4    2   16     -0.34      0.00
   -3    2   16      0.15      0.00
   -2    2   16     -2.71      0.00
   -1    2   16      2.78      0.00
    0    2   16     -0.72      0.00
    1    2   16     -0.98      0.00
    2    2   16      0.01      0.00
    3    2   16      1.20      0.00
    4    2   16     -3.54      0.00
    5    2   16      0.18      0.00
    6    2   16     -0.81      0.00
    7    2   16      4.27      0.00
    8    2   16      0.83      0.00
  -20    3   16     -2.43      0.00
  -19    3   16      1.87      0.00
  -18    3   16      1.73      0.00
  -17    3   16      1.09      0.00
  -16    3   16      0.57      0.00
  -15    3   16      0.43      0.00
  -14    3   16     -3.07      0.00
  -13    3   16      0.37      0.00
  -12    3   16     -1.24      0.00
  -11    3   16      0.29      0.00
  -10    3   16     -1.45      0.00
   -9    3   16      7.34      0.00
   -8    3   16      0.19      0.00
   -7    3   16     -4.52      0.00
   -6    3   16      0.87      0.00
   -5    3   16      1.02      0.00
   -4    3   16      1.85      0.00
   -3    3   16     -2.60      0.00
   -2    3   16      3.20      0.00
   -1    3   16      1.43      0.00
    0    3   16     -1.98      0.00
    1    3   16     -0.18      0.00
    2    3   16      0.22      0.00
    3    3   16     -4.00      0.00
    4    3   16      3.99      0.00
    5    3   16      3.15      0.00
    6    3   16     -1.40      0.00
    7    3   16     -6.27      0.00
  -20    4   16      1.81      0.00
  -19    4   16     -0.19      0.00
  -18    4   16     -2.31      0.00
  -17    4   16     -2.09      0.00
  -16    4   16     -2.00      0.00
  -15    4   16      3.19      0.00
  -14    4   16      6.13      0.00
  -13    4   16     -1.24      0.00
  -12    4   16      1.08      0.00
  -11    4   16     -0.59      0.00
  -10    4   16      3.44      0.00
   -9    4   16     -5.30      0.00
   -8    4   16     -3.08      0.00
   -7    4   16      3.13      0.00
   -6    4   16      0.46      0.00
   -5    4   16     -4.18      0.00
   -4    4   16     -5.90      0.00
   -3    4   16      5.56      0.00
   -2    4   16      0.15      0.00
   -1    4   16     -4.33      0.00
    0    4   16      4.12      0.00
    1    4   16      3.05      0.00
    2    4   16     -1.84      0.00
    3    4   16      1.63      0.00
    4    4   16     -2.09      0.00
    5    4   16      0.10      0.00
    6    4   16      2.88      0.00
  -20    5   16     -1.57      0.00
  -19    5   16      2.43      0.00
  -18    5   16      1.94      0.00
  -17    5   16     -0.86      0.00
  -16    5   16     -1.49      0.00
  -15    5   16     -2.67      0.00
  -14    5   16     -3.75      0.00
  -13    5   16     -2.59      0.00
  -12    5   16      1.11      0.00
  -11    5   16      1.16      0.00
  -10    5   16     -3.54      0.00
   -9    5   16      2.88      0.00
   -8    5   16      4.28      0.00
   -7    5   16      2.08      0.00
   -6    5   16     -3.72      0.00
   -5    5   16      2.35      0.00
   -4    5   16      8.41      0.00
   -3    5   16     -6.12      0.00
   -2    5   16     -3.39      0.00
   -1    5   16      4.46      0.00
    0    5   16     -2.98      0.00
    1    5   16     -0.84      0.00
    2    5   16      0.83      0.00
    3    5   16     -4.11      0.00
    4    5   16     -1.76      0.00
    5    5   16     -1.60      0.00
    6    5   16     -1.53      0.00
  -20    6   16      1.09      0.00
  -19    6   16      0.35      0.00
  -18    6   16      0.99      0.00
  -17    6   16      2.81      0.00
  -16    6   16      1.00      0.00
  -15    6   16     -0.04      0.00
  -14    6   16      1.90      0.00
  -13    6   16      4.83      0.00
  -12    6   16     -1.15      0.00
  -11    6   16     -2.72      0.00
  -10    6   16      0.33      0.00
   -9    6   16      2.45      0.00
   -8    6   16     -1.58      0.00
   -7    6   16     -6.02      0.00
   -6    6   16      4.33      0.00
   -5    6   16      0.68      0.00
   -4    6   16     -7.77      0.00
   -3    6   16      2.18      0.00
   -2    6   16      5.63      0.00
   -1    6   16     -2.91      0.00
    0    6   16     -2.02      0.00
    1    6   16      1.78      0.00
    2    6   16      6.27      0.00
    3    6   16      5.47      0.00
    4    6   16     -0.77      0.00
    5    6   16      0.95      0.00
  -21    7   16     -2.44      0.00
  -20    7   16     -5.02      0.00
  -19    7   16     -0.61      0.00
  -18    7   16     -0.02      0.00
  -17    7   16     -3.88      0.00
  -16    7   16     -0.44      0.00
  -15    7   16     -0.90      0.00
  -14    7   16      2.65      0.00
  -13    7   16     -1.34      0.00
  -12    7   16     -1.29      0.00
  -11    7   16      1.51      0.00
  -10    7   16     -0.42      0.00
   -9    7   16     -4.37      0.00
   -8    7   16     -0.06      0.00
   -7    7   16      6.58      0.00
   -6    7   16      0.01      0.00
   -5    7   16     -2.48      0.00
   -4    7   16      3.28      0.00
   -3    7   16      1.86      0.00
   -2    7   16     -4.57      0.00
   -1    7   16     -0.94      0.00
    0    7   16      0.16      0.00
    1    7   16     -1.83      0.00
    2    7   16     -4.65      0.00
    3    7   16     -3.94      0.00
    4    7   16      1.53      0.00
  -21    8   16      1.71      0.00
  -20    8   16      3.54      0.00
  -19    8   16      0.76      0.00
  -18    8   16      1.95      0.00
  -17    8   16      0.73      0.00
  -16    8   16     -0.32      0.00
  -15    8   16      1.17      0.00
  -14    8   16     -4.18      0.00
  -13    8   16     -1.03      0.00
  -12    8   16      2.03      0.00
  -11    8   16      2.05      0.00
  -10    8   16     -2.29      0.00
   -9    8   16      0.50      0.00
   -8    8   16      3.00      0.00
   -7    8   16     -4.93      0.00
   -6    8   16     -4.18      0.00
   -5    8   16      4.22      0.00
   -4    8   16      1.84      0.00
   -3    8   16     -3.06      0.00
   -2    8   16      2.01      0.00
   -1    8   16      5.11      0.00
    0    8   16      0.45      0.00
    1    8   16     -4.72      0.00
    2    8   16      2.43      0.00
    3    8   16      3.99      0.00
  -21    9   16      1.28      0.00
  -20    9   16     -1.32      0.00
  -19    9   16     -3.47      0.00
  -18    9   16     -1.65      0.00
  -17    9   16      3.23      0.00
  -16    9   16      1.11      0.00
  -15    9   16     -0.20      0.00
  -14    9   16      0.83      0.00
  -13    9   16      0.42      0.00
  -12    9   16      0.08      0.00
  -11    9   16     -0.24      0.00
  -10    9   16      4.89      0.00
   -9    9   16     -0.07      0.00
   -8    9   16     -4.64      0.00
   -7    9   16      3.02      0.00
   -6    9   16      2.81      0.00
   -5    9   16     -3.01      0.00
   -4    9   16     -3.92      0.00
   -3    9   16      1.21      0.00
   -2    9   16      2.65      0.00
   -1    9   16     -1.88      0.00
    0    9   16      0.19      0.00
    1    9   16      5.05      0.00
    2    9   16     -0.98      0.00
  -21   10   16     -1.66      0.00
  -20   10   16     -1.36      0.00
  -19   10   16      0.60      0.00
  -18   10   16      0.95      0.00
  -17   10   16     -0.85      0.00
  -16   10   16     -2.15      0.00
  -15   10   16     -0.98      0.00
  -14   10   16      1.27      0.00
  -13   10   16      0.32      0.00
  -12   10   16     -3.20      0.00
  -11   10   16     -1.32      0.00
  -10   10   16      0.13      0.00
   -9   10   16      0.55      0.00
   -8   10   16      0.71      0.00
   -7   10   16     -0.48      0.00
   -6   10   16      1.87      0.00
   -5   10   16     -1.90      0.00
   -4   10   16      1.11      0.00
   -3   10   16     -0.07      0.00
   -2   10   16     -6.20      0.00
   -1   10   16     -1.86      0.00
    0   10   16      2.34      0.00
    1   10   16     -2.64      0.00
    2   10   16     -2.19      0.00
  -20   11   16      0.72      0.00
  -19   11   16      5.23      0.00
  -18   11   16      0.22      0.00
  -17   11   16     -2.45      0.00
  -16   11   16      2.98      0.00
  -15   11   16      1.29      0.00
  -14   11   16     -3.07      0.00
  -13   11   16      0.70      0.00
  -12   11   16      3.70      0.00
  -11   11   16     -1.62      0.00
  -10   11   16     -3.25      0.00
   -9   11   16      0.26      0.00
   -8   11   16      0.77      0.00
   -7   11   16     -0.05      0.00
   -6   11   16     -1.65      0.00
   -5   11   16      5.10      0.00
   -4   11   16      1.78      0.00
   -3   11   16     -0.55      0.00
   -2   11   16      5.56      0.00
   -1   11   16      3.06      0.00
    0   11   16     -3.11      0.00
  -20   12   16     -1.82      0.00
  -19   12   16     -8.55      0.00
  -18   12   16     -0.31      0.00
  -17   12   16      2.67      0.00
  -16   12   16     -2.50      0.00
  -15   12   16      0.36      0.00
  -14   12   16      1.26      0.00
  -13   12   16     -0.40      0.00
  -12   12   16     -0.22      0.00
  -11   12   16     -0.28      0.00
  -10   12   16      2.47      0.00
   -9   12   16      4.07      0.00
   -8   12   16     -0.01      0.00
   -7   12   16     -3.32      0.00
   -6   12   16     -0.17      0.00
   -5   12   16     -2.46      0.00
   -4   12   16     -2.61      0.00
   -3   12   16     -1.45      0.00
   -2   12   16     -1.45      0.00
   -1   12   16     -0.56      0.00
  -20   13   16      2.55      0.00
  -19   13   16      5.27      0.00
  -18   13   16      1.24      0.00
  -17   13   16     -2.30      0.00
  -16   13   16      0.34      0.00
  -15   13   16      0.33      0.00
  -14   13   16      3.14      0.00
  -13   13   16     -1.62      0.00
  -12   13   16     -0.86      0.00
  -11   13   16      2.32      0.00
  -10   13   16     -3.52      0.00
   -9   13   16     -7.14      0.00
   -8   13   16     -0.99      0.00
   -7   13   16      3.75      0.00
   -6   13   16      0.99      0.00
   -5   13   16      0.61      0.00
   -4   13   16      1.96      0.00
   -3   13   16      0.47      0.00
   -2   13   16     -3.17      0.00
  -19   14   16     -3.49      0.00
  -18   14   16     -1.63      0.00
  -17   14   16      2.53      0.00
  -16   14   16     -0.40      0.00
  -15   14   16     -1.01      0.00
  -14   14   16     -5.60      0.00
  -13   14   16     -0.58      0.00
  -12   14   16      2.96      0.00
  -11   14   16      1.35      0.00
  -10   14   16      0.98      0.00
   -9   14   16      7.27      0.00
   -8   14   16      3.65      0.00
   -7   14   16     -4.68      0.00
   -6   14   16     -1.43      0.00
   -5   14   16      2.35      0.00
   -4   14   16      0.61      0.00
   -3   14   16      1.04      0.00
  -19   15   16      1.68      0.00
  -18   15   16     -0.93      0.00
  -17   15   16     -1.55      0.00
  -16   15   16      1.51      0.00
  -15   15   16      2.38      0.00
  -14   15   16      6.68      0.00
  -13   15   16      0.78      0.00
  -12   15   16     -4.49      0.00
  -11   15   16     -4.58      0.00
  -10   15   16      0.95      0.00
   -9   15   16     -2.96      0.00
   -8   15   16     -2.89      0.00
   -7   15   16      0.42      0.00
   -6   15   16     -0.44      0.00
   -5   15   16     -1.62      0.00
  -17   16   16      0.63      0.00
  -16   16   16     -3.66      0.00
  -15   16   16     -3.86      0.00
  -14   16   16     -4.70      0.00
  -13   16   16     -0.37      0.00
  -12   16   16      3.05      0.00
  -11   16   16      7.00      0.00
  -10   16   16     -2.51      0.00
   -9   16   16     -1.60      0.00
   -8   16   16      4.69      0.00
   -7   16   16      4.27      0.00
  -16   17   16      4.14      0.00
  -15   17   16      3.48      0.00
  -14   17   16      2.03      0.00
  -13   17   16     -0.93      0.00
  -12   17   16     -1.90      0.00
  -11   17   16     -3.62      0.00
  -10   17   16      1.05      0.00
   -9   17   16     -2.37      0.00
    1  -18   17      0.29      0.00
    2  -18   17     -0.94      0.00
    3  -18   17     -3.26      0.00
    4  -18   17      0.93      0.00
    5  -18   17      1.58      0.00
   -2  -17   17     -0.59      0.00
   -1  -17   17     -0.01      0.00
    0  -17   17      1.53      0.00
    1  -17   17      1.71      0.00
    2  -17   17      0.01      0.00
    3  -17   17      2.21      0.00
    4  -17   17     -2.36      0.00
    5  -17   17      1.47      0.00
    6  -17   17      0.75      0.00
    7  -17   17      0.68      0.00
   -4  -16   17      3.03      0.00
   -3  -16   17      2.73      0.00
   -2  -16   17     -0.72      0.00
   -1  -16   17     -1.77      0.00
    0  -16   17     -2.92      0.00
    1  -16   17     -2.79      0.00
    2  -16   17      3.88      0.00
    3  -16   17     -3.16      0.00
    4  -16   17      0.67      0.00
    5  -16   17     -0.70      0.00
    6  -16   17      0.20      0.00
    7  -16   17      0.52      0.00
    8  -16   17     -0.20      0.00
   -6  -15   17      0.46      0.00
   -5  -15   17      2.97      0.00
   -4  -15   17     -5.27      0.00
   -3  -15   17      0.49      0.00
   -2  -15   17      0.96      0.00
   -1  -15   17      1.07      0.00
    0  -15   17      4.11      0.00
    1  -15   17      3.12      0.00
    2  -15   17     -4.59      0.00
    3  -15   17      3.41      0.00
    4  -15   17     -2.73      0.00
    5  -15   17     -2.08      0.00
    6  -15   17     -0.79      0.00
    7  -15   17      0.01      0.00
    8  -15   17     -0.17      0.00
    9  -15   17      0.79      0.00
   -7  -14   17     -0.05      0.00
   -6  -14   17      1.24      0.00
   -5  -14   17      0.27      0.00
   -4  -14   17      3.25      0.00
   -3  -14   17     -3.28      0.00
   -2  -14   17      0.08      0.00
   -1  -14   17     -2.07      0.00
    0  -14   17     -2.61      0.00
    1  -14   17     -1.13      0.00
    2  -14   17      2.76      0.00
    3  -14   17     -2.98      0.00
    4  -14   17      3.59      0.00
    5  -14   17      2.00      0.00
    6  -14   17      1.58      0.00
    7  -14   17     -1.58      0.00
    8  -14   17     -0.01      0.00
    9  -14   17     -2.17      0.00
   -9  -13   17     -7.57      0.00
   -8  -13   17     -0.12      0.00
   -7  -13   17      2.23      0.00
   -6  -13   17     -2.22      0.00
   -5  -13   17     -1.08      0.00
   -4  -13   17     -1.56      0.00
   -3  -13   17      3.44      0.00
   -2  -13   17      0.51      0.00
   -1  -13   17      0.59      0.00
    0  -13   17     -0.94      0.00
    1  -13   17      3.27      0.00
    2  -13   17     -0.12      0.00
    3  -13   17      4.47      0.00
    4  -13   17     -2.64      0.00
    5  -13   17     -2.21      0.00
    6  -13   17     -1.89      0.00
    7  -13   17      1.73      0.00
    8  -13   17      0.15      0.00
    9  -13   17      4.37      0.00
   10  -13   17      1.16      0.00
  -10  -12   17      2.21      0.00
   -9  -12   17      8.85      0.00
   -8  -12   17     -0.82      0.00
   -7  -12   17     -4.21      0.00
   -6  -12   17      2.32      0.00
   -5  -12   17      0.69      0.00
   -4  -12   17     -0.63      0.00
   -3  -12   17     -3.16      0.00
   -2  -12   17      2.92      0.00
   -1  -12   17      0.78      0.00
    0  -12   17     -1.60      0.00
    1  -12   17     -6.57      0.00
    2  -12   17      0.78      0.00
    3  -12   17     -4.10      0.00
    4  -12   17      2.78      0.00
    5  -12   17      1.44      0.00
    6  -12   17      1.37      0.00
    7  -12   17     -1.43      0.00
    8  -12   17     -0.67      0.00
    9  -12   17     -5.73      0.00
   10  -12   17     -2.38      0.00
  -11  -11   17    -10.63      0.00
  -10  -11   17     -1.34      0.00
   -9  -11   17     -0.35      0.00
   -8  -11   17      5.67      0.00
   -7  -11   17      0.02      0.00
   -6  -11   17     -4.82      0.00
   -5  -11   17      2.48      0.00
   -4  -11   17      1.84      0.00
   -3  -11   17      0.63      0.00
   -2  -11   17     -3.94      0.00
   -1  -11   17      4.27      0.00
    0  -11   17      0.18      0.00
    1  -11   17      3.59      0.00
    2  -11   17     -1.73      0.00
    3  -11   17      1.04      0.00
    4  -11   17     -2.21      0.00
    5  -11   17      0.65      0.00
    6  -11   17      0.01      0.00
    7  -11   17      3.47      0.00
    8  -11   17     -0.47      0.00
    9  -11   17      4.15      0.00
   10  -11   17      1.67      0.00
  -12  -10   17      5.03      0.00
  -11  -10   17      9.16      0.00
  -10  -10   17     -6.59      0.00
   -9  -10   17     -5.48      0.00
   -8  -10   17     -0.81      0.00
   -7  -10   17      4.50      0.00
   -6  -10   17     -0.54      0.00
   -5  -10   17     -4.06      0.00
   -4  -10   17      2.35      0.00
   -3  -10   17     -2.47      0.00
   -2  -10   17      2.48      0.00
   -1  -10   17     -3.56      0.00
    0  -10   17      4.61      0.00
    1  -10   17     -1.45      0.00
    2  -10   17      2.26      0.00
    3  -10   17     -0.15      0.00
    4  -10   17      1.80      0.00
    5  -10   17     -1.36      0.00
    6  -10   17     -1.69      0.00
    7  -10   17     -3.80      0.00
    8  -10   17      1.15      0.00
    9  -10   17     -2.61      0.00
   10  -10   17      0.68      0.00
  -13   -9   17     -6.35      0.00
  -12   -9   17     -2.25      0.00
  -11   -9   17      0.56      0.00
  -10   -9   17      6.54      0.00
   -9   -9   17     -0.98      0.00
   -8   -9   17     -1.46      0.00
   -7   -9   17      0.59      0.00
   -6   -9   17      2.93      0.00
   -5   -9   17      2.78      0.00
   -4   -9   17     -4.48      0.00
   -3   -9   17      3.25      0.00
   -2   -9   17     -3.97      0.00
   -1   -9   17     -0.39      0.00
    0   -9   17     -5.03      0.00
    1   -9   17      2.91      0.00
    2   -9   17     -2.67      0.00
    3   -9   17     -0.47      0.00
    4   -9   17     -2.92      0.00
    5   -9   17      2.38      0.00
    6   -9   17      0.52      0.00
    7   -9   17      4.71      0.00
    8   -9   17      1.60      0.00
    9   -9   17     -1.65      0.00
   10   -9   17     -1.65      0.00
  -14   -8   17     -1.17      0.00
  -13   -8   17      6.20      0.00
  -12   -8   17     -0.87      0.00
  -11   -8   17      0.87      0.00
  -10   -8   17     -0.77      0.00
   -9   -8   17     -1.20      0.00
   -8   -8   17     -2.84      0.00
   -7   -8   17     -1.79      0.00
   -6   -8   17      1.30      0.00
   -5   -8   17     -3.64      0.00
   -4   -8   17      5.69      0.00
   -3   -8   17     -0.70      0.00
   -2   -8   17      3.45      0.00
   -1   -8   17      0.00      0.00
    0   -8   17      3.59      0.00
    1   -8   17     -3.01      0.00
    2   -8   17      4.56      0.00
    3   -8   17      1.27      0.00
    4   -8   17      1.16      0.00
    5   -8   17     -3.47      0.00
    6   -8   17     -0.87      0.00
    7   -8   17     -5.64      0.00
    8   -8   17      0.40      0.00
    9   -8   17      3.03      0.00
   10   -8   17     -1.16      0.00
  -14   -7   17     -1.33      0.00
  -13   -7   17     -4.96      0.00
  -12   -7   17      0.86      0.00
  -11   -7   17     -2.50      0.00
  -10   -7   17      2.26      0.00
   -9   -7   17      1.26      0.00
   -8   -7   17      0.47      0.00
   -7   -7   17      2.72      0.00
   -6   -7   17     -1.76      0.00
   -5   -7   17      1.41      0.00
   -4   -7   17     -5.96      0.00
   -3   -7   17      2.20      0.00
   -2   -7   17     -3.44      0.00
   -1   -7   17      3.07      0.00
    0   -7   17     -4.47      0.00
    1   -7   17     -0.42      0.00
    2   -7   17     -2.88      0.00
    3   -7   17      2.06      0.00
    4   -7   17      0.79      0.00
    5   -7   17      3.15      0.00
    6   -7   17      1.57      0.00
    7   -7   17      0.63      0.00
    8   -7   17      0.78      0.00
    9   -7   17      4.98      0.00
   10   -7   17     -1.01      0.00
  -15   -6   17      3.10      0.00
  -14   -6   17      4.38      0.00
  -13   -6   17     -0.67      0.00
  -12   -6   17     -2.25      0.00
  -11   -6   17     -0.07      0.00
  -10   -6   17      0.91      0.00
   -9   -6   17      3.08      0.00
   -8   -6   17     -0.82      0.00
   -7   -6   17     -3.14      0.00
   -6   -6   17      2.19      0.00
   -5   -6   17      1.77      0.00
   -4   -6   17      2.21      0.00
   -3   -6   17     -8.14      0.00
   -2   -6   17      6.76      0.00
   -1   -6   17     -0.24      0.00
    0   -6   17      3.45      0.00
    1   -6   17     -2.41      0.00
    2   -6   17      0.03      0.00
    3   -6   17     -2.92      0.00
    4   -6   17     -0.43      0.00
    5   -6   17     -0.59      0.00
    6   -6   17     -0.11      0.00
    7   -6   17     -0.78      0.00
    8   -6   17     -6.07      0.00
    9   -6   17     -7.49      0.00
   10   -6   17      4.13      0.00
  -16   -5   17     -2.64      0.00
  -15   -5   17     -5.83      0.00
  -14   -5   17      0.38      0.00
  -13   -5   17      5.07      0.00
  -12   -5   17     -2.78      0.00
  -11   -5   17     -0.11      0.00
  -10   -5   17     -1.00      0.00
   -9   -5   17     -0.85      0.00
   -8   -5   17     -1.18      0.00
   -7   -5   17      0.95      0.00
   -6   -5   17     -2.77      0.00
   -5   -5   17     -0.79      0.00
   -4   -5   17      1.35      0.00
   -3   -5   17      9.10      0.00
   -2   -5   17     -7.95      0.00
   -1   -5   17     -1.30      0.00
    0   -5   17     -0.16      0.00
    1   -5   17      4.74      0.00
    2   -5   17     -0.56      0.00
    3   -5   17      0.44      0.00
    4   -5   17     -1.57      0.00
    5   -5   17      0.26      0.00
    6   -5   17      1.00      0.00
    7   -5   17      2.92      0.00
    8   -5   17      4.72      0.00
    9   -5   17      5.73      0.00
   10   -5   17     -0.63      0.00
  -16   -4   17      1.21      0.00
  -15   -4   17      4.52      0.00
  -14   -4   17     -3.11      0.00
  -13   -4   17     -4.95      0.00
  -12   -4   17      6.19      0.00
  -11   -4   17     -0.55      0.00
  -10   -4   17     -1.06      0.00
   -9   -4   17      1.83      0.00
   -8   -4   17      4.47      0.00
   -7   -4   17     -4.11      0.00
   -6   -4   17      1.45      0.00
   -5   -4   17     -0.12      0.00
   -4   -4   17      1.22      0.00
   -3   -4   17     -6.50      0.00
   -2   -4   17      1.32      0.00
   -1   -4   17      1.19      0.00
    0   -4   17      3.60      0.00
    1   -4   17     -4.20      0.00
    2   -4   17     -0.41      0.00
    3   -4   17      2.45      0.00
    4   -4   17      2.58      0.00
    5   -4   17     -2.32      0.00
    6   -4   17     -0.24      0.00
    7   -4   17     -1.78      0.00
    8   -4   17     -2.91      0.00
    9   -4   17     -4.95      0.00
   10   -4   17     -1.61      0.00
  -17   -3   17      0.11      0.00
  -16   -3   17      0.15      0.00
  -15   -3   17     -2.76      0.00
  -14   -3   17      2.48      0.00
  -13   -3   17      4.63      0.00
  -12   -3   17     -6.50      0.00
  -11   -3   17     -1.67      0.00
  -10   -3   17     -0.16      0.00
   -9   -3   17      2.14      0.00
   -8   -3   17     -3.48      0.00
   -7   -3   17      0.95      0.00
   -6   -3   17      0.35      0.00
   -5   -3   17      3.58      0.00
   -4   -3   17     -3.49      0.00
   -3   -3   17      3.89      0.00
   -2   -3   17      0.46      0.00
   -1   -3   17     -2.41      0.00
    0   -3   17     -5.14      0.00
    1   -3   17      4.90      0.00
    2   -3   17      0.67      0.00
    3   -3   17     -3.88      0.00
    4   -3   17     -1.50      0.00
    5   -3   17      1.73      0.00
    6   -3   17     -0.87      0.00
    7   -3   17      1.29      0.00
    8   -3   17      0.51      0.00
    9   -3   17      3.57      0.00
  -17   -2   17      2.08      0.00
  -16   -2   17     -1.82      0.00
  -15   -2   17      0.44      0.00
  -14   -2   17      0.23      0.00
  -13   -2   17      0.18      0.00
  -12   -2   17      4.15      0.00
  -11   -2   17      0.54      0.00
  -10   -2   17      0.35      0.00
   -9   -2   17     -7.40      0.00
   -8   -2   17      4.70      0.00
   -7   -2   17      6.29      0.00
   -6   -2   17     -4.89      0.00
   -5   -2   17    -10.16      0.00
   -4   -2   17      6.25      0.00
   -3   -2   17      1.64      0.00
   -2   -2   17     -0.48      0.00
   -1   -2   17     -1.46      0.00
    0   -2   17      5.73      0.00
    1   -2   17     -3.90      0.00
    2   -2   17     -0.53      0.00
    3   -2   17      3.89      0.00
    4   -2   17      0.20      0.00
    5   -2   17      0.29      0.00
    6   -2   17      0.69      0.00
    7   -2   17     -0.56      0.00
    8   -2   17      0.83      0.00
    9   -2   17     -2.80      0.00
  -18   -1   17      0.20      0.00
  -17   -1   17     -2.96      0.00
  -16   -1   17     -0.29      0.00
  -15   -1   17     -0.57      0.00
  -14   -1   17     -2.30      0.00
  -13   -1   17     -1.71      0.00
  -12   -1   17      3.00      0.00
  -11   -1   17      4.25      0.00
  -10   -1   17     -5.63      0.00
   -9   -1   17      4.15      0.00
   -8   -1   17     -0.81      0.00
   -7   -1   17     -3.24      0.00
   -6   -1   17      4.30      0.00
   -5   -1   17      8.82      0.00
   -4   -1   17     -5.93      0.00
   -3   -1   17     -3.10      0.00
   -2   -1   17      1.84      0.00
   -1   -1   17      6.08      0.00
    0   -1   17     -8.10      0.00
    1   -1   17     -0.44      0.00
    2   -1   17      2.00      0.00
    3   -1   17     -2.70      0.00
    4   -1   17     -1.54      0.00
    5   -1   17      0.04      0.00
    6   -1   17      1.63      0.00
    7   -1   17     -0.56      0.00
    8   -1   17      0.01      0.00
  -18    0   17      0.82      0.00
  -17    0   17      3.47      0.00
  -16    0   17      0.07      0.00
  -15    0   17      1.10      0.00
  -14    0   17      0.64      0.00
  -13    0   17      0.76      0.00
  -12    0   17     -4.87      0.00
  -11    0   17     -8.34      0.00
  -10    0   17      9.00      0.00
   -9    0   17     -2.33      0.00
   -8    0   17     -3.26      0.00
   -7    0   17     -1.06      0.00
   -6    0   17      1.05      0.00
   -5    0   17     -3.90      0.00
   -4    0   17      0.35      0.00
   -3    0   17      2.12      0.00
   -2    0   17      1.14      0.00
   -1    0   17     -6.83      0.00
    0    0   17      6.17      0.00
    1    0   17      4.67      0.00
    2    0   17     -2.03      0.00
    3    0   17      0.43      0.00
    4    0   17      0.53      0.00
    5    0   17     -1.85      0.00
    6    0   17     -1.10      0.00
    7    0   17      2.37      0.00
    8    0   17      0.07      0.00
  -19    1   17     -1.14      0.00
  -18    1   17     -1.17      0.00
  -17    1   17      1.38      0.00
  -16    1   17     -0.18      0.00
  -15    1   17     -3.11      0.00
  -14    1   17      2.57      0.00
  -13    1   17     -1.38      0.00
  -12    1   17      2.77      0.00
  -11    1   17      9.74      0.00
  -10    1   17     -4.96      0.00
   -9    1   17      2.11      0.00
   -8    1   17      0.13      0.00
   -7    1   17      2.56      0.00
   -6    1   17     -3.62      0.00
   -5    1   17     -0.14      0.00
   -4    1   17      2.70      0.00
   -3    1   17     -0.21      0.00
   -2    1   17     -4.70      0.00
   -1    1   17      3.80      0.00
    0    1   17      0.25      0.00
    1    1   17     -4.88      0.00
    2    1   17     -0.32      0.00
    3    1   17      4.35      0.00
    4    1   17      0.70      0.00
    5    1   17     -2.00      0.00
    6    1   17     -1.02      0.00
    7    1   17     -2.39      0.00
  -19    2   17     -2.93      0.00
  -18    2   17     -1.74      0.00
  -17    2   17      0.05      0.00
  -16    2   17      3.10      0.00
  -15    2   17      0.50      0.00
  -14    2   17     -2.40      0.00
  -13    2   17      0.48      0.00
  -12    2   17     -0.41      0.00
  -11    2   17     -5.51      0.00
  -10    2   17      0.34      0.00
   -9    2   17     -2.00      0.00
   -8    2   17      2.83      0.00
   -7    2   17     -1.43      0.00
   -6    2   17      3.65      0.00
   -5    2   17      1.08      0.00
   -4    2   17     -3.01      0.00
   -3    2   17     -1.60      0.00
   -2    2   17      3.08      0.00
   -1    2   17     -0.15      0.00
    0    2   17     -1.74      0.00
    1    2   17      0.45      0.00
    2    2   17      1.75      0.00
    3    2   17     -2.47      0.00
    4    2   17      0.08      0.00
    5    2   17      1.43      0.00
    6    2   17      2.38      0.00
    7    2   17      3.35      0.00
  -20    3   17     -0.52      0.00
  -19    3   17      3.07      0.00
  -18    3   17      0.07      0.00
  -17    3   17     -0.59      0.00
  -16    3   17      0.69      0.00
  -15    3   17     -3.42      0.00
  -14    3   17     -1.22      0.00
  -13    3   17      1.51      0.00
  -12    3   17     -2.19      0.00
  -11    3   17      2.55      0.00
  -10    3   17      0.83      0.00
   -9    3   17      3.36      0.00
   -8    3   17     -4.33      0.00
   -7    3   17     -0.18      0.00
   -6    3   17      0.04      0.00
   -5    3   17      1.40      0.00
   -4    3   17      2.30      0.00
   -3    3   17     -0.29      0.00
   -2    3   17      0.19      0.00
   -1    3   17     -1.77      0.00
    0    3   17     -0.92      0.00
    1    3   17      2.49      0.00
    2    3   17     -4.51      0.00
    3    3   17     -0.90      0.00
    4    3   17      4.55      0.00
    5    3   17     -0.49      0.00
    6    3   17     -5.66      0.00
  -20    4   17      2.88      0.00
  -19    4   17     -1.81      0.00
  -18    4   17     -1.18      0.00
  -17    4   17     -1.54      0.00
  -16    4   17      1.63      0.00
  -15    4   17      8.13      0.00
  -14    4   17      0.61      0.00
  -13    4   17     -1.83      0.00
  -12    4   17      2.05      0.00
  -11    4   17     -0.80      0.00
  -10    4   17      0.75      0.00
   -9    4   17     -6.15      0.00
   -8    4   17      2.40      0.00
   -7    4   17      0.97      0.00
   -6    4   17     -1.65      0.00
   -5    4   17     -4.53      0.00
   -4    4   17     -0.09      0.00
   -3    4   17      5.97      0.00
   -2    4   17     -3.35      0.00
   -1    4   17      0.76      0.00
    0    4   17      4.22      0.00
    1    4   17     -1.78      0.00
    2    4   17      2.38      0.00
    3    4   17      1.63      0.00
    4    4   17     -2.65      0.00
    5    4   17      2.27      0.00
    6    4   17      3.17      0.00
  -20    5   17     -1.22      0.00
  -19    5   17      2.97      0.00
  -18    5   17     -0.62      0.00
  -17    5   17     -1.92      0.00
  -16    5   17     -2.11      0.00
  -15    5   17     -3.93      0.00
  -14    5   17     -2.71      0.00
  -13    5   17      1.50      0.00
  -12    5   17     -0.19      0.00
  -11    5   17     -0.09      0.00
  -10    5   17     -1.16      0.00
   -9    5   17      5.17      0.00
   -8    5   17      1.38      0.00
   -7    5   17     -2.28      0.00
   -6    5   17     -1.10      0.00
   -5    5   17      5.36      0.00
   -4    5   17     -0.46      0.00
   -3    5   17     -7.58      0.00
   -2    5   17      4.31      0.00
   -1    5   17     -0.11      0.00
    0    5   17     -2.67      0.00
    1    5   17      0.19      0.00
    2    5   17     -3.93      0.00
    3    5   17     -4.82      0.00
    4    5   17      0.93      0.00
    5    5   17     -0.20      0.00
  -20    6   17      1.66      0.00
  -19    6   17     -0.66      0.00
  -18    6   17      2.10      0.00
  -17    6   17      1.02      0.00
  -16    6   17     -1.51      0.00
  -15    6   17      0.95      0.00
  -14    6   17      4.57      0.00
  -13    6   17     -0.19      0.00
  -12    6   17     -2.00      0.00
  -11    6   17     -1.48      0.00
  -10    6   17      4.29      0.00
   -9    6   17     -0.17      0.00
   -8    6   17     -4.10      0.00
   -7    6   17      0.86      0.00
   -6    6   17      2.79      0.00
   -5    6   17     -3.67      0.00
   -4    6   17     -2.69      0.00
   -3    6   17      6.30      0.00
   -2    6   17     -1.59      0.00
   -1    6   17     -2.08      0.00
    0    6   17      1.48      0.00
    1    6   17      6.33      0.00
    2    6   17      6.13      0.00
    3    6   17      1.21      0.00
    4    6   17     -2.55      0.00
  -20    7   17     -1.96      0.00
  -19    7   17      2.03      0.00
  -18    7   17     -2.43      0.00
  -17    7   17      0.80      0.00
  -16    7   17      1.75      0.00
  -15    7   17      1.85      0.00
  -14    7   17     -0.43      0.00
  -13    7   17     -2.55      0.00
  -12    7   17      0.28      0.00
  -11    7   17      0.47      0.00
  -10    7   17     -4.67      0.00
   -9    7   17     -1.65      0.00
   -8    7   17      4.27      0.00
   -7    7   17      3.92      0.00
   -6    7   17     -2.12      0.00
   -5    7   17     -0.34      0.00
   -4    7   17      4.36      0.00
   -3    7   17     -4.01      0.00
   -2    7   17     -1.47      0.00
   -1    7   17     -0.81      0.00
    0    7   17     -1.68      0.00
    1    7   17     -4.14      0.00
    2    7   17     -3.27      0.00
    3    7   17     -0.52      0.00
  -20    8   17      0.06      0.00
  -19    8   17      0.04      0.00
  -18    8   17      0.29      0.00
  -17    8   17     -2.68      0.00
  -16    8   17     -0.92      0.00
  -15    8   17     -2.69      0.00
  -14    8   17     -1.89      0.00
  -13    8   17      2.88      0.00
  -12    8   17      3.27      0.00
  -11    8   17     -1.51      0.00
  -10    8   17     -0.37      0.00
   -9    8   17      3.07      0.00
   -8    8   17     -2.42      0.00
   -7    8   17     -7.02      0.00
   -6    8   17      1.82      0.00
   -5    8   17      3.78      0.00
   -4    8   17     -2.92      0.00
   -3    8   17      2.14      0.00
   -2    8   17      3.10      0.00
   -1    8   17      2.24      0.00
    0    8   17     -3.37      0.00
    1    8   17      0.76      0.00
    2    8   17      4.10      0.00
  -20    9   17     -1.83      0.00
  -19    9   17     -1.09      0.00
  -18    9   17      4.75      0.00
  -17    9   17      2.68      0.00
  -16    9   17     -0.07      0.00
  -15    9   17     -0.67      0.00
  -14    9   17      0.91      0.00
  -13    9   17     -0.23      0.00
  -12    9   17     -0.85      0.00
  -11    9   17      2.91      0.00
  -10    9   17      1.43      0.00
   -9    9   17     -4.20      0.00
   -8    9   17      0.89      0.00
   -7    9   17      5.52      0.00
   -6    9   17     -0.76      0.00
   -5    9   17     -4.45      0.00
   -4    9   17     -0.28      0.00
   -3    9   17      1.23      0.00
   -2    9   17      1.29      0.00
   -1    9   17     -1.69      0.00
    0    9   17      1.65      0.00
    1    9   17     -0.60      0.00
    2    9   17     -1.90      0.00
  -20   10   17     -0.32      0.00
  -19   10   17     -0.42      0.00
  -18   10   17     -2.43      0.00
  -17   10   17     -0.38      0.00
  -16   10   17     -1.06      0.00
  -15   10   17      1.76      0.00
  -14   10   17      0.34      0.00
  -13   10   17     -1.32      0.00
  -12   10   17     -2.26      0.00
  -11   10   17      1.37      0.00
  -10   10   17     -0.45      0.00
   -9   10   17      1.25      0.00
   -8   10   17     -0.51      0.00
   -7   10   17     -0.74      0.00
   -6   10   17     -1.57      0.00
   -5   10   17      0.63      0.00
   -4   10   17      1.81      0.00
   -3   10   17     -3.35      0.00
   -2   10   17     -3.93      0.00
   -1   10   17      4.13      0.00
    0   10   17      1.15      0.00
    1   10   17     -2.34      0.00
  -20   11   17      5.28      0.00
  -19   11   17      2.05      0.00
  -18   11   17     -3.34      0.00
  -17   11   17     -1.50      0.00
  -16   11   17      3.98      0.00
  -15   11   17     -2.55      0.00
  -14   11   17     -0.94      0.00
  -13   11   17      1.24      0.00
  -12   11   17      0.37      0.00
  -11   11   17     -4.15      0.00
  -10   11   17      1.12      0.00
   -9   11   17     -0.60      0.00
   -8   11   17      1.16      0.00
   -7   11   17      0.17      0.00
   -6   11   17      3.90      0.00
   -5   11   17      1.89      0.00
   -4   11   17     -3.25      0.00
   -3   11   17      1.87      0.00
   -2   11   17      4.19      0.00
   -1   11   17     -3.86      0.00
  -20   12   17     -8.12      0.00
  -19   12   17     -1.45      0.00
  -18   12   17      4.91      0.00
  -17   12   17      1.50      0.00
  -16   12   17     -2.73      0.00
  -15   12   17      2.20      0.00
  -14   12   17     -0.49      0.00
  -13   12   17      1.61      0.00
  -12   12   17     -0.57      0.00
  -11   12   17      2.89      0.00
  -10   12   17      2.72      0.00
   -9   12   17      2.41      0.00
   -8   12   17     -5.15      0.00
   -7   12   17     -2.43      0.00
   -6   12   17     -1.66      0.00
   -5   12   17     -0.67      0.00
   -4   12   17      0.88      0.00
   -3   12   17      0.61      0.00
   -2   12   17     -0.69      0.00
  -19   13   17      0.81      0.00
  -18   13   17     -2.93      0.00
  -17   13   17     -2.25      0.00
  -16   13   17      1.43      0.00
  -15   13   17      2.14      0.00
  -14   13   17      0.83      0.00
  -13   13   17     -3.46      0.00
  -12   13   17      1.57      0.00
  -11   13   17     -4.25      0.00
  -10   13   17     -4.42      0.00
   -9   13   17     -2.23      0.00
   -8   13   17      5.79      0.00
   -7   13   17      2.94      0.00
   -6   13   17      0.57      0.00
   -5   13   17     -0.74      0.00
   -4   13   17     -0.78      0.00
   -3   13   17     -4.35      0.00
  -19   14   17     -0.77      0.00
  -18   14   17      1.53      0.00
  -17   14   17      1.04      0.00
  -16   14   17     -1.60      0.00
  -15   14   17     -4.42      0.00
  -14   14   17     -2.85      0.00
  -13   14   17      4.47      0.00
  -12   14   17      2.34      0.00
  -11   14   17      2.22      0.00
  -10   14   17      1.12      0.00
   -9   14   17      4.23      0.00
   -8   14   17     -5.43      0.00
   -7   14   17     -3.16      0.00
   -6   14   17      2.81      0.00
   -5   14   17      3.88      0.00
  -18   15   17      0.19      0.00
  -17   15   17      0.06      0.00
  -16   15   17      1.74      0.00
  -15   15   17      5.91      0.00
  -14   15   17      2.60      0.00
  -13   15   17     -4.54      0.00
  -12   15   17     -3.23      0.00
  -11   15   17     -0.63      0.00
  -10   15   17      2.38      0.00
   -9   15   17     -3.57      0.00
   -8   15   17      0.77      0.00
   -7   15   17     -1.51      0.00
   -6   15   17     -3.42      0.00
  -17   16   17     -1.66      0.00
  -16   16   17     -3.52      0.00
  -15   16   17     -4.26      0.00
  -14   16   17     -1.17      0.00
  -13   16   17      1.23      0.00
  -12   16   17      4.16      0.00
  -11   16   17      1.73      0.00
  -10   16   17     -5.08      0.00
   -9   16   17      5.35      0.00
   -8   16   17      5.90      0.00
  -13   17   17     -1.46      0.00
   -1  -17   18      0.72      0.00
    0  -17   18      3.36      0.00
    1  -17   18      0.03      0.00
    2  -17   18      1.21      0.00
    3  -17   18      0.05      0.00
    4  -17   18      0.04      0.00
    5  -17   18      0.89      0.00
   -3  -16   18     -1.95      0.00
   -2  -16   18     -2.71      0.00
   -1  -16   18     -2.01      0.00
    0  -16   18     -4.81      0.00
    1  -16   18      2.57      0.00
    2  -16   18      0.14      0.00
    3  -16   18     -2.45      0.00
    4  -16   18      1.48      0.00
    5  -16   18     -0.76      0.00
    6  -16   18      1.15      0.00
    7  -16   18     -0.73      0.00
   -5  -15   18      0.39      0.00
   -4  -15   18     -1.22      0.00
   -3  -15   18      3.18      0.00
   -2  -15   18      1.21      0.00
   -1  -15   18      3.96      0.00
    0  -15   18      5.07      0.00
    1  -15   18     -3.15      0.00
    2  -15   18     -0.75      0.00
    3  -15   18      1.56      0.00
    4  -15   18     -4.28      0.00
    5  -15   18      0.78      0.00
    6  -15   18     -0.16      0.00
    7  -15   18      0.27      0.00
    8  -15   18      0.22      0.00
   -7  -14   18      0.43      0.00
   -6  -14   18     -1.29      0.00
   -5  -14   18     -1.54      0.00
   -4  -14   18     -1.39      0.00
   -3  -14   18     -2.05      0.00
   -2  -14   18     -0.88      0.00
   -1  -14   18     -4.42      0.00
    0  -14   18     -1.82      0.00
    1  -14   18      1.26      0.00
    2  -14   18     -0.59      0.00
    3  -14   18     -1.17      0.00
    4  -14   18      4.54      0.00
    5  -14   18      0.23      0.00
    6  -14   18     -1.37      0.00
    7  -14   18     -0.03      0.00
    8  -14   18     -0.10      0.00
   -8  -13   18      5.14      0.00
   -7  -13   18      1.54      0.00
   -6  -13   18      0.08      0.00
   -5  -13   18      0.62      0.00
   -4  -13   18      2.37      0.00
   -3  -13   18      2.30      0.00
   -2  -13   18     -0.40      0.00
   -1  -13   18      1.34      0.00
    0  -13   18      2.60      0.00
    1  -13   18      2.49      0.00
    2  -13   18      2.36      0.00
    3  -13   18      1.42      0.00
    4  -13   18     -4.61      0.00
    5  -13   18     -0.88      0.00
    6  -13   18      0.22      0.00
    7  -13   18      0.19      0.00
    8  -13   18      1.56      0.00
    9  -13   18      4.43      0.00
   -9  -12   18      3.11      0.00
   -8  -12   18     -8.73      0.00
   -7  -12   18     -1.43      0.00
   -6  -12   18      0.69      0.00
   -5  -12   18     -0.42      0.00
   -4  -12   18     -2.63      0.00
   -3  -12   18      0.71      0.00
   -2  -12   18      2.56      0.00
   -1  -12   18     -3.66      0.00
    0  -12   18     -6.71      0.00
    1  -12   18     -1.46      0.00
    2  -12   18     -0.64      0.00
    3  -12   18     -0.96      0.00
    4  -12   18      3.38      0.00
    5  -12   18      0.77      0.00
    6  -12   18      1.71      0.00
    7  -12   18     -1.89      0.00
    8  -12   18     -2.76      0.00
    9  -12   18     -5.14      0.00
  -10  -11   18      4.70      0.00
   -9  -11   18      2.66      0.00
   -8  -11   18      4.75      0.00
   -7  -11   18     -4.47      0.00
   -6  -11   18      2.00      0.00
   -5  -11   18      1.96      0.00
   -4  -11   18      0.75      0.00
   -3  -11   18     -2.26      0.00
   -2  -11   18      1.25      0.00
   -1  -11   18      3.42      0.00
    0  -11   18      3.14      0.00
    1  -11   18      0.56      0.00
    2  -11   18     -2.31      0.00
    3  -11   18      0.22      0.00
    4  -11   18     -0.95      0.00
    5  -11   18     -0.36      0.00
    6  -11   18     -0.18      0.00
    7  -11   18      2.02      0.00
    8  -11   18      1.13      0.00
    9  -11   18      4.14      0.00
  -11  -10   18     -2.07      0.00
  -10  -10   18    -10.67      0.00
   -9  -10   18      0.29      0.00
   -8  -10   18      2.51      0.00
   -7  -10   18      2.56      0.00
   -6  -10   18     -5.92      0.00
   -5  -10   18      1.30      0.00
   -4  -10   18     -1.44      0.00
   -3  -10   18     -0.30      0.00
   -2  -10   18     -1.00      0.00
   -1  -10   18      1.28      0.00
    0  -10   18      0.84      0.00
    1  -10   18     -0.98      0.00
    2  -10   18      3.37      0.00
    3  -10   18      0.28      0.00
    4  -10   18      0.73      0.00
    5  -10   18     -1.11      0.00
    6  -10   18     -1.50      0.00
    7  -10   18     -0.79      0.00
    8  -10   18     -0.25      0.00
    9  -10   18     -1.63      0.00
  -12   -9   18      3.06      0.00
  -11   -9   18      3.00      0.00
  -10   -9   18      2.96      0.00
   -9   -9   18     -3.86      0.00
   -8   -9   18      2.21      0.00
   -7   -9   18      2.07      0.00
   -6   -9   18      4.58      0.00
   -5   -9   18     -3.64      0.00
   -4   -9   18      0.67      0.00
   -3   -9   18      0.43      0.00
   -2   -9   18     -1.41      0.00
   -1   -9   18     -2.43      0.00
    0   -9   18     -2.10      0.00
    1   -9   18      0.86      0.00
    2   -9   18     -2.55      0.00
    3   -9   18     -2.15      0.00
    4   -9   18     -0.50      0.00
    5   -9   18      2.21      0.00
    6   -9   18      2.30      0.00
    7   -9   18      3.28      0.00
    8   -9   18     -2.15      0.00
    9   -9   18     -1.33      0.00
   10   -9   18     -0.27      0.00
  -13   -8   18      2.42      0.00
  -12   -8   18     -2.95      0.00
  -11   -8   18      2.74      0.00
  -10   -8   18     -2.86      0.00
   -9   -8   18     -0.71      0.00
   -8   -8   18     -5.23      0.00
   -7   -8   18      1.21      0.00
   -6   -8   18     -2.78      0.00
   -5   -8   18      2.26      0.00
   -4   -8   18      3.00      0.00
   -3   -8   18     -1.04      0.00
   -2   -8   18      1.62      0.00
   -1   -8   18      1.42      0.00
    0   -8   18      2.41      0.00
    1   -8   18     -0.23      0.00
    2   -8   18      2.24      0.00
    3   -8   18      0.92      0.00
    4   -8   18     -1.78      0.00
    5   -8   18     -3.51      0.00
    6   -8   18     -3.54      0.00
    7   -8   18     -1.26      0.00
    8   -8   18      4.54      0.00
    9   -8   18     -1.79      0.00
  -14   -7   18     -3.74      0.00
  -13   -7   18     -2.36      0.00
  -12   -7   18      0.08      0.00
  -11   -7   18     -0.78      0.00
  -10   -7   18      5.19      0.00
   -9   -7   18     -2.14      0.00
   -8   -7   18      4.95      0.00
   -7   -7   18     -1.29      0.00
   -6   -7   18      0.98      0.00
   -5   -7   18     -1.39      0.00
   -4   -7   18     -2.26      0.00
   -3   -7   18      0.34      0.00
   -2   -7   18     -0.89      0.00
   -1   -7   18      1.14      0.00
    0   -7   18     -5.09      0.00
    1   -7   18      1.76      0.00
    2   -7   18      1.34      0.00
    3   -7   18      2.34      0.00
    4   -7   18      2.16      0.00
    5   -7   18      3.98      0.00
    6   -7   18      0.09      0.00
    7   -7   18     -1.29      0.00
    8   -7   18      3.68      0.00
    9   -7   18      4.20      0.00
  -15   -6   18      4.22      0.00
  -14   -6   18      0.16      0.00
  -13   -6   18     -1.35      0.00
  -12   -6   18     -0.79      0.00
  -11   -6   18      1.79      0.00
  -10   -6   18      0.34      0.00
   -9   -6   18      2.18      0.00
   -8   -6   18     -6.33      0.00
   -7   -6   18     -0.13      0.00
   -6   -6   18      0.86      0.00
   -5   -6   18      0.95      0.00
   -4   -6   18     -3.07      0.00
   -3   -6   18      1.44      0.00
   -2   -6   18      4.20      0.00
   -1   -6   18     -3.66      0.00
    0   -6   18      2.56      0.00
    1   -6   18     -5.07      0.00
    2   -6   18     -1.47      0.00
    3   -6   18     -2.90      0.00
    4   -6   18      0.43      0.00
    5   -6   18     -1.56      0.00
    6   -6   18     -0.46      0.00
    7   -6   18     -3.72      0.00
    8   -6   18     -8.27      0.00
    9   -6   18     -1.34      0.00
  -15   -5   18     -3.69      0.00
  -14   -5   18      5.07      0.00
  -13   -5   18     -0.34      0.00
  -12   -5   18     -1.54      0.00
  -11   -5   18     -2.45      0.00
  -10   -5   18      1.03      0.00
   -9   -5   18     -0.43      0.00
   -8   -5   18      2.96      0.00
   -7   -5   18     -0.06      0.00
   -6   -5   18      0.42      0.00
   -5   -5   18      0.84      0.00
   -4   -5   18      4.09      0.00
   -3   -5   18     -2.39      0.00
   -2   -5   18     -6.18      0.00
   -1   -5   18      5.84      0.00
    0   -5   18      0.18      0.00
    1   -5   18      4.18      0.00
    2   -5   18     -1.59      0.00
    3   -5   18      1.32      0.00
    4   -5   18     -1.36      0.00
    5   -5   18      2.17      0.00
    6   -5   18      3.38      0.00
    7   -5   18      4.47      0.00
    8   -5   18      4.90      0.00
    9   -5   18      2.77      0.00
  -16   -4   18      3.67      0.00
  -15   -4   18      2.36      0.00
  -14   -4   18     -6.16      0.00
  -13   -4   18      3.60      0.00
  -12   -4   18      3.16      0.00
  -11   -4   18     -0.79      0.00
  -10   -4   18     -1.67      0.00
   -9   -4   18      2.99      0.00
   -8   -4   18     -3.27      0.00
   -7   -4   18     -1.25      0.00
   -6   -4   18     -0.27      0.00
   -5   -4   18      0.83      0.00
   -4   -4   18     -0.29      0.00
   -3   -4   18     -2.30      0.00
   -2   -4   18      3.77      0.00
   -1   -4   18     -0.37      0.00
    0   -4   18      1.71      0.00
    1   -4   18     -5.45      0.00
    2   -4   18      2.89      0.00
    3   -4   18      0.62      0.00
    4   -4   18     -1.10      0.00
    5   -4   18     -2.28      0.00
    6   -4   18     -1.07      0.00
    7   -4   18     -2.97      0.00
    8   -4   18     -3.20      0.00
    9   -4   18     -4.67      0.00
  -17   -3   18     -1.21      0.00
  -16   -3   18     -2.17      0.00
  -15   -3   18     -1.50      0.00
  -14   -3   18      5.27      0.00
  -13   -3   18     -4.91      0.00
  -12   -3   18     -4.28      0.00
  -11   -3   18      0.69      0.00
  -10   -3   18      2.30      0.00
   -9   -3   18     -1.38      0.00
   -8   -3   18      1.14      0.00
   -7   -3   18      0.23      0.00
   -6   -3   18      1.49      0.00
   -5   -3   18     -1.69      0.00
   -4   -3   18     -1.83      0.00
   -3   -3   18      3.29      0.00
   -2   -3   18     -3.61      0.00
   -1   -3   18     -2.43      0.00
    0   -3   18     -0.85      0.00
    1   -3   18      6.14      0.00
    2   -3   18     -3.73      0.00
    3   -3   18     -0.65      0.00
    4   -3   18      1.33      0.00
    5   -3   18      0.29      0.00
    6   -3   18     -0.17      0.00
    7   -3   18      1.63      0.00
    8   -3   18      2.48      0.00
  -17   -2   18      1.42      0.00
  -16   -2   18     -0.30      0.00
  -15   -2   18      1.60      0.00
  -14   -2   18      0.22      0.00
  -13   -2   18      3.87      0.00
  -12   -2   18      1.58      0.00
  -11   -2   18     -0.72      0.00
  -10   -2   18     -4.21      0.00
   -9   -2   18      0.85      0.00
   -8   -2   18      5.98      0.00
   -7   -2   18     -0.55      0.00
   -6   -2   18     -9.03      0.00
   -5   -2   18      1.61      0.00
   -4   -2   18      6.07      0.00
   -3   -2   18     -0.83      0.00
   -2   -2   18     -0.18      0.00
   -1   -2   18      0.25      0.00
    0   -2   18      2.01      0.00
    1   -2   18     -4.32      0.00
    2   -2   18      4.11      0.00
    3   -2   18     -0.30      0.00
    4   -2   18      0.29      0.00
    5   -2   18      1.06      0.00
    6   -2   18     -0.38      0.00
    7   -2   18     -0.66      0.00
    8   -2   18     -2.18      0.00
  -18   -1   18     -2.59      0.00
  -17   -1   18     -3.45      0.00
  -16   -1   18      0.58      0.00
  -15   -1   18     -1.99      0.00
  -14   -1   18     -1.57      0.00
  -13   -1   18      0.69      0.00
  -12   -1   18      3.36      0.00
  -11   -1   18     -1.18      0.00
  -10   -1   18     -0.76      0.00
   -9   -1   18      2.25      0.00
   -8   -1   18     -3.57      0.00
   -7   -1   18      0.40      0.00
   -6   -1   18      8.76      0.00
   -5   -1   18     -1.46      0.00
   -4   -1   18     -6.00      0.00
   -3   -1   18      0.41      0.00
   -2   -1   18      4.13      0.00
   -1   -1   18     -0.69      0.00
    0   -1   18     -6.92      0.00
    1   -1   18      4.10      0.00
    2   -1   18     -2.25      0.00
    3   -1   18     -0.63      0.00
    4   -1   18     -1.05      0.00
    5   -1   18      0.50      0.00
    6   -1   18      0.56      0.00
    7   -1   18     -0.20      0.00
    8   -1   18      0.93      0.00
  -18    0   18      2.75      0.00
  -17    0   18      2.46      0.00
  -16    0   18     -1.31      0.00
  -15    0   18      1.71      0.00
  -14    0   18     -0.69      0.00
  -13    0   18     -1.61      0.00
  -12    0   18     -7.76      0.00
  -11    0   18      2.60      0.00
  -10    0   18      3.96      0.00
   -9    0   18     -6.38      0.00
   -8    0   18     -0.07      0.00
   -7    0   18      2.18      0.00
   -6    0   18     -1.15      0.00
   -5    0   18     -1.95      0.00
   -4    0   18      2.22      0.00
   -3    0   18      2.36      0.00
   -2    0   18     -3.45      0.00
   -1    0   18     -0.94      0.00
    0    0   18      9.19      0.00
    1    0   18     -2.48      0.00
    2    0   18     -0.37      0.00
    3    0   18     -0.14      0.00
    4    0   18     -0.09      0.00
    5    0   18     -0.69      0.00
    6    0   18      1.92      0.00
    7    0   18      1.42      0.00
  -19    1   18     -3.03      0.00
  -18    1   18      1.03      0.00
  -17    1   18      0.58      0.00
  -16    1   18     -1.85      0.00
  -15    1   18     -0.68      0.00
  -14    1   18      1.97      0.00
  -13    1   18      1.01      0.00
  -12    1   18      9.02      0.00
  -11    1   18     -0.14      0.00
  -10    1   18     -3.02      0.00
   -9    1   18      2.23      0.00
   -8    1   18     -0.18      0.00
   -7    1   18     -2.23      0.00
   -6    1   18     -4.12      0.00
   -5    1   18      3.47      0.00
   -4    1   18      0.88      0.00
   -3    1   18     -4.24      0.00
   -2    1   18      0.02      0.00
   -1    1   18      5.60      0.00
    0    1   18     -6.78      0.00
    1    1   18     -1.81      0.00
    2    1   18      4.00      0.00
    3    1   18      2.70      0.00
    4    1   18     -3.63      0.00
    5    1   18     -1.60      0.00
    6    1   18     -1.80      0.00
    7    1   18     -1.28      0.00
  -19    2   18     -0.54      0.00
  -18    2   18     -0.61      0.00
  -17    2   18      3.21      0.00
  -16    2   18      0.54      0.00
  -15    2   18     -1.28      0.00
  -14    2   18     -2.20      0.00
  -13    2   18     -0.28      0.00
  -12    2   18     -4.02      0.00
  -11    2   18     -2.62      0.00
  -10    2   18      1.79      0.00
   -9    2   18      2.12      0.00
   -8    2   18      0.90      0.00
   -7    2   18      1.66      0.00
   -6    2   18      4.06      0.00
   -5    2   18     -3.40      0.00
   -4    2   18     -2.83      0.00
   -3    2   18      3.07      0.00
   -2    2   18      2.60      0.00
   -1    2   18     -4.07      0.00
    0    2   18      1.38      0.00
    1    2   18      0.80      0.00
    2    2   18     -0.61      0.00
    3    2   18     -0.91      0.00
    4    2   18      2.56      0.00
    5    2   18      0.72      0.00
    6    2   18      2.52      0.00
  -19    3   18      0.27      0.00
  -18    3   18     -1.56      0.00
  -17    3   18     -0.08      0.00
  -16    3   18     -0.61      0.00
  -15    3   18     -2.42      0.00
  -14    3   18      3.26      0.00
  -13    3   18     -0.99      0.00
  -12    3   18      0.82      0.00
  -11    3   18      2.55      0.00
  -10    3   18     -0.11      0.00
   -9    3   18     -2.21      0.00
   -8    3   18     -1.63      0.00
   -7    3   18      0.18      0.00
   -6    3   18     -1.32      0.00
   -5    3   18      3.22      0.00
   -4    3   18      1.07      0.00
   -3    3   18     -2.69      0.00
   -2    3   18     -1.95      0.00
   -1    3   18     -0.53      0.00
    0    3   18      2.81      0.00
    1    3   18     -0.30      0.00
    2    3   18     -6.37      0.00
    3    3   18      4.44      0.00
    4    3   18      2.65      0.00
    5    3   18     -3.64      0.00
  -20    4   18      2.66      0.00
  -19    4   18     -1.96      0.00
  -18    4   18     -1.00      0.00
  -17    4   18     -0.52      0.00
  -16    4   18      5.65      0.00
  -15    4   18      2.46      0.00
  -14    4   18     -4.17      0.00
  -13    4   18      0.81      0.00
  -12    4   18      0.01      0.00
  -11    4   18     -0.24      0.00
  -10    4   18     -2.84      0.00
   -9    4   18     -0.25      0.00
   -8    4   18      2.24      0.00
   -7    4   18      0.03      0.00
   -6    4   18     -1.12      0.00
   -5    4   18     -1.73      0.00
   -4    4   18      3.77      0.00
   -3    4   18      1.51      0.00
   -2    4   18     -2.78      0.00
   -1    4   18      3.55      0.00
    0    4   18     -0.56      0.00
    1    4   18     -0.74      0.00
    2    4   18      5.62      0.00
    3    4   18     -4.01      0.00
    4    4   18     -1.72      0.00
    5    4   18      2.91      0.00
  -20    5   18     -0.21      0.00
  -19    5   18      2.62      0.00
  -18    5   18     -1.74      0.00
  -17    5   18      0.18      0.00
  -16    5   18     -1.68      0.00
  -15    5   18     -1.96      0.00
  -14    5   18      1.46      0.00
  -13    5   18      0.79      0.00
  -12    5   18     -0.62      0.00
  -11    5   18     -0.07      0.00
  -10    5   18      1.99      0.00
   -9    5   18      2.33      0.00
   -8    5   18     -2.20      0.00
   -7    5   18     -2.59      0.00
   -6    5   18      2.01      0.00
   -5    5   18      0.75      0.00
   -4    5   18     -3.47      0.00
   -3    5   18     -0.57      0.00
   -2    5   18      4.36      0.00
   -1    5   18     -2.78      0.00
    0    5   18     -1.30      0.00
    1    5   18     -0.85      0.00
    2    5   18     -5.63      0.00
    3    5   18      1.85      0.00
    4    5   18      3.29      0.00
  -20    6   18      0.56      0.00
  -19    6   18     -2.06      0.00
  -18    6   18      1.30      0.00
  -17    6   18     -4.29      0.00
  -16    6   18     -0.86      0.00
  -15    6   18      3.13      0.00
  -14    6   18      2.09      0.00
  -13    6   18     -2.89      0.00
  -12    6   18     -0.86      0.00
  -11    6   18      2.58      0.00
  -10    6   18      2.55      0.00
   -9    6   18     -3.90      0.00
   -8    6   18     -0.71      0.00
   -7    6   18      2.69      0.00
   -6    6   18     -0.64      0.00
   -5    6   18     -2.49      0.00
   -4    6   18      0.19      0.00
   -3    6   18      3.93      0.00
   -2    6   18     -4.67      0.00
   -1    6   18      0.33      0.00
    0    6   18      4.84      0.00
    1    6   18      4.35      0.00
    2    6   18      1.10      0.00
    3    6   18     -4.08      0.00
  -20    7   18      1.45      0.00
  -19    7   18      1.96      0.00
  -18    7   18      0.67      0.00
  -17    7   18      5.31      0.00
  -16    7   18      0.52      0.00
  -15    7   18      0.22      0.00
  -14    7   18     -4.28      0.00
  -13    7   18      1.22      0.00
  -12    7   18     -0.10      0.00
  -11    7   18     -2.59      0.00
  -10    7   18     -2.90      0.00
   -9    7   18      3.26      0.00
   -8    7   18      4.79      0.00
   -7    7   18     -0.54      0.00
   -6    7   18     -2.34      0.00
   -5    7   18      2.69      0.00
   -4    7   18      1.11      0.00
   -3    7   18     -6.09      0.00
   -2    7   18      2.53      0.00
   -1    7   18     -0.65      0.00
    0    7   18     -2.09      0.00
    1    7   18     -1.91      0.00
    2    7   18     -0.26      0.00
  -20    8   18     -0.86      0.00
  -19    8   18     -1.61      0.00
  -18    8   18     -2.89      0.00
  -17    8   18     -3.68      0.00
  -16    8   18     -0.07      0.00
  -15    8   18     -1.89      0.00
  -14    8   18      3.05      0.00
  -13    8   18      2.44      0.00
  -12    8   18      0.00      0.00
  -11    8   18     -2.18      0.00
  -10    8   18      2.76      0.00
   -9    8   18     -0.61      0.00
   -8    8   18     -6.12      0.00
   -7    8   18     -1.00      0.00
   -6    8   18      4.14      0.00
   -5    8   18      0.24      0.00
   -4    8   18     -0.30      0.00
   -3    8   18      4.62      0.00
   -2    8   18     -1.68      0.00
   -1    8   18     -1.29      0.00
    0    8   18     -0.69      0.00
    1    8   18      3.43      0.00
    2    8   18      3.08      0.00
  -20    9   18     -0.30      0.00
  -19    9   18      5.29      0.00
  -18    9   18      2.80      0.00
  -17    9   18      0.17      0.00
  -16    9   18     -2.24      0.00
  -15    9   18      0.77      0.00
  -14    9   18      0.90      0.00
  -13    9   18     -1.20      0.00
  -12    9   18      1.07      0.00
  -11    9   18      1.98      0.00
  -10    9   18     -2.32      0.00
   -9    9   18     -1.41      0.00
   -8    9   18      4.40      0.00
   -7    9   18      2.35      0.00
   -6    9   18     -4.52      0.00
   -5    9   18     -4.14      0.00
   -4    9   18      1.35      0.00
   -3    9   18      1.10      0.00
   -2    9   18      1.28      0.00
   -1    9   18     -2.96      0.00
    0    9   18     -1.50      0.00
    1    9   18     -1.89      0.00
  -20   10   18     -1.77      0.00
  -19   10   18     -3.70      0.00
  -18   10   18      1.43      0.00
  -17   10   18      0.41      0.00
  -16   10   18      1.17      0.00
  -15   10   18      0.32      0.00
  -14   10   18     -1.45      0.00
  -13   10   18     -0.74      0.00
  -12   10   18      0.58      0.00
  -11   10   18      0.28      0.00
  -10   10   18     -1.08      0.00
   -9   10   18      1.79      0.00
   -8   10   18     -1.41      0.00
   -7   10   18     -2.37      0.00
   -6   10   18      1.31      0.00
   -5   10   18      4.69      0.00
   -4   10   18     -1.49      0.00
   -3   10   18     -2.58      0.00
   -2   10   18      2.67      0.00
   -1   10   18      5.90      0.00
    0   10   18     -0.83      0.00
  -20   11   18      3.65      0.00
  -19   11   18     -2.01      0.00
  -18   11   18     -5.25      0.00
  -17   11   18      3.42      0.00
  -16   11   18      0.47      0.00
  -15   11   18     -2.75      0.00
  -14   11   18      0.51      0.00
  -13   11   18     -0.70      0.00
  -12   11   18     -1.06      0.00
  -11   11   18     -0.13      0.00
  -10   11   18      2.02      0.00
   -9   11   18     -0.82      0.00
   -8   11   18      1.75      0.00
   -7   11   18      3.00      0.00
   -6   11   18      1.51      0.00
   -5   11   18     -5.42      0.00
   -4   11   18     -1.64      0.00
   -3   11   18      2.06      0.00
   -2   11   18     -2.60      0.00
  -19   12   18      4.05      0.00
  -18   12   18      5.03      0.00
  -17   12   18     -3.30      0.00
  -16   12   18      0.60      0.00
  -15   12   18      0.88      0.00
  -14   12   18      0.45      0.00
  -13   12   18      1.82      0.00
  -12   12   18     -0.82      0.00
  -11   12   18      2.83      0.00
  -10   12   18     -0.62      0.00
   -9   12   18     -3.55      0.00
   -8   12   18     -4.95      0.00
   -7   12   18     -1.68      0.00
   -6   12   18      0.15      0.00
   -5   12   18      3.08      0.00
   -4   12   18      2.88      0.00
   -3   12   18      0.74      0.00
  -19   13   18     -1.73      0.00
  -18   13   18     -4.40      0.00
  -17   13   18      1.24      0.00
  -16   13   18      1.76      0.00
  -15   13   18      2.27      0.00
  -14   13   18     -2.26      0.00
  -13   13   18     -1.15      0.00
  -12   13   18     -0.42      0.00
  -11   13   18     -3.52      0.00
  -10   13   18      2.59      0.00
   -9   13   18      5.07      0.00
   -8   13   18      5.46      0.00
   -7   13   18      1.98      0.00
   -6   13   18     -1.71      0.00
   -5   13   18     -2.59      0.00
   -4   13   18     -4.73      0.00
  -18   14   18      1.93      0.00
  -17   14   18     -1.97      0.00
  -16   14   18     -2.45      0.00
  -15   14   18     -4.43      0.00
  -14   14   18      2.78      0.00
  -13   14   18      3.06      0.00
  -12   14   18     -0.29      0.00
  -11   14   18     -1.66      0.00
  -10   14   18     -1.90      0.00
   -9   14   18     -3.82      0.00
   -8   14   18     -5.66      0.00
   -7   14   18      0.78      0.00
   -6   14   18      5.51      0.00
  -17   15   18      1.07      0.00
  -16   15   18      3.18      0.00
  -15   15   18      4.79      0.00
  -14   15   18     -3.02      0.00
  -13   15   18     -1.30      0.00
  -12   15   18      1.45      0.00
  -11   15   18      3.81      0.00
  -10   15   18      1.45      0.00
   -9   15   18      0.34      0.00
   -8   15   18     -0.09      0.00
  -15   16   18     -2.73      0.00
  -14   16   18     -0.11      0.00
  -13   16   18      0.08      0.00
  -12   16   18      1.75      0.00
  -11   16   18     -4.32      0.00
   -2  -16   19     -1.28      0.00
   -1  -16   19     -2.46      0.00
    0  -16   19     -0.06      0.00
    1  -16   19      3.55      0.00
    2  -16   19     -3.65      0.00
    3  -16   19      1.12      0.00
    4  -16   19     -0.17      0.00
    5  -16   19     -0.05      0.00
   -4  -15   19      1.79      0.00
   -3  -15   19      1.14      0.00
   -2  -15   19      1.55      0.00
   -1  -15   19      3.65      0.00
    0  -15   19     -0.38      0.00
    1  -15   19     -4.70      0.00
    2  -15   19      2.74      0.00
    3  -15   19     -2.61      0.00
    4  -15   19     -0.02      0.00
    5  -15   19      1.47      0.00
    6  -15   19     -0.49      0.00
   -6  -14   19     -3.60      0.00
   -5  -14   19     -1.59      0.00
   -4  -14   19     -0.10      0.00
   -3  -14   19      0.84      0.00
   -2  -14   19     -2.57      0.00
   -1  -14   19     -2.40      0.00
    0  -14   19      0.30      0.00
    1  -14   19      2.26      0.00
    2  -14   19     -2.52      0.00
    3  -14   19      2.43      0.00
    4  -14   19      2.26      0.00
    5  -14   19     -2.53      0.00
    6  -14   19     -0.16      0.00
    7  -14   19      1.54      0.00
   -8  -13   19      5.76      0.00
   -7  -13   19      1.00      0.00
   -6  -13   19      0.94      0.00
   -5  -13   19      0.80      0.00
   -4  -13   19      0.70      0.00
   -3  -13   19     -1.72      0.00
   -2  -13   19      0.01      0.00
   -1  -13   19      2.92      0.00
    0  -13   19      2.59      0.00
    1  -13   19      0.59      0.00
    2  -13   19      2.04      0.00
    3  -13   19     -2.84      0.00
    4  -13   19     -2.54      0.00
    5  -13   19      0.64      0.00
    6  -13   19     -0.21      0.00
    7  -13   19     -0.33      0.00
    8  -13   19      4.22      0.00
   -9  -12   19     -5.68      0.00
   -8  -12   19     -6.13      0.00
   -7  -12   19      1.64      0.00
   -6  -12   19      0.57      0.00
   -5  -12   19     -0.06      0.00
   -4  -12   19      0.10      0.00
   -3  -12   19      3.46      0.00
   -2  -12   19     -0.91      0.00
   -1  -12   19     -7.42      0.00
    0  -12   19     -2.14      0.00
    1  -12   19      1.71      0.00
    2  -12   19     -1.65      0.00
    3  -12   19      1.45      0.00
    4  -12   19      1.11      0.00
    5  -12   19      3.26      0.00
    6  -12   19     -0.95      0.00
    7  -12   19     -2.00      0.00
    8  -12   19     -3.61      0.00
  -10  -11   19      3.69      0.00
   -9  -11   19      3.38      0.00
   -8  -11   19     -0.91      0.00
   -7  -11   19     -1.24      0.00
   -6  -11   19      2.74      0.00
   -5  -11   19     -1.70      0.00
   -4  -11   19     -1.25      0.00
   -3  -11   19     -0.27      0.00
   -2  -11   19      1.89      0.00
   -1  -11   19      4.10      0.00
    0  -11   19      1.64      0.00
    1  -11   19     -3.55      0.00
    2  -11   19      0.57      0.00
    3  -11   19     -0.17      0.00
    4  -11   19     -0.48      0.00
    5  -11   19     -3.03      0.00
    6  -11   19      2.01      0.00
    7  -11   19      0.61      0.00
    8  -11   19      2.50      0.00
  -11  -10   19     -8.51      0.00
  -10  -10   19     -2.51      0.00
   -9  -10   19      3.73      0.00
   -8  -10   19      1.90      0.00
   -7  -10   19     -3.32      0.00
   -6  -10   19     -2.41      0.00
   -5  -10   19      2.06      0.00
   -4  -10   19     -1.74      0.00
   -3  -10   19     -0.83      0.00
   -2  -10   19      1.10      0.00
   -1  -10   19      1.27      0.00
    0  -10   19     -2.34      0.00
    1  -10   19      3.88      0.00
    2  -10   19      0.71      0.00
    3  -10   19      1.41      0.00
    4  -10   19     -0.98      0.00
    5  -10   19      0.29      0.00
    6  -10   19     -0.98      0.00
    7  -10   19      0.64      0.00
    8  -10   19     -1.81      0.00
  -12   -9   19      3.00      0.00
  -11   -9   19      2.02      0.00
  -10   -9   19     -1.13      0.00
   -9   -9   19     -0.27      0.00
   -8   -9   19      4.17      0.00
   -7   -9   19      2.56      0.00
   -6   -9   19     -0.29      0.00
   -5   -9   19     -2.45      0.00
   -4   -9   19      2.76      0.00
   -3   -9   19      0.63      0.00
   -2   -9   19     -1.56      0.00
   -1   -9   19     -4.74      0.00
    0   -9   19      0.24      0.00
    1   -9   19     -1.61      0.00
    2   -9   19     -1.26      0.00
    3   -9   19     -3.09      0.00
    4   -9   19      3.59      0.00
    5   -9   19      1.13      0.00
    6   -9   19      3.03      0.00
    7   -9   19     -1.63      0.00
    8   -9   19     -1.09      0.00
    9   -9   19      0.20      0.00
  -13   -8   19     -2.38      0.00
  -12   -8   19      0.70      0.00
  -11   -8   19     -0.51      0.00
  -10   -8   19     -3.41      0.00
   -9   -8   19     -2.85      0.00
   -8   -8   19     -3.08      0.00
   -7   -8   19      1.11      0.00
   -6   -8   19     -1.82      0.00
   -5   -8   19      3.79      0.00
   -4   -8   19     -2.26      0.00
   -3   -8   19     -0.73      0.00
   -2   -8   19      1.71      0.00
   -1   -8   19      4.52      0.00
    0   -8   19      0.97      0.00
    1   -8   19     -0.42      0.00
    2   -8   19     -0.20      0.00
    3   -8   19      1.43      0.00
    4   -8   19     -5.87      0.00
    5   -8   19     -2.26      0.00
    6   -8   19     -2.24      0.00
    7   -8   19      5.12      0.00
    8   -8   19     -1.02      0.00
    9   -8   19     -4.50      0.00
  -14   -7   19     -2.17      0.00
  -13   -7   19     -0.20      0.00
  -12   -7   19      1.01      0.00
  -11   -7   19      4.16      0.00
  -10   -7   19      1.01      0.00
   -9   -7   19      0.66      0.00
   -8   -7   19      3.72      0.00
   -7   -7   19     -1.79      0.00
   -6   -7   19      4.03      0.00
   -5   -7   19     -2.44      0.00
   -4   -7   19     -0.05      0.00
   -3   -7   19     -1.13      0.00
   -2   -7   19      1.42      0.00
   -1   -7   19     -2.97      0.00
    0   -7   19     -0.91      0.00
    1   -7   19      3.64      0.00
    2   -7   19      3.21      0.00
    3   -7   19      0.05      0.00
    4   -7   19      5.55      0.00
    5   -7   19     -0.24      0.00
    6   -7   19     -1.62      0.00
    7   -7   19      0.32      0.00
    8   -7   19      6.51      0.00
  -14   -6   19     -2.95      0.00
  -13   -6   19      0.09      0.00
  -12   -6   19     -0.51      0.00
  -11   -6   19      1.05      0.00
  -10   -6   19      0.22      0.00
   -9   -6   19     -3.56      0.00
   -8   -6   19     -6.24      0.00
   -7   -6   19      1.46      0.00
   -6   -6   19     -2.00      0.00
   -5   -6   19     -0.48      0.00
   -4   -6   19      0.74      0.00
   -3   -6   19      4.71      0.00
   -2   -6   19     -3.97      0.00
   -1   -6   19     -0.47      0.00
    0   -6   19     -1.28      0.00
    1   -6   19     -3.71      0.00
    2   -6   19     -3.09      0.00
    3   -6   19      0.68      0.00
    4   -6   19     -1.52      0.00
    5   -6   19      0.38      0.00
    6   -6   19     -2.61      0.00
    7   -6   19     -5.49      0.00
    8   -6   19     -4.30      0.00
  -15   -5   19      1.29      0.00
  -14   -5   19      4.74      0.00
  -13   -5   19     -3.37      0.00
  -12   -5   19     -1.32      0.00
  -11   -5   19     -0.94      0.00
  -10   -5   19      3.98      0.00
   -9   -5   19      2.25      0.00
   -8   -5   19      4.52      0.00
   -7   -5   19      0.20      0.00
   -6   -5   19      1.04      0.00
   -5   -5   19      0.03      0.00
   -4   -5   19     -0.70      0.00
   -3   -5   19     -6.58      0.00
   -2   -5   19      4.59      0.00
   -1   -5   19      3.10      0.00
    0   -5   19      0.70      0.00
    1   -5   19      0.98      0.00
    2   -5   19      1.20      0.00
    3   -5   19     -0.82      0.00
    4   -5   19      0.77      0.00
    5   -5   19      2.59      0.00
    6   -5   19      4.74      0.00
    7   -5   19      2.07      0.00
    8   -5   19      3.04      0.00
  -16   -4   19      3.12      0.00
  -15   -4   19     -1.80      0.00
  -14   -4   19     -2.92      0.00
  -13   -4   19      6.62      0.00
  -12   -4   19     -1.71      0.00
  -11   -4   19     -1.40      0.00
  -10   -4   19     -1.99      0.00
   -9   -4   19     -0.49      0.00
   -8   -4   19     -4.01      0.00
   -7   -4   19      0.41      0.00
   -6   -4   19      0.40      0.00
   -5   -4   19      4.05      0.00
   -4   -4   19     -1.70      0.00
   -3   -4   19      2.56      0.00
   -2   -4   19     -0.01      0.00
   -1   -4   19      0.20      0.00
    0   -4   19     -2.46      0.00
    1   -4   19     -1.47      0.00
    2   -4   19      1.30      0.00
    3   -4   19     -1.09      0.00
    4   -4   19     -1.73      0.00
    5   -4   19     -0.05      0.00
    6   -4   19     -2.90      0.00
    7   -4   19     -0.80      0.00
    8   -4   19     -4.14      0.00
  -16   -3   19     -2.21      0.00
  -15   -3   19      1.98      0.00
  -14   -3   19      0.43      0.00
  -13   -3   19     -7.27      0.00
  -12   -3   19      2.38      0.00
  -11   -3   19      0.66      0.00
  -10   -3   19      1.30      0.00
   -9   -3   19     -0.37      0.00
   -8   -3   19      1.45      0.00
   -7   -3   19     -1.37      0.00
   -6   -3   19      0.13      0.00
   -5   -3   19     -4.84      0.00
   -4   -3   19      2.73      0.00
   -3   -3   19     -1.12      0.00
   -2   -3   19     -2.30      0.00
   -1   -3   19     -0.34      0.00
    0   -3   19      4.07      0.00
    1   -3   19      1.08      0.00
    2   -3   19     -2.38      0.00
    3   -3   19      1.36      0.00
    4   -3   19      0.50      0.00
    5   -3   19     -1.69      0.00
    6   -3   19      1.54      0.00
    7   -3   19      0.93      0.00
  -17   -2   19     -0.08      0.00
  -16   -2   19      0.59      0.00
  -15   -2   19      1.69      0.00
  -14   -2   19      1.10      0.00
  -13   -2   19      3.84      0.00
  -12   -2   19     -1.39      0.00
  -11   -2   19     -1.07      0.00
  -10   -2   19     -0.77      0.00
   -9   -2   19      4.41      0.00
   -8   -2   19      0.99      0.00
   -7   -2   19     -4.98      0.00
   -6   -2   19     -3.11      0.00
   -5   -2   19      6.95      0.00
   -4   -2   19     -0.73      0.00
   -3   -2   19     -0.23      0.00
   -2   -2   19     -1.56      0.00
   -1   -2   19      0.98      0.00
    0   -2   19     -1.35      0.00
    1   -2   19      0.33      0.00
    2   -2   19      1.80      0.00
    3   -2   19     -0.90      0.00
    4   -2   19      1.23      0.00
    5   -2   19      1.02      0.00
    6   -2   19     -0.84      0.00
    7   -2   19     -0.75      0.00
  -17   -1   19     -0.12      0.00
  -16   -1   19      0.25      0.00
  -15   -1   19     -2.68      0.00
  -14   -1   19      0.76      0.00
  -13   -1   19     -0.64      0.00
  -12   -1   19      1.26      0.00
  -11   -1   19     -2.28      0.00
  -10   -1   19      1.39      0.00
   -9   -1   19     -0.89      0.00
   -8   -1   19     -2.01      0.00
   -7   -1   19      6.23      0.00
   -6   -1   19      3.18      0.00
   -5   -1   19     -6.06      0.00
   -4   -1   19      0.20      0.00
   -3   -1   19      1.22      0.00
   -2   -1   19      3.06      0.00
   -1   -1   19     -5.22      0.00
    0   -1   19     -0.04      0.00
    1   -1   19      0.94      0.00
    2   -1   19     -1.63      0.00
    3   -1   19      0.22      0.00
    4   -1   19     -1.56      0.00
    5   -1   19      0.20      0.00
    6   -1   19      0.37      0.00
    7   -1   19     -0.11      0.00
  -18    0   19      2.35      0.00
  -17    0   19     -1.72      0.00
  -16    0   19      0.48      0.00
  -15    0   19      1.14      0.00
  -14    0   19     -1.26      0.00
  -13    0   19     -2.52      0.00
  -12    0   19     -2.36      0.00
  -11    0   19      5.64      0.00
  -10    0   19     -4.67      0.00
   -9    0   19     -2.04      0.00
   -8    0   19      3.91      0.00
   -7    0   19      0.03      0.00
   -6    0   19     -2.57      0.00
   -5    0   19      0.77      0.00
   -4    0   19      1.45      0.00
   -3    0   19      0.42      0.00
   -2    0   19     -3.85      0.00
   -1    0   19      6.05      0.00
    0    0   19      1.80      0.00
    1    0   19     -2.83      0.00
    2    0   19      0.25      0.00
    3    0   19     -0.07      0.00
    4    0   19      1.06      0.00
    5    0   19      0.79      0.00
    6    0   19      0.96      0.00
  -18    1   19      2.43      0.00
  -17    1   19     -0.78      0.00
  -16    1   19     -2.33      0.00
  -15    1   19      0.65      0.00
  -14    1   19      2.57      0.00
  -13    1   19      4.25      0.00
  -12    1   19      3.40      0.00
  -11    1   19     -4.74      0.00
  -10    1   19      1.20      0.00
   -9    1   19     -0.62      0.00
   -8    1   19     -2.41      0.00
   -7    1   19     -4.02      0.00
   -6    1   19      1.01      0.00
   -5    1   19      3.09      0.00
   -4    1   19     -1.65      0.00
   -3    1   19     -3.30      0.00
   -2    1   19      5.63      0.00
   -1    1   19     -2.45      0.00
    0    1   19     -6.12      0.00
    1    1   19      4.67      0.00
    2    1   19      3.27      0.00
    3    1   19     -2.89      0.00
    4    1   19     -2.26      0.00
    5    1   19     -0.16      0.00
    6    1   19     -0.30      0.00
  -19    2   19     -0.74      0.00
  -18    2   19      0.73      0.00
  -17    2   19      1.55      0.00
  -16    2   19     -1.19      0.00
  -15    2   19     -1.46      0.00
  -14    2   19     -2.72      0.00
  -13    2   19      0.11      0.00
  -12    2   19     -4.33      0.00
  -11    2   19      2.44      0.00
  -10    2   19      3.67      0.00
   -9    2   19      1.84      0.00
   -8    2   19      0.69      0.00
   -7    2   19      3.24      0.00
   -6    2   19     -0.13      0.00
   -5    2   19     -4.49      0.00
   -4    2   19      1.14      0.00
   -3    2   19      5.02      0.00
   -2    2   19     -3.14      0.00
   -1    2   19     -1.07      0.00
    0    2   19      2.82      0.00
    1    2   19     -2.04      0.00
    2    2   19      0.06      0.00
    3    2   19      1.45      0.00
    4    2   19     -0.71      0.00
    5    2   19      0.52      0.00
  -19    3   19     -0.67      0.00
  -18    3   19      0.08      0.00
  -17    3   19      1.04      0.00
  -16    3   19     -0.72      0.00
  -15    3   19      1.75      0.00
  -14    3   19      1.91      0.00
  -13    3   19     -2.70      0.00
  -12    3   19      4.23      0.00
  -11    3   19     -1.25      0.00
  -10    3   19     -3.16      0.00
   -9    3   19     -1.83      0.00
   -8    3   19      0.45      0.00
   -7    3   19     -1.50      0.00
   -6    3   19      0.19      0.00
   -5    3   19      3.21      0.00
   -4    3   19     -2.61      0.00
   -3    3   19     -3.39      0.00
   -2    3   19     -0.59      0.00
   -1    3   19      3.43      0.00
    0    3   19      1.78      0.00
    1    3   19     -5.40      0.00
    2    3   19     -0.70      0.00
    3    3   19      6.71      0.00
    4    3   19     -0.08      0.00
    5    3   19     -3.72      0.00
  -19    4   19     -2.67      0.00
  -18    4   19     -1.83      0.00
  -17    4   19      1.91      0.00
  -16    4   19      2.58      0.00
  -15    4   19     -3.70      0.00
  -14    4   19     -1.87      0.00
  -13    4   19      2.56      0.00
  -12    4   19     -1.69      0.00
  -11    4   19     -0.54      0.00
  -10    4   19     -0.54      0.00
   -9    4   19      2.14      0.00
   -8    4   19      0.79      0.00
   -7    4   19      0.34      0.00
   -6    4   19     -0.29      0.00
   -5    4   19      0.08      0.00
   -4    4   19      2.31      0.00
   -3    4   19     -1.48      0.00
   -2    4   19      1.22      0.00
   -1    4   19     -0.46      0.00
    0    4   19     -1.51      0.00
    1    4   19      3.85      0.00
    2    4   19     -0.05      0.00
    3    4   19     -6.99      0.00
    4    4   19      0.53      0.00
  -19    5   19      1.89      0.00
  -18    5   19      0.51      0.00
  -17    5   19      1.72      0.00
  -16    5   19     -1.87      0.00
  -15    5   19      0.96      0.00
  -14    5   19      1.37      0.00
  -13    5   19     -2.00      0.00
  -12    5   19      1.35      0.00
  -11    5   19      0.29      0.00
  -10    5   19      2.53      0.00
   -9    5   19     -1.08      0.00
   -8    5   19     -2.87      0.00
   -7    5   19      0.96      0.00
   -6    5   19     -0.14      0.00
   -5    5   19      0.19      0.00
   -4    5   19     -0.53      0.00
   -3    5   19      2.35      0.00
   -2    5   19      0.74      0.00
   -1    5   19     -1.37      0.00
    0    5   19     -1.10      0.00
    1    5   19     -0.96      0.00
    2    5   19     -0.41      0.00
    3    5   19      6.96      0.00
  -20    6   19     -2.95      0.00
  -19    6   19     -1.77      0.00
  -18    6   19     -2.87      0.00
  -17    6   19     -4.21      0.00
  -16    6   19      3.87      0.00
  -15    6   19      3.04      0.00
  -14    6   19     -1.63      0.00
  -13    6   19     -1.68      0.00
  -12    6   19      0.76      0.00
  -11    6   19      2.98      0.00
  -10    6   19     -3.85      0.00
   -9    6   19     -2.86      0.00
   -8    6   19      2.27      0.00
   -7    6   19      0.50      0.00
   -6    6   19     -0.25      0.00
   -5    6   19     -3.28      0.00
   -4    6   19      3.11      0.00
   -3    6   19     -0.99      0.00
   -2    6   19     -4.75      0.00
   -1    6   19      2.07      0.00
    0    6   19      4.72      0.00
    1    6   19     -2.60      0.00
    2    6   19     -3.59      0.00
  -20    7   19      2.96      0.00
  -19    7   19      2.78      0.00
  -18    7   19      3.51      0.00
  -17    7   19      1.97      0.00
  -16    7   19     -2.78      0.00
  -15    7   19     -3.49      0.00
  -14    7   19      0.69      0.00
  -13    7   19      2.14      0.00
  -12    7   19     -1.66      0.00
  -11    7   19     -1.79      0.00
  -10    7   19      2.48      0.00
   -9    7   19      5.39      0.00
   -8    7   19     -0.52      0.00
   -7    7   19     -3.17      0.00
   -6    7   19      0.16      0.00
   -5    7   19      3.39      0.00
   -4    7   19     -5.09      0.00
   -3    7   19      0.44      0.00
   -2    7   19      5.05      0.00
   -1    7   19      0.17      0.00
    0    7   19     -2.50      0.00
    1    7   19      2.18      0.00
  -20    8   19     -1.01      0.00
  -19    8   19     -4.26      0.00
  -18    8   19     -1.50      0.00
  -17    8   19     -0.89      0.00
  -16    8   19      1.59      0.00
  -15    8   19      0.86      0.00
  -14    8   19      1.65      0.00
  -13    8   19     -0.56      0.00
  -12    8   19     -2.36      0.00
  -11    8   19      0.91      0.00
  -10    8   19      1.11      0.00
   -9    8   19     -4.38      0.00
   -8    8   19     -0.78      0.00
   -7    8   19      2.96      0.00
   -6    8   19      2.94      0.00
   -5    8   19     -0.06      0.00
   -4    8   19      2.28      0.00
   -3    8   19     -2.20      0.00
   -2    8   19     -3.59      0.00
   -1    8   19     -0.38      0.00
    0    8   19      3.25      0.00
    1    8   19      2.19      0.00
  -20    9   19      2.84      0.00
  -19    9   19      4.59      0.00
  -18    9   19     -3.22      0.00
  -17    9   19      0.07      0.00
  -16    9   19     -1.83      0.00
  -15    9   19      3.02      0.00
  -14    9   19     -0.88      0.00
  -13    9   19     -0.15      0.00
  -12    9   19      1.82      0.00
  -11    9   19     -0.20      0.00
  -10    9   19     -2.46      0.00
   -9    9   19      1.21      0.00
   -8    9   19      2.71      0.00
   -7    9   19     -2.27      0.00
   -6    9   19     -7.63      0.00
   -5    9   19     -0.55      0.00
   -4    9   19      3.99      0.00
   -3    9   19      2.26      0.00
   -2    9   19     -3.61      0.00
   -1    9   19     -4.08      0.00
  -19   10   19     -0.98      0.00
  -18   10   19      5.40      0.00
  -17   10   19     -2.33      0.00
  -16   10   19      1.68      0.00
  -15   10   19     -2.48      0.00
  -14   10   19      0.03      0.00
  -13   10   19      0.70      0.00
  -12   10   19      0.04      0.00
  -11   10   19     -2.88      0.00
  -10   10   19      2.25      0.00
   -9   10   19      0.88      0.00
   -8   10   19     -2.35      0.00
   -7   10   19      0.35      0.00
   -6   10   19      6.94      0.00
   -5   10   19      0.63      0.00
   -4   10   19     -3.83      0.00
   -3   10   19      2.35      0.00
   -2   10   19      6.93      0.00
  -19   11   19     -2.41      0.00
  -18   11   19     -2.36      0.00
  -17   11   19      5.44      0.00
  -16   11   19     -4.61      0.00
  -15   11   19      0.28      0.00
  -14   11   19     -0.51      0.00
  -13   11   19      0.29      0.00
  -12   11   19      0.66      0.00
  -11   11   19      3.31      0.00
  -10   11   19     -0.55      0.00
   -9   11   19      0.59      0.00
   -8   11   19      1.77      0.00
   -7   11   19      2.54      0.00
   -6   11   19     -5.32      0.00
   -5   11   19     -3.99      0.00
   -4   11   19      1.32      0.00
   -3   11   19     -1.80      0.00
  -19   12   19      1.97      0.00
  -18   12   19      1.52      0.00
  -17   12   19     -3.37      0.00
  -16   12   19      3.65      0.00
  -15   12   19     -1.24      0.00
  -14   12   19      1.93      0.00
  -13   12   19     -1.71      0.00
  -12   12   19      0.45      0.00
  -11   12   19     -2.26      0.00
  -10   12   19     -4.13      0.00
   -9   12   19     -4.47      0.00
   -8   12   19     -1.37      0.00
   -7   12   19     -1.77      0.00
   -6   12   19      2.80      0.00
   -5   12   19      3.88      0.00
   -4   12   19      1.23      0.00
  -18   13   19     -3.22      0.00
  -17   13   19      3.34      0.00
  -16   13   19      0.90      0.00
  -15   13   19      0.53      0.00
  -14   13   19     -2.45      0.00
  -13   13   19      1.08      0.00
  -12   13   19     -1.00      0.00
  -11   13   19      5.17      0.00
  -10   13   19      6.29      0.00
   -9   13   19      5.33      0.00
   -8   13   19      3.06      0.00
   -7   13   19      1.01      0.00
   -6   13   19     -2.86      0.00
  -17   14   19     -2.66      0.00
  -16   14   19     -2.31      0.00
  -15   14   19     -0.47      0.00
  -14   14   19      3.29      0.00
  -13   14   19     -1.42      0.00
  -12   14   19     -3.13      0.00
  -11   14   19     -5.93      0.00
  -10   14   19     -4.12      0.00
   -9   14   19     -6.13      0.00
   -8   14   19     -1.91      0.00
  -15   15   19     -0.06      0.00
  -14   15   19     -1.23      0.00
  -13   15   19      3.15      0.00
  -12   15   19      3.43      0.00
  -11   15   19      4.70      0.00
  -10   15   19      1.53      0.00
    0  -16   20      2.79      0.00
    1  -16   20     -1.05      0.00
    2  -16   20     -2.01      0.00
   -3  -15   20     -1.62      0.00
   -2  -15   20      1.44      0.00
   -1  -15   20      0.05      0.00
    0  -15   20     -3.71      0.00
    1  -15   20     -0.98      0.00
    2  -15   20      1.87      0.00
    3  -15   20     -1.60      0.00
    4  -15   20      2.72      0.00
    5  -15   20     -0.41      0.00
   -5  -14   20      1.54      0.00
   -4  -14   20      3.44      0.00
   -3  -14   20      0.71      0.00
   -2  -14   20     -2.51      0.00
   -1  -14   20     -0.13      0.00
    0  -14   20      2.28      0.00
    1  -14   20      1.20      0.00
    2  -14   20     -2.52      0.00
    3  -14   20      3.70      0.00
    4  -14   20     -2.14      0.00
    5  -14   20     -1.66      0.00
    6  -14   20      1.97      0.00
   -7  -13   20      0.01      0.00
   -6  -13   20     -1.58      0.00
   -5  -13   20     -1.35      0.00
   -4  -13   20     -3.57      0.00
   -3  -13   20     -1.51      0.00
   -2  -13   20      2.50      0.00
   -1  -13   20      2.35      0.00
    0  -13   20      0.47      0.00
    1  -13   20     -0.77      0.00
    2  -13   20      1.24      0.00
    3  -13   20     -3.04      0.00
    4  -13   20      0.49      0.00
    5  -13   20      0.36      0.00
    6  -13   20     -1.05      0.00
   -8  -12   20      1.59      0.00
   -7  -12   20      2.08      0.00
   -6  -12   20      2.63      0.00
   -5  -12   20      0.70      0.00
   -4  -12   20      3.57      0.00
   -3  -12   20      1.21      0.00
   -2  -12   20     -5.03      0.00
   -1  -12   20     -3.73      0.00
    0  -12   20      1.46      0.00
    1  -12   20      0.07      0.00
    2  -12   20     -2.32      0.00
    3  -12   20      0.45      0.00
    4  -12   20      3.67      0.00
    5  -12   20      1.36      0.00
    6  -12   20     -2.41      0.00
    7  -12   20     -1.06      0.00
   -9  -11   20      0.25      0.00
   -8  -11   20     -3.07      0.00
   -7  -11   20      1.61      0.00
   -6  -11   20     -2.90      0.00
   -5  -11   20     -1.94      0.00
   -4  -11   20     -0.79      0.00
   -3  -11   20      1.19      0.00
   -2  -11   20      2.17      0.00
   -1  -11   20      3.84      0.00
    0  -11   20     -1.84      0.00
    1  -11   20     -0.56      0.00
    2  -11   20      2.17      0.00
    3  -11   20     -0.81      0.00
    4  -11   20     -3.78      0.00
    5  -11   20     -0.60      0.00
    6  -11   20      1.47      0.00
    7  -11   20     -0.34      0.00
  -11  -10   20     -3.33      0.00
  -10  -10   20      3.55      0.00
   -9  -10   20      2.02      0.00
   -8  -10   20     -1.28      0.00
   -7  -10   20     -3.27      0.00
   -6  -10   20      3.00      0.00
   -5  -10   20     -0.05      0.00
   -4  -10   20     -1.19      0.00
   -3  -10   20     -0.73      0.00
   -2  -10   20      2.61      0.00
   -1  -10   20     -3.30      0.00
    0  -10   20      1.21      0.00
    1  -10   20      2.82      0.00
    2  -10   20      0.23      0.00
    3  -10   20      0.92      0.00
    4  -10   20     -0.19      0.00
    5  -10   20      0.96      0.00
    6  -10   20      0.76      0.00
    7  -10   20     -0.65      0.00
  -12   -9   20      0.38      0.00
  -11   -9   20      0.94      0.00
  -10   -9   20     -1.56      0.00
   -9   -9   20      3.18      0.00
   -8   -9   20      2.22      0.00
   -7   -9   20     -0.52      0.00
   -6   -9   20     -2.37      0.00
   -5   -9   20      1.87      0.00
   -4   -9   20      2.29      0.00
   -3   -9   20      1.11      0.00
   -2   -9   20     -5.69      0.00
   -1   -9   20     -2.33      0.00
    0   -9   20      0.73      0.00
    1   -9   20     -1.79      0.00
    2   -9   20     -2.56      0.00
    3   -9   20      0.36      0.00
    4   -9   20      2.66      0.00
    5   -9   20      0.51      0.00
    6   -9   20     -0.67      0.00
    7   -9   20     -1.33      0.00
  -12   -8   20      1.01      0.00
  -11   -8   20     -5.05      0.00
  -10   -8   20     -0.87      0.00
   -9   -8   20     -2.72      0.00
   -8   -8   20      1.19      0.00
   -7   -8   20     -0.08      0.00
   -6   -8   20      0.40      0.00
   -5   -8   20     -1.11      0.00
   -4   -8   20     -2.89      0.00
   -3   -8   20      0.66      0.00
   -2   -8   20      4.53      0.00
   -1   -8   20      4.97      0.00
    0   -8   20     -2.42      0.00
    1   -8   20     -0.40      0.00
    2   -8   20      2.18      0.00
    3   -8   20     -1.98      0.00
    4   -8   20     -3.94      0.00
    5   -8   20     -0.66      0.00
    6   -8   20      3.58      0.00
    7   -8   20      1.69      0.00
  -13   -7   20      2.34      0.00
  -12   -7   20      2.63      0.00
  -11   -7   20      3.35      0.00
  -10   -7   20     -2.74      0.00
   -9   -7   20      3.33      0.00
   -8   -7   20     -0.62      0.00
   -7   -7   20      3.30      0.00
   -6   -7   20      1.98      0.00
   -5   -7   20     -2.19      0.00
   -4   -7   20     -0.23      0.00
   -3   -7   20     -0.04      0.00
   -2   -7   20      0.77      0.00
   -1   -7   20     -5.09      0.00
    0   -7   20      2.97      0.00
    1   -7   20      2.26      0.00
    2   -7   20     -0.40      0.00
    3   -7   20      1.69      0.00
    4   -7   20      1.98      0.00
    5   -7   20     -3.20      0.00
    6   -7   20     -0.87      0.00
    7   -7   20      3.87      0.00
  -14   -6   20     -1.63      0.00
  -13   -6   20     -0.79      0.00
  -12   -6   20      1.01      0.00
  -11   -6   20     -0.45      0.00
  -10   -6   20     -0.95      0.00
   -9   -6   20     -7.11      0.00
   -8   -6   20     -0.78      0.00
   -7   -6   20     -1.38      0.00
   -6   -6   20     -1.72      0.00
   -5   -6   20      2.56      0.00
   -4   -6   20      3.14      0.00
   -3   -6   20     -0.62      0.00
   -2   -6   20     -4.59      0.00
   -1   -6   20      3.50      0.00
    0   -6   20     -2.44      0.00
    1   -6   20     -1.42      0.00
    2   -6   20     -0.35      0.00
    3   -6   20      1.78      0.00
    4   -6   20     -0.51      0.00
    5   -6   20      0.13      0.00
    6   -6   20     -4.13      0.00
    7   -6   20     -2.53      0.00
  -15   -5   20      4.34      0.00
  -14   -5   20      0.19      0.00
  -13   -5   20     -2.82      0.00
  -12   -5   20     -0.90      0.00
  -11   -5   20      4.36      0.00
  -10   -5   20      2.88      0.00
   -9   -5   20      4.96      0.00
   -8   -5   20      1.32      0.00
   -7   -5   20     -0.39      0.00
   -6   -5   20     -1.22      0.00
   -5   -5   20     -1.63      0.00
   -4   -5   20     -3.76      0.00
   -3   -5   20     -0.42      0.00
   -2   -5   20      6.13      0.00
   -1   -5   20     -2.90      0.00
    0   -5   20      0.93      0.00
    1   -5   20     -0.11      0.00
    2   -5   20      0.73      0.00
    3   -5   20     -2.62      0.00
    4   -5   20      2.29      0.00
    5   -5   20      2.78      0.00
    6   -5   20      1.62      0.00
    7   -5   20     -0.26      0.00
  -15   -4   20     -3.82      0.00
  -14   -4   20      2.55      0.00
  -13   -4   20      1.40      0.00
  -12   -4   20     -3.16      0.00
  -11   -4   20     -2.56      0.00
  -10   -4   20     -0.32      0.00
   -9   -4   20     -3.18      0.00
   -8   -4   20     -0.20      0.00
   -7   -4   20      1.05      0.00
   -6   -4   20      4.65      0.00
   -5   -4   20      1.19      0.00
   -4   -4   20     -0.97      0.00
   -3   -4   20      2.28      0.00
   -2   -4   20     -2.40      0.00
   -1   -4   20      0.94      0.00
    0   -4   20     -2.69      0.00
    1   -4   20      1.67      0.00
    2   -4   20     -1.11      0.00
    3   -4   20      0.70      0.00
    4   -4   20     -0.21      0.00
    5   -4   20     -0.97      0.00
    6   -4   20     -0.88      0.00
    7   -4   20     -0.59      0.00
  -16   -3   20     -0.20      0.00
  -15   -3   20      1.78      0.00
  -14   -3   20     -3.37      0.00
  -13   -3   20     -0.51      0.00
  -12   -3   20      2.14      0.00
  -11   -3   20     -0.08      0.00
  -10   -3   20     -0.44      0.00
   -9   -3   20      1.51      0.00
   -8   -3   20     -2.01      0.00
   -7   -3   20      0.56      0.00
   -6   -3   20     -3.25      0.00
   -5   -3   20     -0.75      0.00
   -4   -3   20      3.77      0.00
   -3   -3   20     -2.95      0.00
   -2   -3   20      1.31      0.00
   -1   -3   20      0.84      0.00
    0   -3   20      2.50      0.00
    1   -3   20     -2.38      0.00
    2   -3   20      0.25      0.00
    3   -3   20     -0.18      0.00
    4   -3   20     -1.26      0.00
    5   -3   20     -0.40      0.00
    6   -3   20      0.92      0.00
  -17   -2   20     -0.52      0.00
  -16   -2   20      1.32      0.00
  -15   -2   20      1.25      0.00
  -14   -2   20      0.56      0.00
  -13   -2   20      2.61      0.00
  -12   -2   20     -1.34      0.00
  -11   -2   20      0.65      0.00
  -10   -2   20      2.39      0.00
   -9   -2   20      0.00      0.00
   -8   -2   20     -1.52      0.00
   -7   -2   20     -5.25      0.00
   -6   -2   20      3.20      0.00
   -5   -2   20      1.37      0.00
   -4   -2   20     -3.81      0.00
   -3   -2   20      0.50      0.00
   -2   -2   20     -1.72      0.00
   -1   -2   20      1.77      0.00
    0   -2   20     -0.67      0.00
    1   -2   20      1.93      0.00
    2   -2   20     -0.39      0.00
    3   -2   20      0.37      0.00
    4   -2   20      1.53      0.00
    5   -2   20      0.62      0.00
    6   -2   20     -0.20      0.00
  -17   -1   20      1.75      0.00
  -16   -1   20     -2.14      0.00
  -15   -1   20     -1.35      0.00
  -14   -1   20      0.32      0.00
  -13   -1   20     -2.90      0.00
  -12   -1   20      0.75      0.00
  -11   -1   20     -1.21      0.00
  -10   -1   20      1.34      0.00
   -9   -1   20     -0.62      0.00
   -8   -1   20      2.04      0.00
   -7   -1   20      6.07      0.00
   -6   -1   20     -2.61      0.00
   -5   -1   20     -0.69      0.00
   -4   -1   20      2.18      0.00
   -3   -1   20      0.46      0.00
   -2   -1   20     -0.24      0.00
   -1   -1   20     -3.18      0.00
    0   -1   20      1.51      0.00
    1   -1   20     -1.61      0.00
    2   -1   20      1.00      0.00
    3   -1   20     -1.71      0.00
    4   -1   20     -1.32      0.00
    5   -1   20      1.03      0.00
    6   -1   20     -0.31      0.00
  -18    0   20     -1.20      0.00
  -17    0   20     -1.21      0.00
  -16    0   20      2.68      0.00
  -15    0   20      1.03      0.00
  -14    0   20     -1.48      0.00
  -13    0   20     -0.06      0.00
  -12    0   20      1.62      0.00
  -11    0   20     -0.93      0.00
  -10    0   20     -3.75      0.00
   -9    0   20      3.44      0.00
   -8    0   20      1.91      0.00
   -7    0   20     -3.76      0.00
   -6    0   20     -1.30      0.00
   -5    0   20      0.69      0.00
   -4    0   20     -0.05      0.00
   -3    0   20     -0.64      0.00
   -2    0   20      0.24      0.00
   -1    0   20      4.06      0.00
    0    0   20     -2.42      0.00
    1    0   20     -0.05      0.00
    2    0   20     -0.49      0.00
    3    0   20      2.08      0.00
    4    0   20      0.47      0.00
    5    0   20     -0.83      0.00
  -18    1   20      0.60      0.00
  -17    1   20     -2.76      0.00
  -16    1   20     -1.96      0.00
  -15    1   20      1.80      0.00
  -14    1   20      3.66      0.00
  -13    1   20      0.49      0.00
  -12    1   20     -1.80      0.00
  -11    1   20     -0.93      0.00
  -10    1   20     -0.71      0.00
   -9    1   20     -2.28      0.00
   -8    1   20     -2.99      0.00
   -7    1   20      0.57      0.00
   -6    1   20      3.40      0.00
   -5    1   20      0.80      0.00
   -4    1   20     -2.12      0.00
   -3    1   20      0.34      0.00
   -2    1   20      2.97      0.00
   -1    1   20     -7.27      0.00
    0    1   20      2.57      0.00
    1    1   20      3.99      0.00
    2    1   20     -1.77      0.00
    3    1   20     -2.72      0.00
    4    1   20      1.26      0.00
    5    1   20      0.56      0.00
  -18    2   20      1.64      0.00
  -17    2   20     -0.02      0.00
  -16    2   20     -0.33      0.00
  -15    2   20     -2.42      0.00
  -14    2   20     -0.27      0.00
  -13    2   20     -0.12      0.00
  -12    2   20     -0.97      0.00
  -11    2   20      5.21      0.00
  -10    2   20      3.30      0.00
   -9    2   20     -0.49      0.00
   -8    2   20      1.61      0.00
   -7    2   20      0.55      0.00
   -6    2   20     -2.86      0.00
   -5    2   20     -1.31      0.00
   -4    2   20      4.17      0.00
   -3    2   20      0.70      0.00
   -2    2   20     -4.06      0.00
   -1    2   20      4.03      0.00
    0    2   20     -1.98      0.00
    1    2   20      0.04      0.00
    2    2   20      1.43      0.00
    3    2   20     -0.93      0.00
    4    2   20     -1.74      0.00
  -19    3   20      0.15      0.00
  -18    3   20      1.40      0.00
  -17    3   20      0.40      0.00
  -16    3   20      0.66      0.00
  -15    3   20      1.55      0.00
  -14    3   20     -2.13      0.00
  -13    3   20      0.66      0.00
  -12    3   20      1.89      0.00
  -11    3   20     -4.99      0.00
  -10    3   20     -3.17      0.00
   -9    3   20      2.10      0.00
   -8    3   20     -1.04      0.00
   -7    3   20     -0.62      0.00
   -6    3   20      1.56      0.00
   -5    3   20      0.04      0.00
   -4    3   20     -3.34      0.00
   -3    3   20     -1.42      0.00
   -2    3   20      3.40      0.00
   -1    3   20      2.32      0.00
    0    3   20     -3.28      0.00
    1    3   20     -5.11      0.00
    2    3   20      5.97      0.00
    3    3   20      2.77      0.00
    4    3   20     -2.12      0.00
  -19    4   20     -1.78      0.00
  -18    4   20     -0.38      0.00
  -17    4   20      2.21      0.00
  -16    4   20     -2.30      0.00
  -15    4   20     -2.22      0.00
  -14    4   20      2.24      0.00
  -13    4   20      1.10      0.00
  -12    4   20     -2.23      0.00
  -11    4   20      0.63      0.00
  -10    4   20      2.22      0.00
   -9    4   20     -0.68      0.00
   -8    4   20      1.24      0.00
   -7    4   20     -0.74      0.00
   -6    4   20      0.00      0.00
   -5    4   20     -1.12      0.00
   -4    4   20      0.84      0.00
   -3    4   20      0.41      0.00
   -2    4   20     -1.11      0.00
   -1    4   20     -1.37      0.00
    0    4   20      3.06      0.00
    1    4   20      3.61      0.00
    2    4   20     -6.98      0.00
    3    4   20     -2.22      0.00
  -19    5   20      0.06      0.00
  -18    5   20      2.48      0.00
  -17    5   20     -1.72      0.00
  -16    5   20     -0.36      0.00
  -15    5   20      1.08      0.00
  -14    5   20     -1.80      0.00
  -13    5   20     -0.02      0.00
  -12    5   20      2.33      0.00
  -11    5   20      1.76      0.00
  -10    5   20      0.47      0.00
   -9    5   20     -1.46      0.00
   -8    5   20      0.10      0.00
   -7    5   20      1.26      0.00
   -6    5   20     -0.80      0.00
   -5    5   20      3.69      0.00
   -4    5   20     -1.46      0.00
   -3    5   20      2.27      0.00
   -2    5   20      0.50      0.00
   -1    5   20     -2.50      0.00
    0    5   20     -0.29      0.00
    1    5   20     -0.75      0.00
    2    5   20      5.87      0.00
  -19    6   20     -0.49      0.00
  -18    6   20     -4.19      0.00
  -17    6   20      3.61      0.00
  -16    6   20      4.25      0.00
  -15    6   20     -0.15      0.00
  -14    6   20     -3.38      0.00
  -13    6   20     -0.35      0.00
  -12    6   20      0.89      0.00
  -11    6   20     -3.03      0.00
  -10    6   20     -5.02      0.00
   -9    6   20      0.96      0.00
   -8    6   20      2.08      0.00
   -7    6   20      0.05      0.00
   -6    6   20     -1.39      0.00
   -5    6   20     -2.41      0.00
   -4    6   20      3.54      0.00
   -3    6   20     -6.81      0.00
   -2    6   20     -1.27      0.00
   -1    6   20      5.52      0.00
    0    6   20     -1.24      0.00
    1    6   20     -4.59      0.00
  -19    7   20      1.11      0.00
  -18    7   20      1.03      0.00
  -17    7   20     -3.44      0.00
  -16    7   20     -3.50      0.00
  -15    7   20      0.52      0.00
  -14    7   20      5.42      0.00
  -13    7   20     -1.32      0.00
  -12    7   20     -0.21      0.00
  -11    7   20      1.83      0.00
  -10    7   20      5.60      0.00
   -9    7   20     -0.22      0.00
   -8    7   20     -5.39      0.00
   -7    7   20     -0.10      0.00
   -6    7   20      2.21      0.00
   -5    7   20     -0.35      0.00
   -4    7   20     -3.05      0.00
   -3    7   20      8.06      0.00
   -2    7   20      1.94      0.00
   -1    7   20     -3.46      0.00
    0    7   20      0.03      0.00
  -19    8   20     -0.60      0.00
  -18    8   20      0.87      0.00
  -17    8   20      1.21      0.00
  -16    8   20      0.91      0.00
  -15    8   20     -0.25      0.00
  -14    8   20     -2.04      0.00
  -13    8   20     -1.33      0.00
  -12    8   20     -0.67      0.00
  -11    8   20      1.82      0.00
  -10    8   20     -2.52      0.00
   -9    8   20      0.04      0.00
   -8    8   20      3.07      0.00
   -7    8   20      1.84      0.00
   -6    8   20      2.29      0.00
   -5    8   20     -1.05      0.00
   -4    8   20     -1.54      0.00
   -3    8   20     -5.12      0.00
   -2    8   20      1.31      0.00
   -1    8   20      3.13      0.00
  -19    9   20     -2.29      0.00
  -18    9   20     -1.40      0.00
  -17    9   20      0.67      0.00
  -16    9   20      1.08      0.00
  -15    9   20      1.28      0.00
  -14    9   20     -0.65      0.00
  -13    9   20      1.43      0.00
  -12    9   20      0.80      0.00
  -11    9   20     -1.23      0.00
  -10    9   20     -2.01      0.00
   -9    9   20      1.46      0.00
   -8    9   20     -0.03      0.00
   -7    9   20     -6.94      0.00
   -6    9   20     -4.47      0.00
   -5    9   20      6.93      0.00
   -4    9   20      3.47      0.00
   -3    9   20     -3.70      0.00
   -2    9   20     -7.18      0.00
  -19   10   20      3.71      0.00
  -18   10   20     -0.02      0.00
  -17   10   20     -2.29      0.00
  -16   10   20      0.28      0.00
  -15   10   20     -1.95      0.00
  -14   10   20      1.11      0.00
  -13   10   20     -0.89      0.00
  -12   10   20     -2.81      0.00
  -11   10   20     -0.51      0.00
  -10   10   20      4.34      0.00
   -9   10   20     -1.44      0.00
   -8   10   20     -0.55      0.00
   -7   10   20      5.86      0.00
   -6   10   20      3.48      0.00
   -5   10   20     -5.82      0.00
   -4   10   20      1.05      0.00
   -3   10   20      6.85      0.00
  -18   11   20      2.69      0.00
  -17   11   20     -0.24      0.00
  -16   11   20     -2.90      0.00
  -15   11   20      2.57      0.00
  -14   11   20      0.37      0.00
  -13   11   20      2.18      0.00
  -12   11   20      1.98      0.00
  -11   11   20      2.71      0.00
  -10   11   20     -2.26      0.00
   -9   11   20      0.05      0.00
   -8   11   20      2.04      0.00
   -7   11   20     -1.74      0.00
   -6   11   20     -5.29      0.00
   -5   11   20      1.20      0.00
   -4   11   20     -0.61      0.00
  -18   12   20     -0.72      0.00
  -17   12   20      1.30      0.00
  -16   12   20      0.41      0.00
  -15   12   20     -1.49      0.00
  -14   12   20     -0.58      0.00
  -13   12   20     -1.91      0.00
  -12   12   20     -0.82      0.00
  -11   12   20     -6.68      0.00
  -10   12   20     -1.30      0.00
   -9   12   20      0.13      0.00
   -8   12   20     -2.05      0.00
   -7   12   20     -0.92      0.00
   -6   12   20      3.78      0.00
  -17   13   20      2.30      0.00
  -16   13   20      0.87      0.00
  -15   13   20     -1.09      0.00
  -14   13   20      0.10      0.00
  -13   13   20      1.16      0.00
  -12   13   20      3.26      0.00
  -11   13   20      8.12      0.00
  -10   13   20      2.03      0.00
   -9   13   20      2.47      0.00
   -8   13   20      2.67      0.00
   -7   13   20     -0.36      0.00
  -15   14   20      2.44      0.00
  -14   14   20     -0.30      0.00
  -13   14   20     -2.91      0.00
  -12   14   20     -4.54      0.00
  -11   14   20     -5.14      0.00
  -10   14   20     -3.11      0.00
   -1  -15   21     -2.50      0.00
    0  -15   21     -1.98      0.00
    1  -15   21      1.57      0.00
    2  -15   21      1.04      0.00
   -4  -14   21      2.34      0.00
   -3  -14   21     -1.03      0.00
   -2  -14   21     -2.60      0.00
   -1  -14   21      2.40      0.00
    0  -14   21      2.58      0.00
    1  -14   21     -2.01      0.00
    2  -14   21     -0.48      0.00
    3  -14   21      1.03      0.00
    4  -14   21     -3.13      0.00
   -6  -13   21     -3.03      0.00
   -5  -13   21     -3.34      0.00
   -4  -13   21     -1.56      0.00
   -3  -13   21      1.42      0.00
   -2  -13   21      3.18      0.00
   -1  -13   21     -0.18      0.00
    0  -13   21     -0.72      0.00
    1  -13   21      0.72      0.00
    2  -13   21      1.20      0.00
    3  -13   21     -1.03      0.00
    4  -13   21      0.89      0.00
    5  -13   21     -0.95      0.00
   -7  -12   21      2.03      0.00
   -6  -12   21      2.36      0.00
   -5  -12   21      1.91      0.00
   -4  -12   21      1.54      0.00
   -3  -12   21     -1.82      0.00
   -2  -12   21     -4.59      0.00
   -1  -12   21     -0.27      0.00
    0  -12   21     -0.94      0.00
    1  -12   21     -2.40      0.00
    2  -12   21     -2.89      0.00
    3  -12   21      3.34      0.00
    4  -12   21      4.04      0.00
    5  -12   21     -2.32      0.00
   -9  -11   21     -2.91      0.00
   -8  -11   21     -0.75      0.00
   -7  -11   21     -1.19      0.00
   -6  -11   21     -3.44      0.00
   -5  -11   21     -0.55      0.00
   -4  -11   21      1.06      0.00
   -3  -11   21      0.50      0.00
   -2  -11   21      4.57      0.00
   -1  -11   21      1.65      0.00
    0  -11   21      0.70      0.00
    1  -11   21      2.58      0.00
    2  -11   21     -0.14      0.00
    3  -11   21     -3.05      0.00
    4  -11   21     -3.86      0.00
    5  -11   21      1.95      0.00
    6  -11   21     -1.93      0.00
  -10  -10   21      2.20      0.00
   -9  -10   21     -0.35      0.00
   -8  -10   21     -2.03      0.00
   -7  -10   21      1.91      0.00
   -6  -10   21      2.39      0.00
   -5  -10   21     -0.61      0.00
   -4  -10   21     -2.46      0.00
   -3  -10   21      1.68      0.00
   -2  -10   21     -2.72      0.00
   -1  -10   21     -2.17      0.00
    0  -10   21      2.50      0.00
    1  -10   21     -0.26      0.00
    2  -10   21      2.44      0.00
    3  -10   21     -1.27      0.00
    4  -10   21      3.06      0.00
    5  -10   21      0.79      0.00
    6  -10   21      0.88      0.00
  -11   -9   21     -0.41      0.00
  -10   -9   21      0.13      0.00
   -9   -9   21      2.42      0.00
   -8   -9   21     -1.37      0.00
   -7   -9   21     -2.45      0.00
   -6   -9   21      0.89      0.00
   -5   -9   21      1.61      0.00
   -4   -9   21      3.40      0.00
   -3   -9   21     -3.14      0.00
   -2   -9   21     -4.14      0.00
   -1   -9   21      1.00      0.00
    0   -9   21     -0.68      0.00
    1   -9   21     -1.34      0.00
    2   -9   21     -3.32      0.00
    3   -9   21      3.47      0.00
    4   -9   21     -1.73      0.00
    5   -9   21      0.23      0.00
    6   -9   21     -1.78      0.00
  -12   -8   21     -2.98      0.00
  -11   -8   21     -2.16      0.00
  -10   -8   21      1.73      0.00
   -9   -8   21     -0.11      0.00
   -8   -8   21      2.17      0.00
   -7   -8   21     -0.70      0.00
   -6   -8   21     -1.70      0.00
   -5   -8   21     -2.11      0.00
   -4   -8   21     -1.51      0.00
   -3   -8   21      3.13      0.00
   -2   -8   21      6.29      0.00
   -1   -8   21      0.44      0.00
    0   -8   21     -2.19      0.00
    1   -8   21      2.08      0.00
    2   -8   21      3.20      0.00
    3   -8   21     -4.51      0.00
    4   -8   21      0.69      0.00
    5   -8   21      1.17      0.00
    6   -8   21      3.87      0.00
  -13   -7   21      2.81      0.00
  -12   -7   21      1.58      0.00
  -11   -7   21     -0.97      0.00
  -10   -7   21     -2.10      0.00
   -9   -7   21      1.73      0.00
   -8   -7   21      1.09      0.00
   -7   -7   21      4.06      0.00
   -6   -7   21     -1.57      0.00
   -5   -7   21     -1.12      0.00
   -4   -7   21      0.35      0.00
   -3   -7   21      0.78      0.00
   -2   -7   21     -4.02      0.00
   -1   -7   21     -3.43      0.00
    0   -7   21      2.47      0.00
    1   -7   21     -0.98      0.00
    2   -7   21     -2.47      0.00
    3   -7   21      3.13      0.00
    4   -7   21     -3.39      0.00
    5   -7   21     -0.76      0.00
    6   -7   21      0.48      0.00
  -14   -6   21     -0.28      0.00
  -13   -6   21     -0.14      0.00
  -12   -6   21      1.61      0.00
  -11   -6   21     -2.13      0.00
  -10   -6   21     -2.75      0.00
   -9   -6   21     -3.81      0.00
   -8   -6   21      0.29      0.00
   -7   -6   21     -2.58      0.00
   -6   -6   21      2.90      0.00
   -5   -6   21      3.12      0.00
   -4   -6   21      0.39      0.00
   -3   -6   21     -2.48      0.00
   -2   -6   21      1.59      0.00
   -1   -6   21      4.41      0.00
    0   -6   21     -1.16      0.00
    1   -6   21     -0.15      0.00
    2   -6   21      3.40      0.00
    3   -6   21     -0.61      0.00
    4   -6   21      1.17      0.00
    5   -6   21     -2.74      0.00
    6   -6   21     -0.61      0.00
  -14   -5   21     -2.85      0.00
  -13   -5   21      0.17      0.00
  -12   -5   21      1.99      0.00
  -11   -5   21      5.12      0.00
  -10   -5   21      2.05      0.00
   -9   -5   21      3.27      0.00
   -8   -5   21     -2.41      0.00
   -7   -5   21     -1.12      0.00
   -6   -5   21     -2.53      0.00
   -5   -5   21     -2.31      0.00
   -4   -5   21     -2.00      0.00
   -3   -5   21      2.47      0.00
   -2   -5   21     -0.32      0.00
   -1   -5   21     -3.60      0.00
    0   -5   21      0.30      0.00
    1   -5   21      0.56      0.00
    2   -5   21     -3.17      0.00
    3   -5   21      0.51      0.00
    4   -5   21      2.17      0.00
    5   -5   21      0.93      0.00
    6   -5   21     -1.98      0.00
  -15   -4   21     -1.54      0.00
  -14   -4   21      1.86      0.00
  -13   -4   21     -4.25      0.00
  -12   -4   21     -1.54      0.00
  -11   -4   21     -1.68      0.00
  -10   -4   21     -0.29      0.00
   -9   -4   21     -2.31      0.00
   -8   -4   21      2.93      0.00
   -7   -4   21      2.91      0.00
   -6   -4   21      3.27      0.00
   -5   -4   21     -1.74      0.00
   -4   -4   21      1.16      0.00
   -3   -4   21      0.01      0.00
   -2   -4   21     -0.29      0.00
   -1   -4   21      0.76      0.00
    0   -4   21      0.36      0.00
    1   -4   21     -0.27      0.00
    2   -4   21      1.29      0.00
    3   -4   21      1.05      0.00
    4   -4   21     -1.10      0.00
    5   -4   21     -0.45      0.00
    6   -4   21      1.18      0.00
  -16   -3   21      1.00      0.00
  -15   -3   21      0.21      0.00
  -14   -3   21      0.00      0.00
  -13   -3   21      2.18      0.00
  -12   -3   21     -0.83      0.00
  -11   -3   21      0.04      0.00
  -10   -3   21      0.05      0.00
   -9   -3   21      0.67      0.00
   -8   -3   21     -1.62      0.00
   -7   -3   21      0.58      0.00
   -6   -3   21     -3.65      0.00
   -5   -3   21      4.30      0.00
   -4   -3   21      0.32      0.00
   -3   -3   21     -1.05      0.00
   -2   -3   21      0.57      0.00
   -1   -3   21     -0.79      0.00
    0   -3   21     -0.46      0.00
    1   -3   21     -0.68      0.00
    2   -3   21     -0.46      0.00
    3   -3   21     -1.01      0.00
    4   -3   21     -0.33      0.00
    5   -3   21      0.35      0.00
  -16   -2   21      1.47      0.00
  -15   -2   21     -1.31      0.00
  -14   -2   21      1.40      0.00
  -13   -2   21      1.41      0.00
  -12   -2   21     -0.54      0.00
  -11   -2   21      1.49      0.00
  -10   -2   21     -0.63      0.00
   -9   -2   21     -2.08      0.00
   -8   -2   21     -2.38      0.00
   -7   -2   21     -1.92      0.00
   -6   -2   21      3.43      0.00
   -5   -2   21     -4.64      0.00
   -4   -2   21     -0.29      0.00
   -3   -2   21      0.62      0.00
   -2   -2   21      1.27      0.00
   -1   -2   21      1.64      0.00
    0   -2   21     -0.08      0.00
    1   -2   21      0.72      0.00
    2   -2   21     -1.00      0.00
    3   -2   21      0.98      0.00
    4   -2   21      1.50      0.00
    5   -2   21      0.12      0.00
  -17   -1   21     -0.83      0.00
  -16   -1   21     -2.61      0.00
  -15   -1   21      0.51      0.00
  -14   -1   21     -2.29      0.00
  -13   -1   21     -0.83      0.00
  -12   -1   21      0.87      0.00
  -11   -1   21      0.68      0.00
  -10   -1   21      1.60      0.00
   -9   -1   21      0.24      0.00
   -8   -1   21      3.50      0.00
   -7   -1   21      1.97      0.00
   -6   -1   21     -1.24      0.00
   -5   -1   21      2.29      0.00
   -4   -1   21     -1.17      0.00
   -3   -1   21     -0.74      0.00
   -2   -1   21     -1.11      0.00
   -1   -1   21      0.01      0.00
    0   -1   21     -0.39      0.00
    1   -1   21      0.44      0.00
    2   -1   21      0.65      0.00
    3   -1   21     -2.53      0.00
    4   -1   21      0.73      0.00
    5   -1   21      0.89      0.00
  -17    0   21      2.61      0.00
  -16    0   21      3.01      0.00
  -15    0   21     -0.44      0.00
  -14    0   21     -0.74      0.00
  -13    0   21      1.43      0.00
  -12    0   21     -1.47      0.00
  -11    0   21     -2.85      0.00
  -10    0   21      2.18      0.00
   -9    0   21      3.12      0.00
   -8    0   21     -2.62      0.00
   -7    0   21     -3.68      0.00
   -6    0   21      0.60      0.00
   -5    0   21     -0.08      0.00
   -4    0   21      0.89      0.00
   -3    0   21      0.35      0.00
   -2    0   21      0.45      0.00
   -1    0   21     -0.17      0.00
    0    0   21     -1.09      0.00
    1    0   21     -0.21      0.00
    2    0   21      0.67      0.00
    3    0   21      1.33      0.00
    4    0   21     -1.86      0.00
  -17    1   21     -3.46      0.00
  -16    1   21      0.04      0.00
  -15    1   21      3.42      0.00
  -14    1   21      0.30      0.00
  -13    1   21     -2.18      0.00
  -12    1   21      0.33      0.00
  -11    1   21     -1.36      0.00
  -10    1   21     -3.00      0.00
   -9    1   21     -1.55      0.00
   -8    1   21      0.39      0.00
   -7    1   21      2.92      0.00
   -6    1   21      0.62      0.00
   -5    1   21     -0.68      0.00
   -4    1   21     -1.99      0.00
   -3    1   21      2.11      0.00
   -2    1   21     -1.79      0.00
   -1    1   21     -1.71      0.00
    0    1   21      5.61      0.00
    1    1   21     -1.79      0.00
    2    1   21     -1.73      0.00
    3    1   21      0.90      0.00
    4    1   21      0.84      0.00
  -18    2   21      1.91      0.00
  -17    2   21      0.55      0.00
  -16    2   21     -1.31      0.00
  -15    2   21     -1.45      0.00
  -14    2   21      1.74      0.00
  -13    2   21     -0.90      0.00
  -12    2   21      3.10      0.00
  -11    2   21      4.72      0.00
  -10    2   21      0.50      0.00
   -9    2   21     -0.65      0.00
   -8    2   21      0.84      0.00
   -7    2   21     -0.83      0.00
   -6    2   21     -0.41      0.00
   -5    2   21      2.13      0.00
   -4    2   21      1.88      0.00
   -3    2   21     -3.42      0.00
   -2    2   21      0.50      0.00
   -1    2   21      1.65      0.00
    0    2   21     -3.05      0.00
    1    2   21      3.62      0.00
    2    2   21     -1.09      0.00
    3    2   21     -1.69      0.00
  -18    3   21      0.29      0.00
  -17    3   21      0.08      0.00
  -16    3   21      0.62      0.00
  -15    3   21     -0.82      0.00
  -14    3   21     -1.63      0.00
  -13    3   21      2.33      0.00
  -12    3   21     -3.38      0.00
  -11    3   21     -4.95      0.00
  -10    3   21      1.35      0.00
   -9    3   21      1.07      0.00
   -8    3   21     -1.94      0.00
   -7    3   21      0.23      0.00
   -6    3   21     -0.46      0.00
   -5    3   21     -0.67      0.00
   -4    3   21     -0.97      0.00
   -3    3   21      1.84      0.00
   -2    3   21      4.00      0.00
   -1    3   21     -3.84      0.00
    0    3   21     -4.23      0.00
    1    3   21      0.07      0.00
    2    3   21      4.71      0.00
  -18    4   21      0.99      0.00
  -17    4   21     -0.28      0.00
  -16    4   21     -2.21      0.00
  -15    4   21      1.23      0.00
  -14    4   21      3.31      0.00
  -13    4   21     -2.32      0.00
  -12    4   21     -0.71      0.00
  -11    4   21      2.92      0.00
  -10    4   21     -0.49      0.00
   -9    4   21      0.09      0.00
   -8    4   21      0.52      0.00
   -7    4   21     -1.00      0.00
   -6    4   21     -1.31      0.00
   -5    4   21     -1.26      0.00
   -4    4   21      2.16      0.00
   -3    4   21     -1.65      0.00
   -2    4   21     -3.13      0.00
   -1    4   21      5.51      0.00
    0    4   21      3.78      0.00
    1    4   21     -1.46      0.00
    2    4   21     -4.82      0.00
  -18    5   21      0.01      0.00
  -17    5   21     -2.74      0.00
  -16    5   21      1.98      0.00
  -15    5   21     -1.42      0.00
  -14    5   21     -1.19      0.00
  -13    5   21      3.39      0.00
  -12    5   21      2.50      0.00
  -11    5   21      0.83      0.00
  -10    5   21     -1.22      0.00
   -9    5   21      0.20      0.00
   -8    5   21      1.44      0.00
   -7    5   21     -0.50      0.00
   -6    5   21      3.37      0.00
   -5    5   21      0.87      0.00
   -4    5   21     -1.62      0.00
   -3    5   21      3.70      0.00
   -2    5   21     -1.74      0.00
   -1    5   21     -4.82      0.00
    0    5   21      0.64      0.00
    1    5   21      1.03      0.00
  -19    6   21     -0.19      0.00
  -18    6   21      0.80      0.00
  -17    6   21      5.95      0.00
  -16    6   21     -0.73      0.00
  -15    6   21     -3.28      0.00
  -14    6   21     -2.45      0.00
  -13    6   21      0.21      0.00
  -12    6   21     -2.40      0.00
  -11    6   21     -5.07      0.00
  -10    6   21     -0.07      0.00
   -9    6   21      3.07      0.00
   -8    6   21      0.78      0.00
   -7    6   21     -0.57      0.00
   -6    6   21     -3.41      0.00
   -5    6   21      0.36      0.00
   -4    6   21     -1.88      0.00
   -3    6   21     -4.82      0.00
   -2    6   21      5.21      0.00
   -1    6   21      4.09      0.00
    0    6   21     -5.19      0.00
  -19    7   21     -2.14      0.00
  -18    7   21     -1.06      0.00
  -17    7   21     -4.06      0.00
  -16    7   21      1.18      0.00
  -15    7   21      6.11      0.00
  -14    7   21      0.69      0.00
  -13    7   21     -1.71      0.00
  -12    7   21      1.72      0.00
  -11    7   21      4.30      0.00
  -10    7   21      1.30      0.00
   -9    7   21     -7.43      0.00
   -8    7   21     -0.48      0.00
   -7    7   21      3.30      0.00
   -6    7   21      0.77      0.00
   -5    7   21     -0.81      0.00
   -4    7   21      4.02      0.00
   -3    7   21      4.07      0.00
   -2    7   21     -4.56      0.00
   -1    7   21     -4.04      0.00
  -18    8   21     -1.18      0.00
  -17    8   21      1.29      0.00
  -16    8   21     -1.23      0.00
  -15    8   21     -2.35      0.00
  -14    8   21     -1.00      0.00
  -13    8   21      0.31      0.00
  -12    8   21      1.19      0.00
  -11    8   21     -1.25      0.00
  -10    8   21     -0.70      0.00
   -9    8   21      4.15      0.00
   -8    8   21     -0.86      0.00
   -7    8   21      1.45      0.00
   -6    8   21      0.16      0.00
   -5    8   21     -3.75      0.00
   -4    8   21     -2.82      0.00
   -3    8   21      1.53      0.00
   -2    8   21      4.40      0.00
  -18    9   21      3.69      0.00
  -17    9   21     -0.67      0.00
  -16    9   21      1.42      0.00
  -15    9   21     -0.20      0.00
  -14    9   21      1.31      0.00
  -13    9   21      0.70      0.00
  -12    9   21      0.38      0.00
  -11    9   21     -1.89      0.00
  -10    9   21     -0.13      0.00
   -9    9   21      1.02      0.00
   -8    9   21     -3.13      0.00
   -7    9   21     -6.30      0.00
   -6    9   21      5.04      0.00
   -5    9   21      7.11      0.00
   -4    9   21     -4.71      0.00
   -3    9   21     -8.23      0.00
  -18   10   21     -5.20      0.00
  -17   10   21      1.90      0.00
  -16   10   21     -2.09      0.00
  -15   10   21     -0.36      0.00
  -14   10   21     -1.34      0.00
  -13   10   21     -2.81      0.00
  -12   10   21     -2.29      0.00
  -11   10   21      3.44      0.00
  -10   10   21      1.32      0.00
   -9   10   21     -0.72      0.00
   -8   10   21      2.93      0.00
   -7   10   21      4.87      0.00
   -6   10   21     -4.76      0.00
   -5   10   21     -2.55      0.00
   -4   10   21      7.08      0.00
  -17   11   21     -4.10      0.00
  -16   11   21      3.83      0.00
  -15   11   21      2.11      0.00
  -14   11   21      2.33      0.00
  -13   11   21      1.49      0.00
  -12   11   21      3.20      0.00
  -11   11   21     -0.66      0.00
  -10   11   21     -3.92      0.00
   -9   11   21     -0.25      0.00
   -8   11   21      1.90      0.00
   -7   11   21     -4.63      0.00
   -6   11   21     -0.26      0.00
  -17   12   21      1.71      0.00
  -16   12   21     -4.25      0.00
  -15   12   21     -1.06      0.00
  -14   12   21     -2.10      0.00
  -13   12   21     -0.19      0.00
  -12   12   21     -5.29      0.00
  -11   12   21     -1.81      0.00
  -10   12   21      4.84      0.00
   -9   12   21      0.14      0.00
   -8   12   21     -4.22      0.00
   -7   12   21      2.56      0.00
  -15   13   21     -0.46      0.00
  -14   13   21      1.80      0.00
  -13   13   21      1.34      0.00
  -12   13   21      5.28      0.00
  -11   13   21      1.29      0.00
  -10   13   21     -1.98      0.00
   -2  -14   22      0.27      0.00
   -1  -14   22      3.37      0.00
    0  -14   22     -0.04      0.00
    1  -14   22     -2.76      0.00
   -5  -13   22     -1.78      0.00
   -4  -13   22      2.82      0.00
   -3  -13   22      0.93      0.00
   -2  -13   22      0.78      0.00
   -1  -13   22     -0.51      0.00
    0  -13   22     -0.05      0.00
    1  -13   22      2.78      0.00
    2  -13   22      0.81      0.00
    3  -13   22     -0.44      0.00
   -7  -12   22      1.98      0.00
   -6  -12   22     -0.19      0.00
   -5  -12   22      2.21      0.00
   -4  -12   22     -1.86      0.00
   -3  -12   22     -1.13      0.00
   -2  -12   22     -3.34      0.00
   -1  -12   22     -2.45      0.00
    0  -12   22     -2.16      0.00
    1  -12   22     -3.80      0.00
    2  -12   22      0.50      0.00
    3  -12   22      5.47      0.00
    4  -12   22     -1.01      0.00
   -8  -11   22      0.44      0.00
   -7  -11   22     -2.89      0.00
   -6  -11   22     -0.05      0.00
   -5  -11   22     -1.24      0.00
   -4  -11   22      2.16      0.00
   -3  -11   22      1.69      0.00
   -2  -11   22      5.39      0.00
   -1  -11   22      2.67      0.00
    0  -11   22      3.03      0.00
    1  -11   22      0.71      0.00
    2  -11   22     -2.01      0.00
    3  -11   22     -3.84      0.00
    4  -11   22      0.42      0.00
   -9  -10   22     -1.40      0.00
   -8  -10   22      0.93      0.00
   -7  -10   22      3.45      0.00
   -6  -10   22     -0.34      0.00
   -5  -10   22     -0.37      0.00
   -4  -10   22     -2.82      0.00
   -3  -10   22     -0.39      0.00
   -2  -10   22     -4.58      0.00
   -1  -10   22      0.49      0.00
    0  -10   22     -0.88      0.00
    1  -10   22      0.82      0.00
    2  -10   22      0.05      0.00
    3  -10   22      0.66      0.00
    4  -10   22      2.85      0.00
    5  -10   22      0.13      0.00
  -10   -9   22      1.36      0.00
   -9   -9   22     -0.11      0.00
   -8   -9   22     -2.93      0.00
   -7   -9   22     -0.37      0.00
   -6   -9   22      1.77      0.00
   -5   -9   22      1.23      0.00
   -4   -9   22      2.69      0.00
   -3   -9   22     -4.58      0.00
   -2   -9   22      0.30      0.00
   -1   -9   22      0.92      0.00
    0   -9   22      0.04      0.00
    1   -9   22     -1.67      0.00
    2   -9   22     -0.15      0.00
    3   -9   22      1.30      0.00
    4   -9   22     -1.70      0.00
    5   -9   22      0.43      0.00
  -11   -8   22      3.08      0.00
  -10   -8   22      0.90      0.00
   -9   -8   22      0.98      0.00
   -8   -8   22      0.11      0.00
   -7   -8   22     -1.89      0.00
   -6   -8   22     -2.20      0.00
   -5   -8   22     -0.54      0.00
   -4   -8   22     -0.78      0.00
   -3   -8   22      5.78      0.00
   -2   -8   22      3.31      0.00
   -1   -8   22     -3.20      0.00
    0   -8   22      0.93      0.00
    1   -8   22      2.80      0.00
    2   -8   22     -0.03      0.00
    3   -8   22     -3.34      0.00
    4   -8   22      1.71      0.00
    5   -8   22      1.77      0.00
  -12   -7   22      0.58      0.00
  -11   -7   22     -3.30      0.00
  -10   -7   22      0.49      0.00
   -9   -7   22      1.59      0.00
   -8   -7   22      3.60      0.00
   -7   -7   22     -0.33      0.00
   -6   -7   22     -1.00      0.00
   -5   -7   22     -0.09      0.00
   -4   -7   22      0.56      0.00
   -3   -7   22     -2.46      0.00
   -2   -7   22     -6.43      0.00
   -1   -7   22      1.28      0.00
    0   -7   22     -0.28      0.00
    1   -7   22     -1.57      0.00
    2   -7   22     -0.09      0.00
    3   -7   22      1.97      0.00
    4   -7   22     -2.51      0.00
    5   -7   22      0.77      0.00
  -13   -6   22      1.42      0.00
  -12   -6   22     -2.10      0.00
  -11   -6   22     -1.98      0.00
  -10   -6   22     -2.93      0.00
   -9   -6   22     -0.34      0.00
   -8   -6   22     -2.11      0.00
   -7   -6   22      2.03      0.00
   -6   -6   22      3.38      0.00
   -5   -6   22      0.73      0.00
   -4   -6   22      0.29      0.00
   -3   -6   22     -0.14      0.00
   -2   -6   22      5.96      0.00
   -1   -6   22      0.93      0.00
    0   -6   22     -0.90      0.00
    1   -6   22      0.58      0.00
    2   -6   22      1.84      0.00
    3   -6   22     -2.63      0.00
    4   -6   22      0.28      0.00
    5   -6   22     -1.19      0.00
  -14   -5   22     -0.28      0.00
  -13   -5   22      2.36      0.00
  -12   -5   22      4.00      0.00
  -11   -5   22      2.53      0.00
  -10   -5   22      2.44      0.00
   -9   -5   22     -2.00      0.00
   -8   -5   22     -1.55      0.00
   -7   -5   22     -2.06      0.00
   -6   -5   22     -2.76      0.00
   -5   -5   22     -1.72      0.00
   -4   -5   22     -0.87      0.00
   -3   -5   22      0.89      0.00
   -2   -5   22     -3.38      0.00
   -1   -5   22     -1.02      0.00
    0   -5   22      0.91      0.00
    1   -5   22      0.24      0.00
    2   -5   22     -2.69      0.00
    3   -5   22      4.25      0.00
    4   -5   22     -0.52      0.00
    5   -5   22     -1.32      0.00
  -14   -4   22     -3.52      0.00
  -13   -4   22     -2.92      0.00
  -12   -4   22     -0.42      0.00
  -11   -4   22     -0.44      0.00
  -10   -4   22     -2.24      0.00
   -9   -4   22      2.45      0.00
   -8   -4   22      2.92      0.00
   -7   -4   22      2.15      0.00
   -6   -4   22      0.66      0.00
   -5   -4   22     -0.36      0.00
   -4   -4   22      1.55      0.00
   -3   -4   22      0.16      0.00
   -2   -4   22      1.20      0.00
   -1   -4   22      0.78      0.00
    0   -4   22     -0.53      0.00
    1   -4   22     -1.12      0.00
    2   -4   22      3.79      0.00
    3   -4   22     -2.99      0.00
    4   -4   22     -0.21      0.00
    5   -4   22      1.19      0.00
  -15   -3   22      2.32      0.00
  -14   -3   22      1.87      0.00
  -13   -3   22      0.02      0.00
  -12   -3   22     -0.50      0.00
  -11   -3   22     -0.39      0.00
  -10   -3   22      2.15      0.00
   -9   -3   22     -1.80      0.00
   -8   -3   22      0.51      0.00
   -7   -3   22     -2.24      0.00
   -6   -3   22     -0.42      0.00
   -5   -3   22      3.44      0.00
   -4   -3   22     -2.13      0.00
   -3   -3   22     -1.34      0.00
   -2   -3   22     -2.60      0.00
   -1   -3   22     -0.19      0.00
    0   -3   22      0.60      0.00
    1   -3   22      0.49      0.00
    2   -3   22     -1.88      0.00
    3   -3   22      1.48      0.00
    4   -3   22      0.24      0.00
  -16   -2   22     -0.98      0.00
  -15   -2   22     -1.90      0.00
  -14   -2   22      3.04      0.00
  -13   -2   22     -1.23      0.00
  -12   -2   22      0.35      0.00
  -11   -2   22      0.23      0.00
  -10   -2   22     -3.56      0.00
   -9   -2   22      0.03      0.00
   -8   -2   22     -1.76      0.00
   -7   -2   22      2.24      0.00
   -6   -2   22     -0.61      0.00
   -5   -2   22     -2.69      0.00
   -4   -2   22      3.51      0.00
   -3   -2   22      2.04      0.00
   -2   -2   22      2.67      0.00
   -1   -2   22     -1.46      0.00
    0   -2   22      0.22      0.00
    1   -2   22     -1.62      0.00
    2   -2   22     -0.60      0.00
    3   -2   22      1.21      0.00
    4   -2   22      0.35      0.00
  -16   -1   22     -0.37      0.00
  -15   -1   22      0.60      0.00
  -14   -1   22     -2.27      0.00
  -13   -1   22      1.96      0.00
  -12   -1   22      0.54      0.00
  -11   -1   22      1.36      0.00
  -10   -1   22      0.93      0.00
   -9   -1   22     -0.68      0.00
   -8   -1   22      2.23      0.00
   -7   -1   22      0.51      0.00
   -6   -1   22     -0.43      0.00
   -5   -1   22     -1.06      0.00
   -4   -1   22     -3.80      0.00
   -3   -1   22      0.17      0.00
   -2   -1   22      0.72      0.00
   -1   -1   22      0.63      0.00
    0   -1   22     -0.42      0.00
    1   -1   22      2.84      0.00
    2   -1   22     -0.98      0.00
    3   -1   22     -0.59      0.00
    4   -1   22      1.61      0.00
  -17    0   22      3.00      0.00
  -16    0   22      0.94      0.00
  -15    0   22     -2.76      0.00
  -14    0   22      1.29      0.00
  -13    0   22     -1.09      0.00
  -12    0   22     -2.52      0.00
  -11    0   22      2.19      0.00
  -10    0   22      2.82      0.00
   -9    0   22      0.17      0.00
   -8    0   22     -4.14      0.00
   -7    0   22     -0.28      0.00
   -6    0   22      2.92      0.00
   -5    0   22      0.39      0.00
   -4    0   22      2.89      0.00
   -3    0   22     -1.80      0.00
   -2    0   22     -1.22      0.00
   -1    0   22     -1.00      0.00
    0    0   22     -0.30      0.00
    1    0   22     -1.14      0.00
    2    0   22      0.79      0.00
    3    0   22     -1.29      0.00
  -17    1   22     -0.88      0.00
  -16    1   22      2.41      0.00
  -15    1   22      1.95      0.00
  -14    1   22     -2.60      0.00
  -13    1   22      0.48      0.00
  -12    1   22     -0.22      0.00
  -11    1   22     -4.60      0.00
  -10    1   22     -0.29      0.00
   -9    1   22     -0.39      0.00
   -8    1   22      1.94      0.00
   -7    1   22     -0.91      0.00
   -6    1   22     -2.45      0.00
   -5    1   22     -0.74      0.00
   -4    1   22     -0.98      0.00
   -3    1   22      2.36      0.00
   -2    1   22     -1.74      0.00
   -1    1   22      4.52      0.00
    0    1   22      0.25      0.00
    1    1   22     -1.28      0.00
    2    1   22      0.96      0.00
    3    1   22      0.64      0.00
  -17    2   22     -0.94      0.00
  -16    2   22     -1.91      0.00
  -15    2   22      0.82      0.00
  -14    2   22      0.65      0.00
  -13    2   22      1.33      0.00
  -12    2   22      3.50      0.00
  -11    2   22      2.97      0.00
  -10    2   22     -2.08      0.00
   -9    2   22      1.80      0.00
   -8    2   22      0.69      0.00
   -7    2   22      1.92      0.00
   -6    2   22      2.69      0.00
   -5    2   22      0.07      0.00
   -4    2   22     -1.96      0.00
   -3    2   22     -2.46      0.00
   -2    2   22      2.52      0.00
   -1    2   22     -3.30      0.00
    0    2   22      1.45      0.00
    1    2   22      0.49      0.00
    2    2   22     -1.55      0.00
  -18    3   22     -0.25      0.00
  -17    3   22      0.56      0.00
  -16    3   22      0.04      0.00
  -15    3   22     -1.19      0.00
  -14    3   22      0.15      0.00
  -13    3   22     -0.97      0.00
  -12    3   22     -4.08      0.00
  -11    3   22     -1.93      0.00
  -10    3   22      2.74      0.00
   -9    3   22     -3.88      0.00
   -8    3   22     -0.34      0.00
   -7    3   22     -1.85      0.00
   -6    3   22     -0.28      0.00
   -5    3   22      1.80      0.00
   -4    3   22      0.26      0.00
   -3    3   22      4.00      0.00
   -2    3   22     -2.00      0.00
   -1    3   22     -3.84      0.00
    0    3   22     -0.93      0.00
    1    3   22      2.88      0.00
  -18    4   22      0.26      0.00
  -17    4   22     -1.60      0.00
  -16    4   22     -0.15      0.00
  -15    4   22      3.15      0.00
  -14    4   22      0.22      0.00
  -13    4   22     -3.13      0.00
  -12    4   22      2.14      0.00
  -11    4   22      2.51      0.00
  -10    4   22     -1.34      0.00
   -9    4   22      2.99      0.00
   -8    4   22     -2.28      0.00
   -7    4   22     -0.49      0.00
   -6    4   22     -2.14      0.00
   -5    4   22      1.93      0.00
   -4    4   22      0.06      0.00
   -3    4   22     -5.14      0.00
   -2    4   22      4.01      0.00
   -1    4   22      5.79      0.00
    0    4   22     -0.35      0.00
    1    4   22     -3.59      0.00
  -18    5   22     -2.33      0.00
  -17    5   22      1.58      0.00
  -16    5   22      0.38      0.00
  -15    5   22     -1.70      0.00
  -14    5   22      2.07      0.00
  -13    5   22      3.63      0.00
  -12    5   22      0.92      0.00
  -11    5   22     -3.20      0.00
  -10    5   22      0.34      0.00
   -9    5   22      0.36      0.00
   -8    5   22      0.96      0.00
   -7    5   22      1.06      0.00
   -6    5   22      2.59      0.00
   -5    5   22     -3.31      0.00
   -4    5   22      3.26      0.00
   -3    5   22      1.73      0.00
   -2    5   22     -5.93      0.00
   -1    5   22     -2.00      0.00
    0    5   22      1.00      0.00
  -18    6   22      3.80      0.00
  -17    6   22     -0.18      0.00
  -16    6   22     -3.21      0.00
  -15    6   22     -3.43      0.00
  -14    6   22      0.79      0.00
  -13    6   22     -0.75      0.00
  -12    6   22     -3.86      0.00
  -11    6   22      0.37      0.00
  -10    6   22      2.44      0.00
   -9    6   22      2.20      0.00
   -8    6   22     -1.26      0.00
   -7    6   22     -1.95      0.00
   -6    6   22     -2.86      0.00
   -5    6   22      0.26      0.00
   -4    6   22     -3.67      0.00
   -3    6   22      2.46      0.00
   -2    6   22      5.46      0.00
   -1    6   22     -1.75      0.00
  -18    7   22     -1.04      0.00
  -17    7   22     -0.26      0.00
  -16    7   22      5.01      0.00
  -15    7   22      2.33      0.00
  -14    7   22     -4.27      0.00
  -13    7   22      0.24      0.00
  -12    7   22      2.96      0.00
  -11    7   22      2.68      0.00
  -10    7   22     -6.09      0.00
   -9    7   22     -2.95      0.00
   -8    7   22      6.43      0.00
   -7    7   22      0.78      0.00
   -6    7   22      0.60      0.00
   -5    7   22      2.05      0.00
   -4    7   22      2.86      0.00
   -3    7   22     -3.58      0.00
   -2    7   22     -4.26      0.00
  -18    8   22     -2.00      0.00
  -17    8   22      0.95      0.00
  -16    8   22     -1.47      0.00
  -15    8   22     -0.80      0.00
  -14    8   22      2.33      0.00
  -13    8   22      0.85      0.00
  -12    8   22     -1.53      0.00
  -11    8   22     -2.46      0.00
  -10    8   22      3.27      0.00
   -9    8   22     -0.71      0.00
   -8    8   22     -3.17      0.00
   -7    8   22      2.49      0.00
   -6    8   22     -2.98      0.00
   -5    8   22     -3.32      0.00
   -4    8   22      1.74      0.00
   -3    8   22      4.67      0.00
  -17    9   22     -2.22      0.00
  -16    9   22      0.20      0.00
  -15    9   22      1.33      0.00
  -14    9   22      0.25      0.00
  -13    9   22      1.04      0.00
  -12    9   22      0.99      0.00
  -11    9   22     -0.66      0.00
  -10    9   22      1.63      0.00
   -9    9   22     -0.91      0.00
   -8    9   22     -3.91      0.00
   -7    9   22      0.70      0.00
   -6    9   22      7.84      0.00
   -5    9   22     -1.78      0.00
   -4    9   22     -8.11      0.00
  -17   10   22      1.98      0.00
  -16   10   22     -2.41      0.00
  -15   10   22     -1.48      0.00
  -14   10   22     -2.87      0.00
  -13   10   22     -2.25      0.00
  -12   10   22     -0.01      0.00
  -11   10   22      3.18      0.00
  -10   10   22     -0.26      0.00
   -9   10   22      1.89      0.00
   -8   10   22      2.92      0.00
   -7   10   22     -1.46      0.00
   -6   10   22     -4.66      0.00
  -16   11   22      4.50      0.00
  -15   11   22      1.75      0.00
  -14   11   22      1.81      0.00
  -13   11   22      1.39      0.00
  -12   11   22      2.44      0.00
  -11   11   22     -5.78      0.00
  -10   11   22     -3.29      0.00
   -9   11   22      1.85      0.00
   -8   11   22     -1.07      0.00
  -15   12   22     -1.30      0.00
  -14   12   22     -0.53      0.00
  -13   12   22     -2.04      0.00
  -12   12   22     -3.34      0.00
  -11   12   22      7.02      0.00
  -10   12   22      3.71      0.00
   -5  -12   23      0.78      0.00
   -4  -12   23     -0.65      0.00
   -3  -12   23     -2.01      0.00
   -2  -12   23     -3.80      0.00
   -1  -12   23     -2.95      0.00
    0  -12   23     -1.72      0.00
    1  -12   23     -2.08      0.00
    2  -12   23      3.44      0.00
   -7  -11   23     -0.78      0.00
   -6  -11   23     -1.13      0.00
   -5  -11   23      0.08      0.00
   -4  -11   23      2.72      0.00
   -3  -11   23      4.12      0.00
   -2  -11   23      4.15      0.00
   -1  -11   23      4.10      0.00
    0  -11   23      1.31      0.00
    1  -11   23     -1.08      0.00
    2  -11   23     -1.16      0.00
    3  -11   23     -1.30      0.00
   -8  -10   23      3.32      0.00
   -7  -10   23      0.15      0.00
   -6  -10   23      0.15      0.00
   -5  -10   23     -2.62      0.00
   -4  -10   23     -2.67      0.00
   -3  -10   23     -2.94      0.00
   -2  -10   23     -1.23      0.00
   -1  -10   23     -2.66      0.00
    0  -10   23     -1.98      0.00
    1  -10   23      0.94      0.00
    2  -10   23     -2.31      0.00
    3  -10   23      3.63      0.00
  -10   -9   23      0.85      0.00
   -9   -9   23     -1.29      0.00
   -8   -9   23     -1.90      0.00
   -7   -9   23      2.27      0.00
   -6   -9   23      0.34      0.00
   -5   -9   23      3.74      0.00
   -4   -9   23     -0.32      0.00
   -3   -9   23     -1.07      0.00
   -2   -9   23      1.07      0.00
   -1   -9   23      2.55      0.00
    0   -9   23      1.70      0.00
    1   -9   23     -1.96      0.00
    2   -9   23      3.16      0.00
    3   -9   23     -1.67      0.00
  -10   -8   23     -0.77      0.00
   -9   -8   23     -0.66      0.00
   -8   -8   23     -1.23      0.00
   -7   -8   23     -2.64      0.00
   -6   -8   23     -0.36      0.00
   -5   -8   23     -2.28      0.00
   -4   -8   23      2.31      0.00
   -3   -8   23      3.78      0.00
   -2   -8   23     -1.87      0.00
   -1   -8   23     -2.27      0.00
    0   -8   23      0.70      0.00
    1   -8   23      1.76      0.00
    2   -8   23     -4.69      0.00
    3   -8   23     -0.30      0.00
    4   -8   23      0.38      0.00
  -11   -7   23     -1.91      0.00
  -10   -7   23      2.59      0.00
   -9   -7   23      3.16      0.00
   -8   -7   23      1.13      0.00
   -7   -7   23     -0.44      0.00
   -6   -7   23      0.39      0.00
   -5   -7   23      0.45      0.00
   -4   -7   23     -1.47      0.00
   -3   -7   23     -3.95      0.00
   -2   -7   23     -0.88      0.00
   -1   -7   23      2.47      0.00
    0   -7   23      0.15      0.00
    1   -7   23     -0.51      0.00
    2   -7   23      3.77      0.00
    3   -7   23      0.09      0.00
    4   -7   23     -0.06      0.00
  -12   -6   23     -4.03      0.00
  -11   -6   23     -0.41      0.00
  -10   -6   23     -1.72      0.00
   -9   -6   23     -1.02      0.00
   -8   -6   23     -0.41      0.00
   -7   -6   23      3.18      0.00
   -6   -6   23      0.69      0.00
   -5   -6   23      0.46      0.00
   -4   -6   23     -0.07      0.00
   -3   -6   23      1.54      0.00
   -2   -6   23      3.16      0.00
   -1   -6   23     -2.64      0.00
    0   -6   23     -2.18      0.00
    1   -6   23      0.76      0.00
    2   -6   23     -2.72      0.00
    3   -6   23     -1.61      0.00
    4   -6   23      0.27      0.00
  -13   -5   23      1.61      0.00
  -12   -5   23      3.86      0.00
  -11   -5   23      0.60      0.00
  -10   -5   23      0.11      0.00
   -9   -5   23     -2.76      0.00
   -8   -5   23      0.22      0.00
   -7   -5   23     -2.77      0.00
   -6   -5   23     -1.85      0.00
   -5   -5   23      0.16      0.00
   -4   -5   23      0.25      0.00
   -3   -5   23      0.09      0.00
   -2   -5   23     -1.93      0.00
   -1   -5   23      1.41      0.00
    0   -5   23      3.32      0.00
    1   -5   23     -1.43      0.00
    2   -5   23      1.69      0.00
    3   -5   23      2.33      0.00
    4   -5   23     -2.14      0.00
  -14   -4   23     -3.49      0.00
  -13   -4   23      1.09      0.00
  -12   -4   23     -0.96      0.00
  -11   -4   23     -0.57      0.00
  -10   -4   23     -0.56      0.00
   -9   -4   23      4.59      0.00
   -8   -4   23     -0.55      0.00
   -7   -4   23      1.05      0.00
   -6   -4   23      1.15      0.00
   -5   -4   23     -0.66      0.00
   -4   -4   23      1.51      0.00
   -3   -4   23      0.34      0.00
   -2   -4   23      0.46      0.00
   -1   -4   23     -0.50      0.00
    0   -4   23     -3.47      0.00
    1   -4   23      2.94      0.00
    2   -4   23     -0.24      0.00
    3   -4   23     -3.73      0.00
  -14   -3   23     -0.35      0.00
  -13   -3   23     -0.75      0.00
  -12   -3   23     -0.81      0.00
  -11   -3   23      0.59      0.00
  -10   -3   23      1.65      0.00
   -9   -3   23     -2.54      0.00
   -8   -3   23      0.58      0.00
   -7   -3   23     -2.42      0.00
   -6   -3   23      1.09      0.00
   -5   -3   23      0.95      0.00
   -4   -3   23     -3.26      0.00
   -3   -3   23     -3.68      0.00
   -2   -3   23     -0.02      0.00
   -1   -3   23      2.06      0.00
    0   -3   23      1.36      0.00
    1   -3   23     -1.34      0.00
    2   -3   23      0.66      0.00
    3   -3   23      2.85      0.00
  -15   -2   23      1.01      0.00
  -14   -2   23      1.09      0.00
  -13   -2   23     -1.19      0.00
  -12   -2   23      1.80      0.00
  -11   -2   23     -2.13      0.00
  -10   -2   23     -2.26      0.00
   -9   -2   23      2.12      0.00
   -8   -2   23      0.86      0.00
   -7   -2   23      0.90      0.00
   -6   -2   23     -1.38      0.00
   -5   -2   23      1.65      0.00
   -4   -2   23      4.13      0.00
   -3   -2   23      3.48      0.00
   -2   -2   23     -2.27      0.00
   -1   -2   23     -1.53      0.00
    0   -2   23     -0.13      0.00
    1   -2   23     -2.99      0.00
    2   -2   23      0.68      0.00
    3   -2   23     -0.17      0.00
  -15   -1   23     -0.34      0.00
  -14   -1   23     -0.52      0.00
  -13   -1   23      0.98      0.00
  -12   -1   23     -0.11      0.00
  -11   -1   23      0.74      0.00
  -10   -1   23     -0.41      0.00
   -9   -1   23     -1.29      0.00
   -8   -1   23      1.88      0.00
   -7   -1   23      0.18      0.00
   -6   -1   23     -3.30      0.00
   -5   -1   23     -2.99      0.00
   -4   -1   23     -1.71      0.00
   -3   -1   23      1.85      0.00
   -2   -1   23      1.64      0.00
   -1   -1   23     -0.67      0.00
    0   -1   23      1.59      0.00
    1   -1   23      3.04      0.00
    2   -1   23     -1.31      0.00
  -16    0   23     -1.95      0.00
  -15    0   23     -1.18      0.00
  -14    0   23      1.56      0.00
  -13    0   23     -1.93      0.00
  -12    0   23      1.50      0.00
  -11    0   23      3.06      0.00
  -10    0   23     -0.04      0.00
   -9    0   23     -2.10      0.00
   -8    0   23     -1.76      0.00
   -7    0   23      3.57      0.00
   -6    0   23      2.92      0.00
   -5    0   23      0.88      0.00
   -4    0   23      0.66      0.00
   -3    0   23     -3.71      0.00
   -2    0   23     -0.37      0.00
   -1    0   23     -0.75      0.00
    0    0   23     -0.70      0.00
    1    0   23     -1.82      0.00
    2    0   23     -0.31      0.00
  -16    1   23      1.82      0.00
  -15    1   23     -0.91      0.00
  -14    1   23     -0.95      0.00
  -13    1   23      0.42      0.00
  -12    1   23     -3.39      0.00
  -11    1   23     -1.51      0.00
  -10    1   23      1.58      0.00
   -9    1   23     -0.26      0.00
   -8    1   23     -1.13      0.00
   -7    1   23     -3.57      0.00
   -6    1   23     -1.36      0.00
   -5    1   23      0.56      0.00
   -4    1   23      0.74      0.00
   -3    1   23      1.38      0.00
   -2    1   23      1.26      0.00
   -1    1   23      3.26      0.00
    0    1   23     -1.81      0.00
    1    1   23      2.22      0.00
  -17    2   23     -2.30      0.00
  -16    2   23      0.14      0.00
  -15    2   23      0.91      0.00
  -14    2   23      1.10      0.00
  -13    2   23      2.21      0.00
  -12    2   23      1.73      0.00
  -11    2   23      0.39      0.00
  -10    2   23     -0.35      0.00
   -9    2   23      3.34      0.00
   -8    2   23      1.36      0.00
   -7    2   23      3.25      0.00
   -6    2   23      0.20      0.00
   -5    2   23     -3.59      0.00
   -4    2   23     -1.50      0.00
   -3    2   23      0.61      0.00
   -2    2   23     -0.11      0.00
   -1    2   23     -3.26      0.00
    0    2   23      1.68      0.00
    1    2   23     -2.25      0.00
  -17    3   23      0.88      0.00
  -16    3   23     -0.15      0.00
  -15    3   23     -1.41      0.00
  -14    3   23     -0.37      0.00
  -13    3   23     -2.00      0.00
  -12    3   23     -1.79      0.00
  -11    3   23     -0.38      0.00
  -10    3   23     -1.66      0.00
   -9    3   23     -2.59      0.00
   -8    3   23      0.62      0.00
   -7    3   23     -1.69      0.00
   -6    3   23      2.76      0.00
   -5    3   23      0.91      0.00
   -4    3   23      0.92      0.00
   -3    3   23      1.23      0.00
   -2    3   23     -4.33      0.00
   -1    3   23      1.81      0.00
    0    3   23      0.84      0.00
  -17    4   23     -1.42      0.00
  -16    4   23      1.62      0.00
  -15    4   23      2.32      0.00
  -14    4   23     -3.51      0.00
  -13    4   23      0.21      0.00
  -12    4   23      3.20      0.00
  -11    4   23      1.37      0.00
  -10    4   23      1.28      0.00
   -9    4   23     -0.86      0.00
   -8    4   23     -3.06      0.00
   -7    4   23      0.02      0.00
   -6    4   23      1.03      0.00
   -5    4   23      2.40      0.00
   -4    4   23     -4.60      0.00
   -3    4   23     -0.87      0.00
   -2    4   23      7.12      0.00
   -1    4   23     -1.42      0.00
  -17    5   23      2.60      0.00
  -16    5   23     -1.73      0.00
  -15    5   23      0.68      0.00
  -14    5   23      2.99      0.00
  -13    5   23      1.07      0.00
  -12    5   23     -3.25      0.00
  -11    5   23     -2.46      0.00
  -10    5   23      2.22      0.00
   -9    5   23      0.74      0.00
   -8    5   23      1.36      0.00
   -7    5   23      0.29      0.00
   -6    5   23     -2.37      0.00
   -5    5   23      0.57      0.00
   -4    5   23      4.67      0.00
   -3    5   23     -2.82      0.00
   -2    5   23     -4.56      0.00
  -17    6   23     -3.42      0.00
  -16    6   23     -2.10      0.00
  -15    6   23      0.07      0.00
  -14    6   23      2.21      0.00
  -13    6   23     -2.32      0.00
  -12    6   23     -0.43      0.00
  -11    6   23      2.44      0.00
  -10    6   23      0.86      0.00
   -9    6   23     -0.58      0.00
   -8    6   23     -1.94      0.00
   -7    6   23     -1.80      0.00
   -6    6   23     -1.35      0.00
   -5    6   23     -0.73      0.00
   -4    6   23     -0.20      0.00
   -3    6   23      3.06      0.00
  -17    7   23      3.05      0.00
  -16    7   23      1.66      0.00
  -15    7   23     -3.67      0.00
  -14    7   23     -2.90      0.00
  -13    7   23      2.17      0.00
  -12    7   23      4.54      0.00
  -11    7   23     -2.77      0.00
  -10    7   23     -4.56      0.00
   -9    7   23      6.79      0.00
   -8    7   23      3.09      0.00
   -7    7   23     -1.24      0.00
   -6    7   23      2.46      0.00
   -5    7   23      1.17      0.00
   -4    7   23     -1.72      0.00
  -17    8   23      0.50      0.00
  -16    8   23      0.46      0.00
  -15    8   23      1.75      0.00
  -14    8   23      1.84      0.00
  -13    8   23     -2.40      0.00
  -12    8   23     -5.00      0.00
  -11    8   23      1.23      0.00
  -10    8   23      1.22      0.00
   -9    8   23     -6.07      0.00
   -8    8   23      1.32      0.00
   -7    8   23      1.33      0.00
   -6    8   23     -4.40      0.00
   -5    8   23     -0.20      0.00
  -16    9   23      0.57      0.00
  -15    9   23      1.19      0.00
  -14    9   23      0.31      0.00
  -13    9   23      3.09      0.00
  -12    9   23      1.06      0.00
  -11    9   23      0.66      0.00
  -10    9   23     -0.24      0.00
   -9    9   23     -1.37      0.00
   -8    9   23     -1.07      0.00
   -7    9   23      4.59      0.00
   -6    9   23      1.76      0.00
  -15   10   23     -3.22      0.00
  -14   10   23     -1.12      0.00
  -13   10   23     -1.09      0.00
  -12   10   23      1.57      0.00
  -11   10   23      1.83      0.00
  -10   10   23      1.32      0.00
   -9   10   23      1.28      0.00
   -8   10   23     -0.02      0.00
  -14   11   23     -0.63      0.00
  -13   11   23      1.90      0.00
  -12   11   23     -2.61      0.00
  -11   11   23     -6.23      0.00
   -5  -11   24      3.92      0.00
   -4  -11   24      2.27      0.00
   -3  -11   24      3.55      0.00
   -2  -11   24      3.23      0.00
   -1  -11   24      2.78      0.00
    0  -11   24     -0.40      0.00
   -7  -10   24     -1.63      0.00
   -6  -10   24     -0.20      0.00
   -5  -10   24     -5.02      0.00
   -4  -10   24     -1.38      0.00
   -3  -10   24     -1.30      0.00
   -2  -10   24     -2.81      0.00
   -1  -10   24     -4.35      0.00
    0  -10   24     -0.10      0.00
    1  -10   24     -0.54      0.00
   -8   -9   24      1.18      0.00
   -7   -9   24      2.64      0.00
   -6   -9   24      1.30      0.00
   -5   -9   24      3.81      0.00
   -4   -9   24     -1.06      0.00
   -3   -9   24      0.60      0.00
   -2   -9   24      2.75      0.00
   -1   -9   24      3.72      0.00
    0   -9   24     -0.13      0.00
    1   -9   24     -0.37      0.00
   -9   -8   24     -1.93      0.00
   -8   -8   24     -1.52      0.00
   -7   -8   24     -2.44      0.00
   -6   -8   24     -1.34      0.00
   -5   -8   24     -1.85      0.00
   -4   -8   24      2.92      0.00
   -3   -8   24     -0.99      0.00
   -2   -8   24     -3.01      0.00
   -1   -8   24     -0.48      0.00
    0   -8   24     -0.28      0.00
    1   -8   24     -0.52      0.00
    2   -8   24     -4.36      0.00
  -10   -7   24      2.85      0.00
   -9   -7   24      2.85      0.00
   -8   -7   24     -0.26      0.00
   -7   -7   24      2.10      0.00
   -6   -7   24      0.21      0.00
   -5   -7   24      0.57      0.00
   -4   -7   24     -1.39      0.00
   -3   -7   24     -0.06      0.00
   -2   -7   24      2.76      0.00
   -1   -7   24      0.64      0.00
    0   -7   24      1.66      0.00
    1   -7   24      0.25      0.00
    2   -7   24      4.27      0.00
  -11   -6   24     -0.10      0.00
  -10   -6   24     -0.86      0.00
   -9   -6   24     -2.17      0.00
   -8   -6   24      1.42      0.00
   -7   -6   24     -0.08      0.00
   -6   -6   24      0.02      0.00
   -5   -6   24     -2.06      0.00
   -4   -6   24     -1.63      0.00
   -3   -6   24      1.76      0.00
   -2   -6   24     -1.79      0.00
   -1   -6   24     -2.85      0.00
    0   -6   24     -2.31      0.00
    1   -6   24      0.84      0.00
    2   -6   24     -4.07      0.00
  -12   -5   24      1.60      0.00
  -11   -5   24     -0.63      0.00
  -10   -5   24     -1.68      0.00
   -9   -5   24      0.77      0.00
   -8   -5   24     -0.22      0.00
   -7   -5   24     -1.25      0.00
   -6   -5   24      1.26      0.00
   -5   -5   24      2.90      0.00
   -4   -5   24      0.79      0.00
   -3   -5   24     -0.72      0.00
   -2   -5   24      0.77      0.00
   -1   -5   24      3.55      0.00
    0   -5   24      2.51      0.00
    1   -5   24     -2.84      0.00
    2   -5   24      3.43      0.00
  -13   -4   24      1.37      0.00
  -12   -4   24     -0.74      0.00
  -11   -4   24     -0.63      0.00
  -10   -4   24      2.57      0.00
   -9   -4   24      0.05      0.00
   -8   -4   24     -2.30      0.00
   -7   -4   24      1.84      0.00
   -6   -4   24     -0.72      0.00
   -5   -4   24     -1.29      0.00
   -4   -4   24      1.45      0.00
   -3   -4   24     -0.80      0.00
   -2   -4   24     -0.63      0.00
   -1   -4   24     -2.76      0.00
    0   -4   24     -0.49      0.00
    1   -4   24      3.76      0.00
    2   -4   24     -4.61      0.00
  -14   -3   24     -0.93      0.00
  -13   -3   24     -2.08      0.00
  -12   -3   24     -0.91      0.00
  -11   -3   24      2.62      0.00
  -10   -3   24     -1.17      0.00
   -9   -3   24     -0.45      0.00
   -8   -3   24      0.23      0.00
   -7   -3   24     -1.36      0.00
   -6   -3   24      1.15      0.00
   -5   -3   24     -0.11      0.00
   -4   -3   24     -4.67      0.00
   -3   -3   24     -0.64      0.00
   -2   -3   24      3.81      0.00
   -1   -3   24      0.46      0.00
    0   -3   24     -0.47      0.00
    1   -3   24     -0.39      0.00
    2   -3   24      3.64      0.00
  -14   -2   24     -0.77      0.00
  -13   -2   24      2.60      0.00
  -12   -2   24      0.47      0.00
  -11   -2   24     -3.81      0.00
  -10   -2   24      1.54      0.00
   -9   -2   24      3.01      0.00
   -8   -2   24     -0.59      0.00
   -7   -2   24     -1.18      0.00
   -6   -2   24      0.78      0.00
   -5   -2   24      1.91      0.00
   -4   -2   24      4.61      0.00
   -3   -2   24     -0.66      0.00
   -2   -2   24     -4.86      0.00
   -1   -2   24      2.43      0.00
    0   -2   24     -2.57      0.00
    1   -2   24     -1.88      0.00
  -15   -1   24     -1.05      0.00
  -14   -1   24     -0.41      0.00
  -13   -1   24     -1.04      0.00
  -12   -1   24      0.04      0.00
  -11   -1   24      1.11      0.00
  -10   -1   24     -1.85      0.00
   -9   -1   24     -0.10      0.00
   -8   -1   24      2.92      0.00
   -7   -1   24     -2.43      0.00
   -6   -1   24     -2.96      0.00
   -5   -1   24     -0.45      0.00
   -4   -1   24      0.90      0.00
   -3   -1   24      1.36      0.00
   -2   -1   24      0.76      0.00
   -1   -1   24     -1.45      0.00
    0   -1   24      3.92      0.00
    1   -1   24      1.36      0.00
  -15    0   24      1.80      0.00
  -14    0   24      0.30      0.00
  -13    0   24      0.55      0.00
  -12    0   24      2.30      0.00
  -11    0   24     -0.69      0.00
  -10    0   24     -1.58      0.00
   -9    0   24     -2.01      0.00
   -8    0   24      1.73      0.00
   -7    0   24      3.64      0.00
   -6    0   24     -0.68      0.00
   -5    0   24     -0.04      0.00
   -4    0   24     -2.96      0.00
   -3    0   24     -0.39      0.00
   -2    0   24     -0.37      0.00
   -1    0   24      0.11      0.00
    0    0   24     -1.74      0.00
  -15    1   24     -0.73      0.00
  -14    1   24     -0.32      0.00
  -13    1   24     -1.62      0.00
  -12    1   24     -1.62      0.00
  -11    1   24      2.46      0.00
  -10    1   24     -0.18      0.00
   -9    1   24     -0.74      0.00
   -8    1   24     -2.33      0.00
   -7    1   24     -0.98      0.00
   -6    1   24      2.42      0.00
   -5    1   24      0.78      0.00
   -4    1   24      1.52      0.00
   -3    1   24     -0.17      0.00
   -2    1   24      2.59      0.00
   -1    1   24     -0.45      0.00
    0    1   24      0.76      0.00
  -16    2   24      0.79      0.00
  -15    2   24      0.67      0.00
  -14    2   24      1.85      0.00
  -13    2   24     -0.37      0.00
  -12    2   24      1.47      0.00
  -11    2   24     -0.89      0.00
  -10    2   24      3.10      0.00
   -9    2   24     -0.23      0.00
   -8    2   24      0.42      0.00
   -7    2   24      0.60      0.00
   -6    2   24     -4.37      0.00
   -5    2   24     -1.82      0.00
   -4    2   24      0.89      0.00
   -3    2   24      1.69      0.00
   -2    2   24     -2.97      0.00
   -1    2   24     -1.05      0.00
  -16    3   24     -1.37      0.00
  -15    3   24     -1.22      0.00
  -14    3   24     -0.26      0.00
  -13    3   24      0.11      0.00
  -12    3   24     -2.57      0.00
  -11    3   24     -0.74      0.00
  -10    3   24     -1.92      0.00
   -9    3   24      3.79      0.00
   -8    3   24     -0.14      0.00
   -7    3   24      1.21      0.00
   -6    3   24      1.86      0.00
   -5    3   24     -1.25      0.00
   -4    3   24      1.19      0.00
   -3    3   24     -2.57      0.00
   -2    3   24      0.78      0.00
  -16    4   24      2.47      0.00
  -15    4   24     -1.64      0.00
  -14    4   24     -1.72      0.00
  -13    4   24      2.30      0.00
  -12    4   24      3.13      0.00
  -11    4   24      0.34      0.00
  -10    4   24     -1.43      0.00
   -9    4   24     -5.63      0.00
   -8    4   24      0.36      0.00
   -7    4   24      1.93      0.00
   -6    4   24      3.17      0.00
   -5    4   24     -2.02      0.00
   -4    4   24     -3.89      0.00
   -3    4   24      4.37      0.00
   -2    4   24      1.18      0.00
  -16    5   24     -0.29      0.00
  -15    5   24      1.61      0.00
  -14    5   24      1.02      0.00
  -13    5   24     -1.94      0.00
  -12    5   24     -3.59      0.00
  -11    5   24      2.71      0.00
  -10    5   24      2.13      0.00
   -9    5   24      2.18      0.00
   -8    5   24     -1.30      0.00
   -7    5   24     -2.79      0.00
   -6    5   24     -0.13      0.00
   -5    5   24      4.72      0.00
   -4    5   24      0.50      0.00
   -3    5   24     -3.78      0.00
  -16    6   24     -0.35      0.00
  -15    6   24      2.95      0.00
  -14    6   24     -0.59      0.00
  -13    6   24     -1.78      0.00
  -12    6   24      1.07      0.00
  -11    6   24     -0.40      0.00
  -10    6   24     -0.36      0.00
   -9    6   24     -2.18      0.00
   -8    6   24     -0.38      0.00
   -7    6   24     -1.64      0.00
   -6    6   24     -1.01      0.00
   -5    6   24     -0.32      0.00
   -4    6   24      0.56      0.00
  -16    7   24     -2.15      0.00
  -15    7   24     -3.25      0.00
  -14    7   24      1.03      0.00
  -13    7   24      5.26      0.00
  -12    7   24      1.82      0.00
  -11    7   24     -4.95      0.00
  -10    7   24      3.78      0.00
   -9    7   24      6.11      0.00
   -8    7   24     -2.24      0.00
   -7    7   24      1.19      0.00
   -6    7   24      1.80      0.00
  -15    8   24      1.07      0.00
  -14    8   24     -2.05      0.00
  -13    8   24     -5.64      0.00
  -12    8   24     -1.83      0.00
  -11    8   24      3.45      0.00
  -10    8   24     -4.41      0.00
   -9    8   24     -2.80      0.00
   -8    8   24      4.43      0.00
   -7    8   24     -2.28      0.00
  -14    9   24      2.71      0.00
  -13    9   24      1.81      0.00
  -12    9   24      0.12      0.00
  -11    9   24     -0.89      0.00
  -10    9   24     -1.08      0.00
   -9    9   24      0.51      0.00
   -6   -9   25      2.69      0.00
   -5   -9   25      0.98      0.00
   -4   -9   25     -0.25      0.00
   -3   -9   25      0.56      0.00
   -2   -9   25      3.57      0.00
   -1   -9   25      0.30      0.00
   -8   -8   25     -2.39      0.00
   -7   -8   25     -1.65      0.00
   -6   -8   25     -2.31      0.00
   -5   -8   25      0.81      0.00
   -4   -8   25     -0.07      0.00
   -3   -8   25     -1.00      0.00
   -2   -8   25     -0.69      0.00
   -1   -8   25     -0.12      0.00
    0   -8   25      0.91      0.00
   -9   -7   25      1.06      0.00
   -8   -7   25      1.56      0.00
   -7   -7   25      1.29      0.00
   -6   -7   25      1.09      0.00
   -5   -7   25      0.66      0.00
   -4   -7   25      0.87      0.00
   -3   -7   25      1.07      0.00
   -2   -7   25      0.22      0.00
   -1   -7   25      0.74      0.00
    0   -7   25     -0.62      0.00
  -10   -6   25     -1.30      0.00
   -9   -6   25     -1.52      0.00
   -8   -6   25     -0.15      0.00
   -7   -6   25     -0.57      0.00
   -6   -6   25     -3.17      0.00
   -5   -6   25     -3.92      0.00
   -4   -6   25      0.72      0.00
   -3   -6   25      0.29      0.00
   -2   -6   25     -1.96      0.00
   -1   -6   25     -1.94      0.00
    0   -6   25      1.01      0.00
  -11   -5   25     -0.42      0.00
  -10   -5   25     -0.49      0.00
   -9   -5   25      2.29      0.00
   -8   -5   25      0.36      0.00
   -7   -5   25      0.93      0.00
   -6   -5   25      4.62      0.00
   -5   -5   25      1.69      0.00
   -4   -5   25     -1.67      0.00
   -3   -5   25      0.40      0.00
   -2   -5   25      2.34      0.00
   -1   -5   25      3.38      0.00
    0   -5   25     -2.65      0.00
  -12   -4   25      0.13      0.00
  -11   -4   25     -0.32      0.00
  -10   -4   25      1.65      0.00
   -9   -4   25     -3.75      0.00
   -8   -4   25     -0.52      0.00
   -7   -4   25      1.89      0.00
   -6   -4   25     -2.73      0.00
   -5   -4   25      0.50      0.00
   -4   -4   25      0.40      0.00
   -3   -4   25     -1.73      0.00
   -2   -4   25     -1.04      0.00
   -1   -4   25     -1.59      0.00
    0   -4   25      3.56      0.00
  -13   -3   25     -2.47      0.00
  -12   -3   25      1.46      0.00
  -11   -3   25      1.89      0.00
  -10   -3   25     -1.94      0.00
   -9   -3   25      0.77      0.00
   -8   -3   25     -0.39      0.00
   -7   -3   25     -2.17      0.00
   -6   -3   25      2.21      0.00
   -5   -3   25     -1.71      0.00
   -4   -3   25     -2.84      0.00
   -3   -3   25      4.42      0.00
   -2   -3   25      0.54      0.00
   -1   -3   25     -1.79      0.00
    0   -3   25      0.22      0.00
  -13   -2   25      2.69      0.00
  -12   -2   25     -2.82      0.00
  -11   -2   25     -1.46      0.00
  -10   -2   25      4.74      0.00
   -9   -2   25      1.11      0.00
   -8   -2   25     -3.41      0.00
   -7   -2   25      1.89      0.00
   -6   -2   25     -0.50      0.00
   -5   -2   25      2.43      0.00
   -4   -2   25      2.73      0.00
   -3   -2   25     -6.21      0.00
   -2   -2   25      1.04      0.00
   -1   -2   25      1.69      0.00
    0   -2   25     -4.05      0.00
  -14   -1   25     -0.98      0.00
  -13   -1   25     -0.69      0.00
  -12   -1   25      1.28      0.00
  -11   -1   25     -0.11      0.00
  -10   -1   25     -2.84      0.00
   -9   -1   25      1.86      0.00
   -8   -1   25      1.78      0.00
   -7   -1   25     -4.15      0.00
   -6   -1   25      1.81      0.00
   -5   -1   25      1.09      0.00
   -4   -1   25      0.01      0.00
   -3   -1   25      1.45      0.00
   -2   -1   25     -0.95      0.00
   -1   -1   25      0.44      0.00
  -14    0   25      0.48      0.00
  -13    0   25      0.83      0.00
  -12    0   25     -0.12      0.00
  -11    0   25     -1.89      0.00
  -10    0   25     -0.90      0.00
   -9    0   25      1.13      0.00
   -8    0   25      1.70      0.00
   -7    0   25     -0.10      0.00
   -6    0   25     -3.72      0.00
   -5    0   25     -1.81      0.00
   -4    0   25     -0.99      0.00
   -3    0   25      1.29      0.00
   -2    0   25     -0.83      0.00
   -1    0   25      0.65      0.00
  -14    1   25     -1.81      0.00
  -13    1   25     -0.14      0.00
  -12    1   25      0.69      0.00
  -11    1   25      1.22      0.00
  -10    1   25     -1.05      0.00
   -9    1   25     -0.80      0.00
   -8    1   25      0.93      0.00
   -7    1   25      2.60      0.00
   -6    1   25      3.66      0.00
   -5    1   25      0.36      0.00
   -4    1   25      0.56      0.00
   -3    1   25     -0.61      0.00
   -2    1   25      1.21      0.00
  -15    2   25      0.94      0.00
  -14    2   25      0.23      0.00
  -13    2   25     -0.44      0.00
  -12    2   25      1.86      0.00
  -11    2   25      0.69      0.00
  -10    2   25     -0.07      0.00
   -9    2   25     -4.03      0.00
   -8    2   25     -0.39      0.00
   -7    2   25     -2.68      0.00
   -6    2   25     -4.03      0.00
   -5    2   25      1.84      0.00
   -4    2   25      1.55      0.00
   -3    2   25      0.44      0.00
  -15    3   25      0.44      0.00
  -14    3   25      0.43      0.00
  -13    3   25     -1.06      0.00
  -12    3   25     -3.54      0.00
  -11    3   25      0.83      0.00
  -10    3   25      4.24      0.00
   -9    3   25      4.07      0.00
   -8    3   25     -0.67      0.00
   -7    3   25      1.43      0.00
   -6    3   25     -0.72      0.00
   -5    3   25     -0.73      0.00
   -4    3   25     -0.40      0.00
   -3    3   25     -1.45      0.00
  -15    4   25     -2.15      0.00
  -14    4   25      1.99      0.00
  -13    4   25      1.63      0.00
  -12    4   25      2.47      0.00
  -11    4   25     -3.27      0.00
  -10    4   25     -5.58      0.00
   -9    4   25     -1.91      0.00
   -8    4   25      3.31      0.00
   -7    4   25      2.77      0.00
   -6    4   25     -0.22      0.00
   -5    4   25     -3.92      0.00
   -4    4   25      0.65      0.00
  -15    5   25      0.34      0.00
  -14    5   25     -1.23      0.00
  -13    5   25     -1.75      0.00
  -12    5   25      0.39      0.00
  -11    5   25      3.84      0.00
  -10    5   25      1.92      0.00
   -9    5   25     -0.25      0.00
   -8    5   25     -3.89      0.00
   -7    5   25      0.32      0.00
   -6    5   25      4.40      0.00
   -5    5   25      1.85      0.00
  -14    6   25     -2.16      0.00
  -13    6   25     -0.77      0.00
  -12    6   25     -0.29      0.00
  -11    6   25     -0.45      0.00
  -10    6   25     -1.26      0.00
   -9    6   25     -1.06      0.00
   -8    6   25     -0.53      0.00
   -7    6   25     -2.45      0.00
  -13    7   25      4.30      0.00
  -12    7   25     -3.62      0.00
  -11    7   25     -0.58      0.00
  -10    7   25      6.28      0.00
   -9    7   25      0.10      0.00
   -8    7   25     -0.83      0.00
   -6   -7   26      2.04      0.00
   -5   -7   26      0.25      0.00
   -4   -7   26     -0.09      0.00
   -3   -7   26     -0.88      0.00
   -8   -6   26     -0.97      0.00
   -7   -6   26     -1.21      0.00
   -6   -6   26     -5.63      0.00
   -5   -6   26      0.86      0.00
   -4   -6   26      2.26      0.00
   -3   -6   26     -0.93      0.00
   -2   -6   26     -0.06      0.00
   -9   -5   26      2.00      0.00
   -8   -5   26      1.00      0.00
   -7   -5   26      1.56      0.00
   -6   -5   26      3.45      0.00
   -5   -5   26     -3.17      0.00
   -4   -5   26     -1.03      0.00
   -3   -5   26      2.55      0.00
   -2   -5   26      1.62      0.00
  -10   -4   26     -0.85      0.00
   -9   -4   26     -2.37      0.00
   -8   -4   26      2.15      0.00
   -7   -4   26      1.67      0.00
   -6   -4   26     -1.80      0.00
   -5   -4   26      1.26      0.00
   -4   -4   26     -0.88      0.00
   -3   -4   26     -1.79      0.00
   -2   -4   26     -0.18      0.00
  -11   -3   26     -0.23      0.00
  -10   -3   26     -1.86      0.00
   -9   -3   26     -0.65      0.00
   -8   -3   26     -2.64      0.00
   -7   -3   26     -1.82      0.00
   -6   -3   26      2.78      0.00
   -5   -3   26     -2.60      0.00
   -4   -3   26      1.12      0.00
   -3   -3   26      3.12      0.00
   -2   -3   26     -3.30      0.00
  -12   -2   26     -1.74      0.00
  -11   -2   26      2.95      0.00
  -10   -2   26      4.68      0.00
   -9   -2   26     -1.64      0.00
   -8   -2   26     -0.10      0.00
   -7   -2   26      2.53      0.00
   -6   -2   26     -1.79      0.00
   -5   -2   26      3.63      0.00
   -4   -2   26     -2.74      0.00
   -3   -2   26     -3.90      0.00
   -2   -2   26      4.55      0.00
  -12   -1   26      0.12      0.00
  -11   -1   26     -3.32      0.00
  -10   -1   26     -1.73      0.00
   -9   -1   26      1.83      0.00
   -8   -1   26     -1.71      0.00
   -7   -1   26     -0.91      0.00
   -6   -1   26      3.76      0.00
   -5   -1   26     -0.58      0.00
   -4   -1   26      0.17      0.00
   -3   -1   26      2.26      0.00
  -13    0   26     -0.50      0.00
  -12    0   26     -0.30      0.00
  -11    0   26     -0.05      0.00
  -10    0   26      1.91      0.00
   -9    0   26      2.43      0.00
   -8    0   26     -1.21      0.00
   -7    0   26     -3.46      0.00
   -6    0   26     -3.96      0.00
   -5    0   26     -0.99      0.00
   -4    0   26      2.18      0.00
  -13    1   26      0.66      0.00
  -12    1   26     -0.12      0.00
  -11    1   26     -0.62      0.00
  -10    1   26     -0.84      0.00
   -9    1   26      0.46      0.00
   -8    1   26      3.58      0.00
   -7    1   26      3.57      0.00
   -6    1   26      2.04      0.00
   -5    1   26      0.53      0.00
   -4    1   26     -1.55      0.00
  -13    2   26      1.78      0.00
  -12    2   26      1.56      0.00
  -11    2   26     -0.10      0.00
  -10    2   26     -5.34      0.00
   -9    2   26     -1.31      0.00
   -8    2   26     -0.88      0.00
   -7    2   26     -3.39      0.00
   -6    2   26      0.07      0.00
   -5    2   26      1.91      0.00
  -13    3   26     -3.45      0.00
  -12    3   26     -0.65      0.00
  -11    3   26      4.00      0.00
  -10    3   26      5.82      0.00
   -9    3   26     -1.44      0.00
   -8    3   26     -0.07      0.00
   -7    3   26     -0.23      0.00
   -6    3   26     -1.03      0.00
  -13    4   26      1.95      0.00
  -12    4   26     -0.73      0.00
  -11    4   26     -4.96      0.00
  -10    4   26     -2.83      0.00
   -9    4   26      3.34      0.00
   -8    4   26      2.35      0.00
   -7    4   26      0.68      0.00
  -12    5   26      1.54      0.00
  -11    5   26      1.83      0.00
  -10    5   26      0.79      0.00
   -9    5   26     -3.64      0.00
   -7   -3   27      1.46      0.00
   -9   -2   27     -1.47      0.00
   -8   -2   27      3.25      0.00
   -7   -2   27     -1.05      0.00
   -6   -2   27      0.71      0.00
   -9   -1   27      0.05      0.00
   -8   -1   27     -2.11      0.00
   -7   -1   27      2.93      0.00
   -6   -1   27      0.99      0.00
  -10    0   27      3.51      0.00
   -9    0   27     -0.62      0.00
   -8    0   27     -2.93      0.00
   -7    0   27     -4.32      0.00
  -10    1   27     -0.76      0.00
   -9    1   27      2.48      0.00
   -8    1   27      3.01      0.00
    1    0    0     15.47      0.00
  -18    1    0     -1.72      0.00
   -1    1    0    -55.17      0.00
    0    1    0   -175.70      0.00
   16    3    0     -2.01      0.00
   15    5    0      1.06      0.00
  -20    7    0      0.50      0.00
   -4    8    0     -6.44      0.00
   12    9    0      3.49      0.00
  -20   15    0      2.09      0.00
    4   17    0      4.76      0.00
  -19   18    0     -2.31      0.00
    1   19    0      1.52      0.00
   -1   20    0     -3.07      0.00
   -3   21    0      0.33      0.00
  -14   22    0      0.37      0.00
   -6   22    0      5.56      0.00
    5  -22    1      2.30      0.00
   14  -22    1     -3.45      0.00
   16  -21    1     -1.40      0.00
   18  -19    1      0.03      0.00
   -3  -18    1      2.86      0.00
   20  -14    1      3.66      0.00
   20  -13    1     -3.95      0.00
   20  -10    1     -2.36      0.00
   20   -9    1      1.97      0.00
    3   -8    1     -6.80      0.00
  -17   -2    1      3.77      0.00
   -6   -1    1     15.72      0.00
    0   -1    1   -131.52      0.00
    1   -1    1     26.69      0.00
  -18    0    1      1.40      0.00
   -1    0    1    208.47      0.00
    0    0    1    128.54      0.00
   17    0    1      1.01      0.00
   -1    1    1   -105.24      0.00
    0    1    1    -38.45      0.00
  -19    3    1     -0.30      0.00
  -20    6    1      2.65      0.00
   14    6    1      1.40      0.00
   11   10    1     -1.10      0.00
   10   11    1     -1.44      0.00
    7   14    1     -0.10      0.00
    6   15    1      0.16      0.00
  -20   16    1     -1.71      0.00
    5   16    1      0.65      0.00
  -19   18    1     -0.79      0.00
    2   18    1      3.65      0.00
   -1   20    1     -1.27      0.00
   -6   22    1      4.12      0.00
    5  -22    2      1.28      0.00
   14  -22    2     -5.33      0.00
    2  -21    2     -1.18      0.00
    0  -20    2      2.00      0.00
   -3  -18    2      3.36      0.00
   -7  -15    2      2.75      0.00
   -8  -14    2      1.91      0.00
   -9  -13    2     -1.48      0.00
  -10  -12    2     -1.35      0.00
  -11  -11    2     -0.17      0.00
    2   -8    2     -7.38      0.00
    1   -7    2    -20.72      0.00
    3   -7    2      7.95      0.00
  -16   -4    2      1.63      0.00
   -6   -2    2     -0.80      0.00
   -1    0    2    159.05      0.00
   17    0    2     -3.31      0.00
  -19    2    2      1.53      0.00
   16    2    2     -1.45      0.00
  -20    5    2     -1.36      0.00
    0    6    2    -12.52      0.00
   13    7    2     -1.70      0.00
  -21   11    2      3.83      0.00
  -21   12    2     -3.17      0.00
  -20   17    2      1.15      0.00
    3   17    2     -0.06      0.00
    0   19    2     -2.32      0.00
  -18   20    2     -0.73      0.00
   -4   21    2      2.55      0.00
   -7   22    2      6.70      0.00
    5  -22    3     -0.78      0.00
    2  -21    3      1.39      0.00
    0  -20    3      1.61      0.00
   -2  -19    3      3.50      0.00
   18  -18    3      1.04      0.00
   -6  -16    3     -0.57      0.00
   19  -15    3      0.42      0.00
  -12  -10    3      0.29      0.00
  -13   -9    3     -0.15      0.00
   19   -7    3     -0.46      0.00
  -15   -6    3      1.93      0.00
  -17   -3    3     -2.38      0.00
   -7   -2    3     -4.11      0.00
  -18   -1    3     -0.55      0.00
   -6   -1    3     -8.88      0.00
   17   -1    3      0.77      0.00
   16    1    3      2.53      0.00
   -5    2    3     15.95      0.00
   15    3    3      0.95      0.00
  -20    4    3     -1.22      0.00
   -2    7    3      7.05      0.00
    0    7    3      8.40      0.00
  -21    8    3      5.06      0.00
  -21    9    3     -3.95      0.00
   11    9    3     -0.55      0.00
  -21   13    3      2.17      0.00
  -21   14    3      0.94      0.00
    4   16    3     -0.20      0.00
  -20   17    3     -1.40      0.00
  -19   19    3     -0.06      0.00
  -18   20    3     -0.10      0.00
   -2   20    3      1.91      0.00
  -14   22    3     -0.84      0.00
   -8   22    3      2.55      0.00
   -7   22    3      3.36      0.00
    5  -22    4     -0.54      0.00
   13  -22    4     -0.90      0.00
    2  -21    4      0.94      0.00
   16  -20    4     -0.82      0.00
   -2  -19    4      2.41      0.00
   17  -19    4     -4.04      0.00
   -5  -17    4     -3.11      0.00
   18  -17    4      2.20      0.00
   19  -13    4      1.11      0.00
   19  -12    4     -0.33      0.00
   19  -11    4     -1.17      0.00
   19  -10    4      2.25      0.00
  -14   -8    4      3.38      0.00
  -16   -5    4     -2.15      0.00
   18   -5    4      0.21      0.00
   17   -2    4     -1.22      0.00
   -7   -1    4      2.34      0.00
   -8    0    4      3.28      0.00
  -19    1    4      0.79      0.00
   -4    1    4     -6.41      0.00
   14    4    4      0.01      0.00
  -21    7    4      0.80      0.00
   -1    7    4      6.57      0.00
   12    7    4      0.85      0.00
  -21    8    4      0.06      0.00
    9   11    4      4.25      0.00
    8   12    4      2.22      0.00
    7   13    4     -1.91      0.00
    6   14    4     -3.43      0.00
  -21   15    4      1.63      0.00
    1   18    4      1.62      0.00
  -19   19    4      2.20      0.00
   -1   19    4      0.65      0.00
  -18   20    4      0.80      0.00
   -5   21    4     -1.20      0.00
  -14   22    4     -0.27      0.00
   -9   22    4     -1.06      0.00
   -8   22    4      4.63      0.00
    5  -22    5      2.54      0.00
   12  -22    5     -1.56      0.00
    2  -21    5     -0.36      0.00
   -2  -19    5      0.29      0.00
   17  -18    5     -0.19      0.00
   -5  -17    5     -2.31      0.00
   18  -16    5     -2.11      0.00
   -1   -6    5     11.92      0.00
   18   -6    5      0.42      0.00
   17   -3    5      1.07      0.00
  -18   -2    5      0.39      0.00
   -7    0    5      2.08      0.00
  -20    3    5      5.26      0.00
   13    5    5     -0.04      0.00
  -21    6    5     -5.19      0.00
   11    8    5     -0.42      0.00
  -21   15    5      4.46      0.00
    3   16    5     -1.10      0.00
  -19   19    5      4.46      0.00
  -18   20    5      1.66      0.00
   -3   20    5      0.81      0.00
   -6   21    5     -3.28      0.00
  -14   22    5     -1.43      0.00
  -13   22    5      0.36      0.00
  -11   22    5     -0.45      0.00
  -10   22    5      0.28      0.00
   -9   22    5      0.59      0.00
    5  -22    6      1.98      0.00
   11  -22    6     -3.53      0.00
    2  -21    6     -1.22      0.00
   15  -20    6     -4.91      0.00
   16  -19    6     -2.80      0.00
   -4  -18    6     -3.47      0.00
   17  -17    6      3.11      0.00
   -9  -14    6     -0.84      0.00
   18  -14    6     -3.57      0.00
  -10  -13    6     -0.94      0.00
  -11  -12    6      2.18      0.00
   18   -9    6      2.87      0.00
  -15   -7    6     -1.38      0.00
  -17   -4    6      0.07      0.00
   17   -4    6     -1.61      0.00
  -18   -2    6     -0.47      0.00
   -3   -1    6    -15.91      0.00
  -19    0    6     -2.38      0.00
   -9    1    6      1.31      0.00
  -21    6    6     -4.03      0.00
   12    6    6      0.01      0.00
    8   11    6      1.81      0.00
    7   12    6     -0.34      0.00
    6   13    6     -1.29      0.00
    5   14    6     -2.69      0.00
  -19   19    6      4.20      0.00
   -2   19    6     -0.41      0.00
  -18   20    6      2.38      0.00
   -4   20    6     -0.61      0.00
  -16   21    6     -2.75      0.00
   -7   21    6     -2.38      0.00
  -13   22    6      0.70      0.00
  -12   22    6     -0.33      0.00
  -11   22    6      0.03      0.00
    5  -22    7     -1.19      0.00
    6  -22    7     -3.40      0.00
   10  -22    7     -4.01      0.00
    2  -21    7     -2.12      0.00
   13  -21    7     -1.14      0.00
   -4  -18    7      0.81      0.00
   16  -18    7     -2.16      0.00
   17  -16    7     -5.32      0.00
   -8  -15    7     -3.80      0.00
   -9  -14    7      2.11      0.00
  -10  -13    7     -0.08      0.00
  -11  -12    7      3.20      0.00
  -12  -11    7      0.25      0.00
   17   -6    7      0.88      0.00
  -17   -4    7      0.67      0.00
   -2   -3    7     18.45      0.00
   16   -3    7      3.34      0.00
  -20    2    7     -0.16      0.00
  -21    5    7      1.53      0.00
   12    5    7     -2.00      0.00
   10    8    7     -0.56      0.00
  -21   16    7      0.66      0.00
    2   16    7     -2.25      0.00
   -1   18    7      4.17      0.00
  -19   19    7     -1.63      0.00
  -18   20    7      0.59      0.00
   -5   20    7     -1.02      0.00
  -16   21    7     -2.77      0.00
   -8   21    7      0.97      0.00
    6  -22    8      0.44      0.00
    7  -22    8      1.52      0.00
    8  -22    8     -0.41      0.00
    9  -22    8     -2.57      0.00
    2  -21    8     -0.54      0.00
   12  -21    8      0.54      0.00
   -4  -18    8      2.89      0.00
   16  -17    8      3.13      0.00
   -8  -15    8     -1.05      0.00
   17  -14    8     -0.61      0.00
  -12  -11    8     -0.74      0.00
  -13  -10    8      1.08      0.00
   17   -9    8     -0.34      0.00
   17   -8    8      1.49      0.00
  -16   -6    8      0.32      0.00
   16   -4    8     -2.75      0.00
   14    1    8     -2.38      0.00
  -20    2    8      1.22      0.00
  -21    5    8     -0.74      0.00
   11    6    8      2.72      0.00
    7   11    8     -0.33      0.00
    6   12    8     -1.25      0.00
    5   13    8      2.58      0.00
    4   14    8     -2.10      0.00
  -21   16    8      0.07      0.00
    0   17    8     -0.70      0.00
  -19   19    8     -5.35      0.00
   -6   20    8     -0.20      0.00
  -15   21    8     -1.02      0.00
   -9   21    8      3.68      0.00
   11  -21    9      1.14      0.00
   13  -20    9      0.11      0.00
   -2  -19    9     -3.86      0.00
   14  -19    9     -0.68      0.00
   -4  -18    9     -0.04      0.00
   -7  -16    9      0.78      0.00
   -8  -15    9     -0.02      0.00
  -13  -10    9      2.18      0.00
  -14   -9    9     -2.36      0.00
  -16   -6    9      1.03      0.00
   16   -6    9      0.25      0.00
  -18   -3    9      0.03      0.00
   15   -3    9      1.80      0.00
  -19   -1    9     -2.92      0.00
   -6   -1    9      8.02      0.00
  -21    4    9      1.98      0.00
   11    5    9     -1.09      0.00
    9    8    9     -2.19      0.00
    8    9    9     -4.73      0.00
  -22   10    9     -3.37      0.00
  -22   11    9      3.19      0.00
    2   15    9      1.41      0.00
   -4   19    9     -2.05      0.00
  -17   20    9      4.51      0.00
   -7   20    9      0.26      0.00
  -14   21    9      0.75      0.00
  -13   21    9      2.29      0.00
  -12   21    9      1.46      0.00
  -11   21    9      3.29      0.00
  -10   21    9      5.17      0.00
    3  -21   10     -3.13      0.00
   10  -21   10     -0.79      0.00
    0  -20   10      0.40      0.00
   12  -20   10      0.71      0.00
   -2  -19   10     -3.56      0.00
   -4  -18   10     -1.04      0.00
   14  -18   10     -3.37      0.00
   -7  -16   10     -1.53      0.00
   15  -16   10     -0.73      0.00
   -8  -15   10     -0.36      0.00
   16  -13   10     -0.64      0.00
   16  -12   10      1.22      0.00
   16  -10   10      1.20      0.00
  -14   -9   10     -4.24      0.00
   16   -9   10     -0.89      0.00
  -18   -3   10      1.90      0.00
  -19   -1   10      0.45      0.00
  -20    1   10      2.24      0.00
  -21    4   10      1.39      0.00
    9    7   10      0.27      0.00
  -22   10   10     -0.95      0.00
  -22   11   10      1.17      0.00
    0   16   10      3.74      0.00
  -20   17   10      2.19      0.00
   -3   18   10      1.61      0.00
   -5   19   10     -2.61      0.00
   -8   20   10      2.00      0.00
    4  -21   11      0.94      0.00
    8  -21   11      2.08      0.00
   11  -20   11     -1.73      0.00
   -2  -19   11     -1.28      0.00
   14  -17   11     -0.81      0.00
   -8  -15   11      0.93      0.00
   15  -15   11      0.74      0.00
  -14   -9   11     -3.17      0.00
  -18   -3   11      0.76      0.00
   14   -3   11      2.12      0.00
  -19   -1   11      0.18      0.00
  -20    1   11      0.99      0.00
  -21    4   11      1.81      0.00
   10    5   11     -1.41      0.00
    7    9   11      0.61      0.00
  -22   10   11      2.35      0.00
    6   10   11     -4.46      0.00
  -22   11   11     -0.58      0.00
    5   11   11      1.23      0.00
    4   12   11     -2.92      0.00
    3   13   11      2.63      0.00
    2   14   11     -3.52      0.00
  -21   15   11     -1.90      0.00
   -1   16   11      3.51      0.00
  -20   17   11      0.61      0.00
  -19   18   11      1.79      0.00
   -4   18   11     -0.65      0.00
  -18   19   11      0.38      0.00
   -6   19   11     -1.30      0.00
  -16   20   11     -4.21      0.00
   -9   20   11      1.95      0.00
    1  -20   12     -2.15      0.00
   10  -20   12     -3.92      0.00
   13  -17   12     -0.52      0.00
   -8  -15   12      2.67      0.00
  -14   -9   12      0.83      0.00
   14   -5   12      0.34      0.00
  -18   -3   12     -3.96      0.00
   13   -2   12     -1.18      0.00
  -19   -1   12     -1.69      0.00
   12    0   12     -0.20      0.00
  -20    1   12     -1.41      0.00
   11    2   12      2.67      0.00
  -21    4   12      1.37      0.00
   10    4   12     -1.90      0.00
    7    8   12     -3.42      0.00
    1   14   12     -1.66      0.00
  -21   15   12     -2.46      0.00
    0   15   12      0.19      0.00
   -3   17   12     -2.35      0.00
   -5   18   12     -2.64      0.00
  -17   19   12      6.62      0.00
   -8   19   12      2.19      0.00
  -14   20   12      1.60      0.00
  -13   20   12      3.37      0.00
  -12   20   12      3.65      0.00
    2  -20   13      2.25      0.00
   -1  -19   13     -3.06      0.00
   -3  -18   13      2.77      0.00
   -5  -17   13      4.19      0.00
   13  -16   13      2.46      0.00
   -9  -14   13     -1.88      0.00
   14  -13   13     -1.30      0.00
  -13  -10   13      0.49      0.00
  -14   -9   13      2.12      0.00
   14   -8   13     -0.75      0.00
   13   -4   13     -0.31      0.00
  -18   -3   13     -1.69      0.00
  -19   -1   13      0.03      0.00
   12   -1   13     -0.06      0.00
  -20    1   13     -0.26      0.00
   11    1   13     -3.78      0.00
   10    3   13      3.89      0.00
  -21    4   13      0.03      0.00
    8    6   13      4.28      0.00
  -21   14   13      0.11      0.00
   -1   15   13     -0.68      0.00
  -20   16   13      1.95      0.00
   -4   17   13     -0.86      0.00
  -18   18   13     -1.19      0.00
   -6   18   13     -2.08      0.00
  -16   19   13     -0.21      0.00
   -9   19   13      0.27      0.00
    4  -20   14     -1.28      0.00
    5  -20   14      1.69      0.00
    6  -20   14      0.77      0.00
    9  -19   14     -3.80      0.00
   -3  -18   14      2.08      0.00
   -6  -16   14     -5.27      0.00
   12  -16   14      3.07      0.00
   -9  -14   14     -1.54      0.00
   13  -14   14      0.25      0.00
  -10  -13   14      0.61      0.00
  -11  -12   14     -2.38      0.00
  -12  -11   14     -1.85      0.00
  -13  -10   14      2.76      0.00
  -16   -6   14      0.90      0.00
   13   -6   14      3.48      0.00
  -18   -3   14      2.37      0.00
   12   -3   14     -1.03      0.00
  -19   -1   14     -0.88      0.00
    8    5   14     -3.61      0.00
    4   10   14      0.97      0.00
    3   11   14     -1.30      0.00
    2   12   14      2.31      0.00
  -21   13   14     -0.36      0.00
   -2   15   14     -0.35      0.00
  -17   18   14     -1.58      0.00
   -8   18   14      1.30      0.00
  -14   19   14      0.34      0.00
  -13   19   14     -5.08      0.00
  -12   19   14      1.36      0.00
  -11   19   14      2.87      0.00
    1  -19   15      3.59      0.00
   -2  -18   15     -0.88      0.00
   -4  -17   15     -0.87      0.00
   -6  -16   15     -0.87      0.00
   11  -16   15      2.56      0.00
   12  -14   15      0.46      0.00
  -10  -13   15     -0.80      0.00
  -11  -12   15     -1.25      0.00
  -12  -11   15     -1.43      0.00
  -13  -10   15      2.21      0.00
  -16   -6   15     -3.07      0.00
   12   -5   15     -1.57      0.00
  -18   -3   15      0.30      0.00
   11   -2   15     -0.08      0.00
  -19   -1   15     -2.09      0.00
   10    0   15      1.09      0.00
  -20    2   15     -0.45      0.00
    9    2   15     -1.11      0.00
  -21    5   15     -4.06      0.00
    5    8   15     -3.34      0.00
    4    9   15     -1.18      0.00
    3   10   15     -0.03      0.00
    2   11   15      0.18      0.00
  -21   12   15     -1.44      0.00
    1   12   15      1.67      0.00
  -21   13   15     -0.06      0.00
  -20   15   15     -0.19      0.00
   -3   15   15      0.14      0.00
  -19   16   15     -2.58      0.00
   -5   16   15     -3.27      0.00
  -18   17   15     -1.03      0.00
   -7   17   15      1.50      0.00
  -16   18   15      0.05      0.00
  -10   18   15     -0.48      0.00
    3  -19   16     -1.53      0.00
    4  -19   16     -0.63      0.00
    5  -19   16      2.11      0.00
   -1  -18   16     -0.64      0.00
    8  -18   16      1.02      0.00
   10  -16   16      0.62      0.00
   -7  -15   16     -0.20      0.00
   12  -10   16      0.95      0.00
  -16   -6   16     -3.56      0.00
  -17   -4   16      1.87      0.00
   11   -4   16      0.76      0.00
  -20    2   16      3.37      0.00
    7    4   16      2.58      0.00
  -21    6   16      1.21      0.00
    5    7   16      0.30      0.00
    4    8   16     -1.34      0.00
    3    9   16     -1.60      0.00
  -21   11   16     -0.04      0.00
    1   11   16     -0.09      0.00
  -21   12   16      3.81      0.00
    0   12   16      1.20      0.00
   -1   13   16      0.33      0.00
  -20   14   16     -1.00      0.00
   -4   15   16     -0.60      0.00
  -18   16   16      2.82      0.00
   -6   16   16     -2.12      0.00
  -17   17   16     -0.19      0.00
   -8   17   16     -2.55      0.00
  -13   18   16      1.86      0.00
    0  -18   17     -1.06      0.00
    6  -18   17      0.21      0.00
   -3  -17   17     -1.78      0.00
    8  -17   17      0.49      0.00
   -5  -16   17     -2.83      0.00
    9  -16   17     -0.34      0.00
   -8  -14   17     -0.22      0.00
   10  -14   17     -0.11      0.00
   11  -11   17     -2.18      0.00
   11  -10   17      1.97      0.00
   11   -9   17      0.35      0.00
   11   -8   17     -1.00      0.00
  -15   -7   17      2.37      0.00
  -17   -4   17     -0.01      0.00
  -18   -2   17     -0.19      0.00
    9   -1   17      0.78      0.00
  -19    0   17      0.51      0.00
    8    1   17     -1.14      0.00
    7    3   17     -2.06      0.00
    5    6   17      1.68      0.00
  -21    7   17     -3.25      0.00
    4    7   17      1.14      0.00
  -21    8   17      2.50      0.00
    3    8   17      1.77      0.00
  -21    9   17     -0.82      0.00
  -21   10   17     -0.19      0.00
    0   11   17     -2.23      0.00
   -1   12   17      2.21      0.00
  -20   13   17      3.62      0.00
   -4   14   17      2.01      0.00
  -15   17   17      1.60      0.00
  -14   17   17      0.40      0.00
  -12   17   17     -2.84      0.00
  -11   17   17     -2.33      0.00
   -2  -17   18      1.13      0.00
    6  -17   18      0.09      0.00
   -4  -16   18      3.30      0.00
   -6  -15   18      1.77      0.00
    9  -14   18     -2.37      0.00
   -9  -13   18     -4.12      0.00
  -10  -12   18      2.95      0.00
  -11  -11   18     -3.70      0.00
   10  -11   18     -2.25      0.00
  -12  -10   18      4.99      0.00
   10  -10   18      2.66      0.00
  -13   -9   18     -3.74      0.00
  -14   -8   18      3.49      0.00
   10   -8   18     -2.55      0.00
   10   -7   18     -0.61      0.00
  -16   -5   18     -4.89      0.00
    9   -3   18      4.57      0.00
  -18   -2   18      3.15      0.00
  -20    3   18     -0.12      0.00
    6    3   18     -3.42      0.00
    4    6   18     -0.70      0.00
    3    7   18      0.95      0.00
   -1   11   18     -4.76      0.00
  -20   12   18     -2.86      0.00
   -2   12   18      1.40      0.00
  -19   14   18      0.35      0.00
   -5   14   18      3.21      0.00
  -18   15   18     -0.11      0.00
   -7   15   18     -3.47      0.00
  -16   16   18     -2.82      0.00
  -10   16   18      0.31      0.00
    1  -17   19     -0.85      0.00
    2  -17   19      1.51      0.00
    3  -17   19      0.22      0.00
   -3  -16   19     -3.08      0.00
    6  -16   19      0.07      0.00
   -5  -15   19      0.89      0.00
    7  -15   19      0.09      0.00
   -7  -14   19     -2.04      0.00
    8  -14   19     -2.32      0.00
    9  -11   19     -0.06      0.00
    9  -10   19      1.14      0.00
    9   -7   19      2.23      0.00
  -15   -6   19      1.02      0.00
  -17   -3   19     -1.09      0.00
    8   -3   19      4.06      0.00
  -18   -1   19     -2.79      0.00
  -19    1   19     -0.50      0.00
  -20    5   19      2.88      0.00
    3    6   19     -3.47      0.00
    2    7   19      0.93      0.00
    0    9   19     -1.56      0.00
  -20   10   19     -2.40      0.00
   -1   10   19      1.71      0.00
   -2   11   19     -4.12      0.00
   -5   13   19     -3.75      0.00
  -18   14   19      0.93      0.00
   -7   14   19      3.06      0.00
  -16   15   19      3.13      0.00
   -9   15   19      1.91      0.00
   -1  -16   20      0.76      0.00
    3  -16   20      1.66      0.00
   -4  -15   20     -0.25      0.00
   -6  -14   20     -0.76      0.00
    7  -13   20      2.22      0.00
   -9  -12   20     -5.51      0.00
  -10  -11   20      1.49      0.00
    8  -10   20     -0.65      0.00
    8   -9   20      0.81      0.00
  -13   -8   20     -1.48      0.00
    8   -8   20     -5.15      0.00
  -14   -7   20     -0.33      0.00
    8   -7   20      4.34      0.00
    8   -6   20      0.56      0.00
  -16   -4   20      1.24      0.00
    7   -3   20      1.17      0.00
  -19    2   20     -1.49      0.00
    2    6   20     -3.22      0.00
    1    7   20      2.49      0.00
    0    8   20      3.15      0.00
   -1    9   20     -0.97      0.00
   -2   10   20      3.96      0.00
  -19   11   20     -1.39      0.00
   -5   12   20      1.51      0.00
  -18   13   20      0.08      0.00
  -16   14   20     -1.48      0.00
   -9   14   20     -3.62      0.00
   -2  -15   21      1.36      0.00
    3  -15   21      0.71      0.00
   -5  -14   21      3.91      0.00
   -8  -12   21      3.46      0.00
    6  -12   21      0.00      0.00
    7   -9   21      1.08      0.00
    7   -8   21     -3.73      0.00
    7   -7   21      3.69      0.00
  -15   -5   21      3.00      0.00
    6   -3   21     -0.66      0.00
  -17   -2   21      0.44      0.00
  -18    1   21     -2.88      0.00
    3    3   21     -1.52      0.00
  -19    4   21      0.41      0.00
  -19    5   21     -0.45      0.00
    1    6   21     -0.52      0.00
    0    7   21      2.86      0.00
  -19    8   21      3.57      0.00
   -1    8   21      3.80      0.00
  -19    9   21     -3.53      0.00
   -2    9   21     -1.86      0.00
  -18   11   21      3.20      0.00
   -5   11   21      1.26      0.00
  -16   13   21      1.30      0.00
   -9   13   21      1.95      0.00
  -13   14   21     -1.83      0.00
   -3  -14   22     -2.35      0.00
    2  -14   22      0.73      0.00
    5  -11   22     -0.81      0.00
  -10  -10   22     -0.03      0.00
  -11   -9   22     -0.80      0.00
  -12   -8   22     -2.62      0.00
  -13   -7   22      0.49      0.00
  -15   -4   22     -0.50      0.00
    5   -3   22     -1.17      0.00
  -17   -1   22     -2.07      0.00
  -18    2   22      1.47      0.00
    2    3   22     -0.04      0.00
  -18    9   22      2.35      0.00
   -5   10   22      4.50      0.00
  -17   11   22      0.13      0.00
   -7   11   22     -2.89      0.00
  -16   12   22     -3.33      0.00
   -9   12   22     -3.69      0.00
   -3  -13   23     -0.71      0.00
   -2  -13   23     -0.40      0.00
   -1  -13   23      1.02      0.00
    0  -13   23      0.22      0.00
    1  -13   23      3.06      0.00
   -6  -12   23      0.06      0.00
   -9  -10   23     -0.45      0.00
    4  -10   23     -1.05      0.00
    4   -9   23      1.84      0.00
  -11   -8   23      2.37      0.00
  -12   -7   23     -0.09      0.00
  -13   -6   23     -0.62      0.00
  -14   -5   23      2.81      0.00
    4   -4   23      1.85      0.00
  -15   -3   23      2.88      0.00
  -16   -1   23      0.50      0.00
    3   -1   23      0.87      0.00
  -17    1   23      1.84      0.00
    2    1   23      0.24      0.00
    0    4   23     -2.00      0.00
  -18    5   23      0.05      0.00
   -1    5   23      2.22      0.00
  -18    6   23      0.44      0.00
   -2    6   23      0.45      0.00
   -3    7   23     -2.07      0.00
   -4    8   23      3.66      0.00
  -17    9   23     -1.37      0.00
  -16   10   23     -1.09      0.00
   -7   10   23     -3.67      0.00
  -15   11   23      2.47      0.00
  -10   11   23      0.73      0.00
   -9   11   23      1.24      0.00
   -2  -12   24     -2.14      0.00
   -6  -11   24     -2.12      0.00
    1  -11   24     -0.62      0.00
    2  -10   24      0.51      0.00
   -9   -9   24     -1.19      0.00
    2   -9   24      1.79      0.00
  -10   -8   24     -1.58      0.00
  -11   -7   24      0.94      0.00
    3   -7   24     -1.51      0.00
  -12   -6   24     -1.04      0.00
    3   -6   24      0.96      0.00
  -13   -5   24      1.08      0.00
  -15   -2   24      1.63      0.00
    2   -2   24      0.27      0.00
  -16    0   24     -1.64      0.00
    1    0   24     -1.62      0.00
  -16    1   24     -0.19      0.00
    0    2   24     -0.50      0.00
   -1    3   24      2.58      0.00
  -17    4   24     -0.64      0.00
  -17    5   24     -0.13      0.00
  -17    6   24     -1.42      0.00
   -5    7   24     -1.02      0.00
  -16    8   24      0.88      0.00
   -6    8   24     -3.33      0.00
  -15    9   24      0.70      0.00
   -8    9   24      0.78      0.00
  -14   10   24      0.62      0.00
  -13   10   24      0.48      0.00
  -12   10   24      2.21      0.00
  -11   10   24      1.29      0.00
  -10   10   24      1.13      0.00
   -5  -10   25     -2.38      0.00
   -4  -10   25      0.28      0.00
   -3  -10   25     -1.32      0.00
   -2  -10   25     -4.64      0.00
   -1  -10   25     -0.60      0.00
   -7   -9   25      0.77      0.00
    0   -9   25     -2.19      0.00
   -9   -8   25     -1.09      0.00
  -10   -7   25      2.46      0.00
    1   -7   25      1.52      0.00
  -11   -6   25     -0.45      0.00
    1   -6   25     -0.46      0.00
  -12   -5   25     -1.07      0.00
    1   -5   25     -1.32      0.00
    1   -4   25     -0.71      0.00
  -14   -2   25      1.41      0.00
    0   -1   25      3.61      0.00
  -15    0   25      1.05      0.00
  -15    1   25      0.21      0.00
   -1    1   25     -1.31      0.00
   -2    2   25     -2.96      0.00
  -15    6   25      0.81      0.00
   -6    6   25     -0.73      0.00
  -15    7   25     -0.19      0.00
  -14    7   25      4.02      0.00
   -7    7   25      1.91      0.00
  -14    8   25     -3.98      0.00
  -13    8   25     -3.10      0.00
  -12    8   25      3.59      0.00
  -11    8   25     -0.26      0.00
  -10    8   25     -4.81      0.00
   -9    8   25      2.82      0.00
   -6   -8   26     -0.75      0.00
   -5   -8   26      1.23      0.00
   -4   -8   26      0.53      0.00
   -3   -8   26      0.59      0.00
   -8   -7   26      2.10      0.00
   -7   -7   26     -0.18      0.00
   -2   -7   26     -0.92      0.00
   -9   -6   26     -0.40      0.00
  -10   -5   26      1.13      0.00
   -1   -5   26     -0.07      0.00
  -11   -4   26      0.17      0.00
   -1   -4   26      1.12      0.00
  -12   -3   26      1.88      0.00
  -13   -1   26      0.93      0.00
   -2   -1   26     -1.77      0.00
   -3    0   26     -1.44      0.00
  -14    1   26     -0.78      0.00
   -3    1   26      0.19      0.00
  -14    2   26     -0.27      0.00
   -4    2   26      1.33      0.00
  -14    3   26     -0.66      0.00
   -5    3   26     -0.31      0.00
  -14    4   26      1.24      0.00
   -6    4   26     -2.96      0.00
  -13    5   26      0.05      0.00
   -8    5   26     -0.10      0.00
   -7    5   26      4.11      0.00
  -13    6   26     -0.78      0.00
  -12    6   26      0.82      0.00
  -11    6   26     -0.03      0.00
  -10    6   26     -1.90      0.00
   -9    6   26      0.09      0.00
   -7   -5   27      1.46      0.00
   -6   -5   27     -0.98      0.00
   -5   -5   27     -3.05      0.00
   -9   -4   27      0.62      0.00
   -8   -4   27      4.00      0.00
   -7   -4   27      0.37      0.00
   -6   -4   27     -1.11      0.00
   -5   -4   27      0.70      0.00
   -4   -4   27     -1.83      0.00
  -10   -3   27     -2.79      0.00
   -9   -3   27     -1.62      0.00
   -8   -3   27     -3.73      0.00
   -6   -3   27      1.24      0.00
   -5   -3   27     -2.17      0.00
   -4   -3   27      2.62      0.00
  -10   -2   27      2.43      0.00
   -5   -2   27      1.12      0.00
  -11   -1   27     -2.65      0.00
  -10   -1   27     -0.50      0.00
   -5   -1   27     -0.71      0.00
  -11    0   27      1.58      0.00
   -6    0   27     -1.61      0.00
   -5    0   27      1.63      0.00
  -11    1   27     -1.00      0.00
   -7    1   27      2.51      0.00
   -6    1   27      0.51      0.00
  -11    2   27     -3.73      0.00
  -10    2   27     -2.38      0.00
   -9    2   27      1.79      0.00
   -8    2   27     -1.63      0.00
   -7    2   27     -0.85      0.00
  -11    3   27      4.67      0.00
  -10    3   27     -0.27      0.00
   -9    3   27     -3.06      0.00
   -8    3   27      0.17      0.00
    0    0    0      0.00      0.00
# SQUEEZE RESULTS (Version =  91117)
# Note: Data are Listed for all Voids in the P1 Unit Cell
# i.e. Centre of Gravity, Solvent Accessible Volume,
# Recovered number of Electrons in the Void and
# Details about the Squeezed Material
loop_
  _platon_squeeze_void_nr
  _platon_squeeze_void_average_x
  _platon_squeeze_void_average_y
  _platon_squeeze_void_average_z
  _platon_squeeze_void_volume
  _platon_squeeze_void_count_electrons
  _platon_squeeze_void_content
   1  0.000  0.500  0.000       751       254 ' '
# Missing Reflections Below sin(th)/lambda = 0.25
loop_
  _platon_missing_refln_index_h
  _platon_missing_refln_index_k
  _platon_missing_refln_index_l
  _platon_missing_refln_theta
    1    0    0     1.545
   -1    1    0     1.468
    0    1    0     1.390
   -4    8    0     9.664
    3   -8    1     9.670
   -6   -1    1     9.660
    0   -1    1     1.543
    1   -1    1     2.020
   -1    0    1     1.459
    0    0    1     1.103
   -1    1    1     1.632
    0    1    1     1.979
    2   -8    2     9.897
    1   -7    2     8.920
    3   -7    2     8.612
   -1    0    2     2.076
    0    6    2     9.182
   -6   -1    3     9.146
   -5    2    3     6.273
   -2    7    3     9.641
   -4    1    4     5.524
   -1   -6    5     9.255
   -7    0    5     9.834
   -3   -1    6     6.539
   -2   -3    7     7.949
_platon_squeeze_void_probe_radius                  1.20
_platon_squeeze_details
)
TITL T         P -1         R = 0.13
CELL   16.4000   16.9800   20.4880     92.38    111.49    116.96
SPGR P-1
# Solvent Accessible Volume =       751
# Electrons Found in S.A.V. =       254
# Note: Atoms in Void are Labelled as Cxxx and Qxxx for all Others
C101 0.282 0.347 0.222 !       8.71 eA-3
C102 0.466 0.471 0.223 !       7.82 eA-3
C103 0.281 0.460 0.112 !       5.82 eA-3
C104 0.310 0.622 0.253 !       3.54 eA-3
Q105 0.421 0.546 0.123 !       3.37 eA-3
Q106 0.894 0.485 0.183 !       2.99 eA-3
C107 0.343 0.483 0.184 !       2.83 eA-3
C108 0.189 0.652 0.176 !       2.79 eA-3
C109 0.126 0.627 0.206 !       2.68 eA-3
C110 0.171 0.403 0.145 !       2.67 eA-3
Q111 0.815 0.142 0.421 !       2.61 eA-3
C112 0.202 0.810 0.170 !       2.57 eA-3
C113 0.202 0.753 0.137 !       2.49 eA-3
C114 0.358 0.642 0.213 !       2.46 eA-3
C115 0.177 0.698 0.121 !       2.29 eA-3
Q116 0.807 0.579 0.012 !       2.25 eA-3
C117 0.124 0.675 0.183 !       2.21 eA-3
C118 0.142 0.625 0.171 !       2.19 eA-3
C119 0.177 0.733 0.157 !       2.19 eA-3
Q120 0.291 0.342 0.178 !       2.16 eA-3
C121 0.291 0.652 0.221 !       2.13 eA-3
C122 0.345 0.584 0.205 !       2.08 eA-3
C123 0.235 0.872 0.156 !       2.07 eA-3
C124 0.214 0.710 0.110 !       2.02 eA-3
C125 0.143 0.468 0.122 !       2.00 eA-3
C126 0.924 0.387-0.002 !       1.93 eA-3
Q127 0.972 0.371 0.361 !       1.89 eA-3
Q128 0.829 0.177 0.360 !       1.88 eA-3
C129 0.048 0.529 0.166 !       1.81 eA-3
Q130 0.669 0.079 0.293 !       1.75 eA-3
C131 0.102 0.608 0.049 !       1.69 eA-3
C132 0.188 0.669 0.266 !       1.67 eA-3
Q133 0.643 0.361 0.018 !       1.63 eA-3
C134 0.064 0.520 0.107 !       1.63 eA-3
C135 0.205 0.628 0.220 !       1.62 eA-3
Q136 0.607 0.250 0.079 !       1.60 eA-3
C137 0.074 0.569 0.140 !       1.59 eA-3
C138 0.218 0.456 0.157 !       1.59 eA-3
C139 0.294 0.711 0.197 !       1.58 eA-3
Q140 0.891 0.218 0.469 !       1.58 eA-3
C141 0.140 0.576 0.148 !       1.57 eA-3
Q142 0.724 0.217 0.246 !       1.55 eA-3
C143 0.048 0.576 0.155 !       1.52 eA-3
C144 0.249 0.778 0.203 !       1.52 eA-3
C145 0.355 0.371 0.219 !       1.52 eA-3
C146 0.233 0.842 0.249 !       1.51 eA-3
Q147 0.374 0.537 0.158 !       1.51 eA-3
Q148 0.052 0.890 0.405 !       1.51 eA-3
C149 0.188 0.460 0.102 !       1.50 eA-3
Q150 0.581 0.233 0.098 !       1.48 eA-3
Q151 0.706 0.984 0.449 !       1.48 eA-3
Q152 0.751 0.984 0.462 !       1.48 eA-3
Q153 0.176 0.091 0.363 !       1.47 eA-3
C154 0.270 0.512 0.207 !       1.43 eA-3
C155 0.172 0.547 0.138 !       1.42 eA-3
C156 0.121 0.705 0.047 !       1.42 eA-3
C157 0.222 0.620 0.281 !       1.41 eA-3
Q158 0.223 0.426 0.043 !       1.41 eA-3
Q159 0.622 0.106 0.299 !       1.40 eA-3
Q160 0.267 0.864 0.200 !       1.40 eA-3
Q161 0.717 0.404 0.109 !       1.39 eA-3
C162 0.037 0.465 0.063 !       1.38 eA-3
Q163 0.748 0.254 0.233 !       1.37 eA-3
C164 0.034 0.543 0.106 !       1.37 eA-3
C165 0.138 0.661 0.070 !       1.36 eA-3
Q166 0.208 0.908 0.140 !       1.35 eA-3
Q167 0.890 0.800 0.075 !       1.35 eA-3
Q168 0.595 0.936 0.356 !       1.33 eA-3
C169 0.221 0.468 0.185 !       1.32 eA-3
Q170 0.703 0.163 0.269 !       1.32 eA-3
Q171 0.418 0.311 0.295 !       1.32 eA-3
Q172 0.886 0.248 0.426 !       1.31 eA-3
C173 0.013 0.515 0.030 !       1.31 eA-3
C174 0.965 0.436 0.031 !       1.30 eA-3
C175 0.128 0.482 0.157 !       1.30 eA-3
C176 0.095 0.533 0.043 !       1.30 eA-3
Q177 0.753 0.281 0.188 !       1.30 eA-3
Q178 0.394 0.857 0.325 !       1.29 eA-3
C179 0.096 0.683 0.123 !       1.29 eA-3
C180 0.219 0.538 0.138 !       1.29 eA-3
Q181 0.346 0.796 0.236 !       1.28 eA-3
C182 0.370 0.541 0.237 !       1.28 eA-3
C183 0.119 0.675 0.033 !       1.27 eA-3
C184 0.079 0.561 0.190 !       1.27 eA-3
Q185 0.515 0.688 0.094 !       1.26 eA-3
Q186 0.704 0.483 0.051 !       1.26 eA-3
Q187 0.219 0.463 0.031 !       1.26 eA-3
C188 0.071 0.496 0.178 !       1.26 eA-3
Q189 0.519 0.082 0.337 !       1.25 eA-3
Q190 0.017 0.391 0.109 !       1.25 eA-3
Q191 0.470 0.034 0.501 !       1.25 eA-3
Q192 0.559 0.360 0.355 !       1.24 eA-3
Q193 0.591 0.018 0.251 !       1.24 eA-3
C194 0.199 0.813 0.111 !       1.23 eA-3
Q195 0.504 0.922 0.329 !       1.23 eA-3
Q196 0.327 0.248 0.358 !       1.22 eA-3
Q197 0.948 0.858 0.081 !       1.22 eA-3
C198 0.966 0.424 0.067 !       1.22 eA-3
C199 0.250 0.710 0.281 !       1.22 eA-3
)
;
_shelx_fab_checksum              61799
_publcif_funding_html
;
;
loop_
_space_group_symop_operation_xyz
'x, y, z'
'-x, -y, -z'
loop_
_atom_site_label
_atom_site_type_symbol
_atom_site_fract_x
_atom_site_fract_y
_atom_site_fract_z
_atom_site_U_iso_or_equiv
_atom_site_adp_type
_atom_site_occupancy
_atom_site_site_symmetry_order
_atom_site_calc_flag
_atom_site_refinement_flags_posn
_atom_site_refinement_flags_adp
_atom_site_refinement_flags_occupancy
_atom_site_disorder_assembly
_atom_site_disorder_group
Cd1 Cd 0.13717(5) 0.80080(4) 0.58661(4) 0.02982(17) Uani 1 1 d . . . . .
Cd2 Cd 0.21548(4) 0.69894(4) 0.76133(4) 0.02751(16) Uani 1 1 d . . . . .
Cd3 Cd 0.31494(4) 0.61490(4) 0.94200(4) 0.02723(16) Uani 1 1 d . . . . .
O2 O 0.0396(4) 0.7741(4) 0.6451(4) 0.0337(15) Uani 1 1 d . . . . .
O3 O 0.0602(5) 0.6784(5) 0.7136(4) 0.0445(18) Uani 1 1 d . . . . .
O4 O -0.8904(5) 0.6467(5) 0.5456(4) 0.0493(19) Uani 1 1 d . . . . .
O5 O -0.7736(4) 0.7323(4) 0.6536(3) 0.0315(14) Uani 1 1 d . . . . .
O6 O -0.8417(6) -0.0590(4) 0.5783(5) 0.053(2) Uani 1 1 d . . . . .
O7 O -0.6988(7) -0.0361(6) 0.6624(5) 0.068(2) Uani 1 1 d . . . . .
O9 O 0.3753(5) 0.7306(6) 0.8081(4) 0.052(2) Uani 1 1 d . . . . .
O10 O 0.4177(5) 0.6584(5) 0.8890(5) 0.052(2) Uani 1 1 d . . . . .
O11 O 1.2826(5) 1.4665(4) 0.9063(4) 0.0397(16) Uani 1 1 d . . . . .
O12 O 1.1883(5) 1.4845(4) 0.9502(4) 0.0436(17) Uani 1 1 d . . . . .
O13 O 1.2987(5) 0.7329(5) 0.9885(4) 0.0476(19) Uani 1 1 d . . . . .
O14 O 1.2059(4) 0.6659(4) 0.8721(3) 0.0291(13) Uani 1 1 d . . . . .
N1 N -0.0088(6) 0.7474(6) 0.4783(4) 0.0393(19) Uani 1 1 d . . . . .
N2 N -0.5565(6) 0.6427(5) 0.0518(4) 0.0363(18) Uani 1 1 d . . . . .
N4 N 0.1231(6) 0.5411(5) 0.7152(5) 0.0400(19) Uani 1 1 d . . . . .
N5 N -0.2738(8) -0.0992(7) 0.6220(6) 0.062(3) Uani 1 1 d . . . . .
C1 C -0.0729(7) 0.6607(8) 0.4457(5) 0.043(2) Uani 1 1 d . . . . .
H1A H -0.059160 0.617814 0.467572 0.051 Uiso 1 1 calc R U . . .
C2 C -0.1578(7) 0.6285(8) 0.3823(6) 0.047(3) Uani 1 1 d . . . . .
H2A H -0.201000 0.565188 0.362866 0.057 Uiso 1 1 calc R U . . .
C3 C -0.1805(8) 0.6856(8) 0.3474(6) 0.049(3) Uani 1 1 d . . . . .
C4 C -0.1149(8) 0.7794(8) 0.3803(6) 0.051(3) Uani 1 1 d . . . . .
H4A H -0.128024 0.822656 0.358584 0.061 Uiso 1 1 calc R U . . .
C5 C -0.0292(8) 0.8075(7) 0.4463(6) 0.045(3) Uani 1 1 d . . . . .
H5A H 0.014986 0.870187 0.468438 0.054 Uiso 1 1 calc R U . . .
C6 C -0.2692(8) 0.6553(8) 0.2755(6) 0.049(3) Uani 1 1 d . . . . .
H6A H -0.291178 0.601061 0.243513 0.059 Uiso 1 1 calc R U . . .
C7 C -0.3175(8) 0.6988(8) 0.2546(6) 0.050(3) Uani 1 1 d . . . . .
H7A H -0.296861 0.750891 0.288486 0.060 Uiso 1 1 calc R U . . .
C8 C -0.4012(8) 0.6759(7) 0.1835(5) 0.042(2) Uani 1 1 d . . . . .
C9 C -0.4272(7) 0.6151(8) 0.1238(6) 0.047(3) Uani 1 1 d . . . . .
H9A H -0.391573 0.583878 0.126988 0.057 Uiso 1 1 calc R U . . .
C10 C -0.5056(7) 0.5991(7) 0.0585(6) 0.044(3) Uani 1 1 d . . . . .
H10A H -0.523160 0.556373 0.018024 0.053 Uiso 1 1 calc R U . . .
C11 C -0.5321(9) 0.7009(8) 0.1097(6) 0.055(3) Uani 1 1 d . . . . .
H11A H -0.569543 0.730532 0.105844 0.066 Uiso 1 1 calc R U . . .
C12 C -0.4545(9) 0.7197(8) 0.1751(6) 0.054(3) Uani 1 1 d . . . . .
H12A H -0.437902 0.763282 0.214619 0.065 Uiso 1 1 calc R U . . .
C18 C 0.0072(6) 0.7072(6) 0.6725(5) 0.0288(19) Uani 1 1 d . . . . .
C19 C -0.1026(6) 0.6576(6) 0.6551(5) 0.0288(19) Uani 1 1 d . . . . .
C20 C -0.1439(7) 0.5767(6) 0.6751(6) 0.040(2) Uani 1 1 d . . . . .
H20A H -0.101534 0.554988 0.701393 0.048 Uiso 1 1 calc R U . . .
C21 C -0.2444(7) 0.5284(7) 0.6574(6) 0.041(2) Uani 1 1 d . . . . .
H21A H -0.270615 0.472746 0.670382 0.050 Uiso 1 1 calc R U . . .
C22 C -0.3110(7) 0.5592(6) 0.6200(6) 0.035(2) Uani 1 1 d . . . . .
C23 C -0.2687(7) 0.6400(6) 0.6016(6) 0.037(2) Uani 1 1 d . . . . .
H23A H -0.310663 0.662925 0.577102 0.044 Uiso 1 1 calc R U . . .
C24 C -0.1673(7) 0.6888(7) 0.6175(5) 0.035(2) Uani 1 1 d . . . . .
H24A H -0.141475 0.743224 0.602905 0.042 Uiso 1 1 calc R U . . .
C25 C -0.8118(7) 0.6681(6) 0.5973(5) 0.031(2) Uani 1 1 d . . . . .
C26 C -0.7487(7) 0.6263(6) 0.5952(5) 0.031(2) Uani 1 1 d . . . . .
C27 C -0.6508(7) 0.6612(7) 0.6488(6) 0.039(2) Uani 1 1 d . . . . .
H27A H -0.622991 0.710720 0.687851 0.047 Uiso 1 1 calc R U . . .
C28 C -0.5941(7) 0.6215(7) 0.6440(6) 0.037(2) Uani 1 1 d . . . . .
H28A H -0.527730 0.644825 0.680166 0.045 Uiso 1 1 calc R U . . .
C29 C -0.6329(7) 0.5505(6) 0.5884(6) 0.035(2) Uani 1 1 d . . . . .
C30 C -0.7302(7) 0.5160(6) 0.5335(6) 0.035(2) Uani 1 1 d . . . . .
H30A H -0.756793 0.467062 0.494333 0.043 Uiso 1 1 calc R U . . .
C31 C -0.7879(7) 0.5550(7) 0.5371(5) 0.038(2) Uani 1 1 d . . . . .
H31A H -0.853388 0.532639 0.500081 0.046 Uiso 1 1 calc R U . . .
C32 C -0.7495(8) -0.0093(6) 0.6184(6) 0.040(2) Uani 1 1 d . . . . .
C33 C -0.7007(7) 0.0878(6) 0.6111(6) 0.035(2) Uani 1 1 d . . . . .
C34 C -0.7612(7) 0.1199(6) 0.5672(6) 0.036(2) Uani 1 1 d . . . . .
H34A H -0.832107 0.081672 0.544077 0.043 Uiso 1 1 calc R U . . .
C35 C -0.7182(7) 0.2059(6) 0.5580(6) 0.037(2) Uani 1 1 d . . . . .
H35A H -0.759593 0.224936 0.526034 0.045 Uiso 1 1 calc R U . . .
C36 C -0.6125(7) 0.2673(6) 0.5953(6) 0.034(2) Uani 1 1 d . . . . .
C37 C -0.5534(7) 0.2328(6) 0.6380(6) 0.039(2) Uani 1 1 d . . . . .
H37A H -0.482519 0.270787 0.661824 0.047 Uiso 1 1 calc R U . . .
C38 C -0.5967(7) 0.1448(7) 0.6456(6) 0.039(2) Uani 1 1 d . . . . .
H38A H -0.555430 0.123599 0.674446 0.047 Uiso 1 1 calc R U . . .
C39 C -0.4193(7) 0.5060(7) 0.6048(6) 0.038(2) Uani 1 1 d . . . . .
C40 C -0.4752(7) 0.5498(7) 0.5998(6) 0.041(2) Uani 1 1 d . . . . .
H40A H -0.444159 0.613122 0.604262 0.049 Uiso 1 1 calc R U . . .
C41 C -0.5747(7) 0.5015(6) 0.5883(6) 0.036(2) Uani 1 1 d . . . . .
C42 C -0.6191(7) 0.4106(6) 0.5845(6) 0.035(2) Uani 1 1 d . . . . .
H42A H -0.686942 0.378609 0.577514 0.042 Uiso 1 1 calc R U . . .
C43 C -0.5667(7) 0.3631(6) 0.5905(6) 0.037(2) Uani 1 1 d . . . . .
C44 C -0.4663(7) 0.4140(7) 0.6004(6) 0.038(2) Uani 1 1 d . . . . .
H44A H -0.429180 0.384062 0.604200 0.046 Uiso 1 1 calc R U . . .
C45 C 0.0354(7) 0.5003(6) 0.6562(6) 0.039(2) Uani 1 1 d . . . . .
H45A H 0.017814 0.536264 0.626719 0.047 Uiso 1 1 calc R U . . .
C46 C -0.0326(7) 0.4054(6) 0.6360(5) 0.040(2) Uani 1 1 d . . . . .
H46A H -0.093407 0.379494 0.593381 0.048 Uiso 1 1 calc R U . . .
C47 C -0.0107(8) 0.3502(7) 0.6781(6) 0.044(2) Uani 1 1 d . . . . .
C48 C 0.0790(8) 0.3916(7) 0.7398(6) 0.046(3) Uani 1 1 d . . . . .
H48A H 0.096012 0.357200 0.771347 0.056 Uiso 1 1 calc R U . . .
C49 C 0.1452(8) 0.4858(7) 0.7553(5) 0.040(2) Uani 1 1 d . . . . .
H49A H 0.208449 0.512191 0.795805 0.048 Uiso 1 1 calc R U . . .
C50 C -0.0835(8) 0.2516(7) 0.6530(6) 0.043(2) Uani 1 1 d . . . . .
H50A H -0.139765 0.229794 0.607755 0.052 Uiso 1 1 calc R U . . .
C51 C -0.0748(9) 0.1906(7) 0.6908(7) 0.054(3) Uani 1 1 d . . . . .
H51A H -0.020839 0.212765 0.737256 0.065 Uiso 1 1 calc R U . . .
C52 C -0.1447(9) 0.0913(8) 0.6637(7) 0.050(3) Uani 1 1 d . . . . .
C53 C -0.2100(9) 0.0481(7) 0.5947(6) 0.050(3) Uani 1 1 d . . . . .
H53A H -0.214626 0.081200 0.559186 0.060 Uiso 1 1 calc R U . . .
C54 C -0.2727(9) -0.0488(8) 0.5751(7) 0.057(3) Uani 1 1 d . . . . .
H54A H -0.315610 -0.078243 0.525807 0.068 Uiso 1 1 calc R U . . .
C55 C -0.2090(10) -0.0568(9) 0.6907(9) 0.068(4) Uani 1 1 d . . . . .
H55A H -0.207991 -0.091475 0.725231 0.081 Uiso 1 1 calc R U . . .
C56 C -0.1407(9) 0.0395(8) 0.7143(7) 0.055(3) Uani 1 1 d . . . . .
H56A H -0.093874 0.067268 0.763197 0.066 Uiso 1 1 calc R U . . .
O1 O 0.2528(6) 0.8260(6) 0.5326(4) 0.053(2) Uani 1 1 d . U . . .
C13 C 0.3406(9) 0.8535(9) 0.5778(9) 0.067(3) Uani 1 1 d D U . . .
H13A H 0.352866 0.866237 0.626598 0.081 Uiso 0.856(13) 1 calc R U P A 1
H13B H 0.376365 0.895134 0.623319 0.081 Uiso 0.144(13) 1 calc R U P A 2
N3 N 0.4195(10) 0.8670(11) 0.5660(9) 0.076(3) Uani 0.856(13) 1 d D U P A 1
C14 C 0.385(2) 0.7528(17) 0.4694(16) 0.138(8) Uani 0.856(13) 1 d D U P A 1
H14A H 0.379160 0.744032 0.420549 0.207 Uiso 0.856(13) 1 calc R U P A 1
H14B H 0.438177 0.742877 0.501072 0.207 Uiso 0.856(13) 1 calc R U P A 1
H14C H 0.320949 0.709701 0.469619 0.207 Uiso 0.856(13) 1 calc R U P A 1
C15 C 0.4092(16) 0.8457(14) 0.4951(12) 0.094(5) Uani 0.856(13) 1 d D U P A 1
H15A H 0.472764 0.888372 0.493233 0.112 Uiso 0.856(13) 1 calc R U P A 1
H15B H 0.355767 0.855261 0.461842 0.112 Uiso 0.856(13) 1 calc R U P A 1
C16 C 0.5794(16) 0.9983(17) 0.6549(15) 0.133(9) Uani 0.856(13) 1 d D U P A 1
H16A H 0.644049 1.016162 0.695054 0.200 Uiso 0.856(13) 1 calc R U P A 1
H16B H 0.590983 1.025616 0.616244 0.200 Uiso 0.856(13) 1 calc R U P A 1
H16C H 0.542160 1.018969 0.671175 0.200 Uiso 0.856(13) 1 calc R U P A 1
C17 C 0.5214(13) 0.9002(15) 0.6287(13) 0.109(6) Uani 0.856(13) 1 d D U P A 1
H17A H 0.511250 0.872998 0.668264 0.131 Uiso 0.856(13) 1 calc R U P A 1
H17B H 0.560070 0.879645 0.613337 0.131 Uiso 0.856(13) 1 calc R U P A 1
N3A N 0.373(6) 0.810(5) 0.547(4) 0.090(6) Uani 0.144(13) 1 d D U P A 2
C14A C 0.365(8) 0.806(8) 0.425(4) 0.090(6) Uani 0.144(13) 1 d D U P A 2
H14D H 0.375557 0.845836 0.392679 0.135 Uiso 0.144(13) 1 calc R U P A 2
H14E H 0.410917 0.782357 0.434403 0.135 Uiso 0.144(13) 1 calc R U P A 2
H14F H 0.295509 0.755807 0.402784 0.135 Uiso 0.144(13) 1 calc R U P A 2
C15A C 0.385(8) 0.858(5) 0.493(5) 0.090(6) Uani 0.144(13) 1 d D U P A 2
H15C H 0.454382 0.909202 0.513615 0.108 Uiso 0.144(13) 1 calc R U P A 2
H15D H 0.339417 0.882755 0.482117 0.108 Uiso 0.144(13) 1 calc R U P A 2
C16A C 0.529(6) 0.810(7) 0.563(7) 0.090(6) Uani 0.144(13) 1 d D U P A 2
H16D H 0.568903 0.781055 0.582850 0.135 Uiso 0.144(13) 1 calc R U P A 2
H16E H 0.509014 0.801209 0.511591 0.135 Uiso 0.144(13) 1 calc R U P A 2
H16F H 0.568948 0.874436 0.586785 0.135 Uiso 0.144(13) 1 calc R U P A 2
C17A C 0.439(7) 0.769(7) 0.576(6) 0.090(6) Uani 0.144(13) 1 d D U P A 2
H17C H 0.459759 0.776317 0.628428 0.108 Uiso 0.144(13) 1 calc R U P A 2
H17D H 0.399815 0.703077 0.553221 0.108 Uiso 0.144(13) 1 calc R U P A 2
O8 O 0.2884(8) 0.8459(6) 0.8150(6) 0.089(3) Uani 1 1 d . U . . .
C57 C 0.2809(17) 0.9051(11) 0.8318(12) 0.083(6) Uani 0.758(15) 1 d D U P B 1
H57B H 0.216004 0.894277 0.823435 0.100 Uiso 0.758(15) 1 calc R U P B 1
N6 N 0.3622(15) 0.9935(11) 0.8641(11) 0.090(5) Uani 0.758(15) 1 d D U P B 1
C58 C 0.392(2) 1.1014(17) 0.9636(16) 0.126(10) Uani 0.758(15) 1 d D U P B 1
H58A H 0.370547 1.143220 0.973568 0.189 Uiso 0.758(15) 1 calc R U P B 1
H58B H 0.377564 1.055917 0.991133 0.189 Uiso 0.758(15) 1 calc R U P B 1
H58C H 0.464570 1.135071 0.977379 0.189 Uiso 0.758(15) 1 calc R U P B 1
C59 C 0.3415(19) 1.0594(13) 0.8914(14) 0.108(7) Uani 0.758(15) 1 d D U P B 1
H59A H 0.355243 1.107095 0.864962 0.130 Uiso 0.758(15) 1 calc R U P B 1
H59D H 0.268681 1.028345 0.878645 0.130 Uiso 0.758(15) 1 calc R U P B 1
C60 C 0.508(2) 1.0391(19) 0.8294(17) 0.132(10) Uani 0.758(15) 1 d D U P B 1
H60A H 0.575877 1.049787 0.844846 0.199 Uiso 0.758(15) 1 calc R U P B 1
H60B H 0.462304 0.990941 0.784990 0.199 Uiso 0.758(15) 1 calc R U P B 1
H60C H 0.506851 1.094662 0.820908 0.199 Uiso 0.758(15) 1 calc R U P B 1
C61 C 0.4702(19) 1.0092(17) 0.8917(16) 0.115(7) Uani 0.758(15) 1 d D U P B 1
H61A H 0.470503 0.953149 0.900808 0.138 Uiso 0.758(15) 1 calc R U P B 1
H61B H 0.515257 1.057352 0.936892 0.138 Uiso 0.758(15) 1 calc R U P B 1
C57A C 0.336(4) 0.907(3) 0.809(3) 0.073(10) Uani 0.242(15) 1 d D U P B 2
H57A H 0.336496 0.900994 0.763742 0.088 Uiso 0.242(15) 1 calc R U P B 2
N6A N 0.400(4) 0.997(2) 0.851(3) 0.079(9) Uani 0.242(15) 1 d D U P B 2
C58A C 0.472(7) 1.056(6) 0.981(3) 0.17(3) Uani 0.242(15) 1 d D U P B 2
H58D H 0.451426 1.060780 1.019149 0.261 Uiso 0.242(15) 1 calc R U P B 2
H58E H 0.507880 1.022200 0.991540 0.261 Uiso 0.242(15) 1 calc R U P B 2
H58F H 0.517196 1.116905 0.979434 0.261 Uiso 0.242(15) 1 calc R U P B 2
C59A C 0.389(5) 1.012(4) 0.917(3) 0.103(13) Uani 0.242(15) 1 d D U P B 2
H59B H 0.353780 1.046862 0.909174 0.124 Uiso 0.242(15) 1 calc R U P B 2
H59C H 0.344523 0.952757 0.921204 0.124 Uiso 0.242(15) 1 calc R U P B 2
C60A C 0.565(5) 1.098(5) 0.840(5) 0.14(3) Uani 0.242(15) 1 d D U P B 2
H60D H 0.596616 1.147298 0.819056 0.214 Uiso 0.242(15) 1 calc R U P B 2
H60E H 0.603085 1.117605 0.892251 0.214 Uiso 0.242(15) 1 calc R U P B 2
H60F H 0.565575 1.044906 0.821584 0.214 Uiso 0.242(15) 1 calc R U P B 2
C61A C 0.449(4) 1.074(4) 0.818(4) 0.116(16) Uani 0.242(15) 1 d D U P B 2
H61C H 0.448734 1.127584 0.835977 0.139 Uiso 0.242(15) 1 calc R U P B 2
H61D H 0.411129 1.054703 0.765131 0.139 Uiso 0.242(15) 1 calc R U P B 2
C62 C 0.4359(6) 0.7119(7) 0.8528(5) 0.034(2) Uani 1 1 d . . . . .
C63 C 0.5449(6) 0.7647(6) 0.8622(5) 0.032(2) Uani 1 1 d . . . . .
C64 C 0.6147(7) 0.7428(7) 0.9065(6) 0.041(2) Uani 1 1 d . . . . .
H64A H 0.594333 0.696086 0.930067 0.049 Uiso 1 1 calc R U . . .
C65 C 0.7135(7) 0.7890(6) 0.9159(6) 0.038(2) Uani 1 1 d . . . . .
H65A H 0.759756 0.772929 0.945449 0.045 Uiso 1 1 calc R U . . .
C66 C 0.7465(6) 0.8593(6) 0.8826(5) 0.0291(19) Uani 1 1 d . . . . .
C67 C 0.6767(6) 0.8815(6) 0.8384(5) 0.035(2) Uani 1 1 d . . . . .
H67A H 0.696909 0.927976 0.814623 0.042 Uiso 1 1 calc R U . . .
C68 C 0.5762(6) 0.8344(6) 0.8295(5) 0.035(2) Uani 1 1 d . . . . .
H68A H 0.529626 0.850806 0.800711 0.041 Uiso 1 1 calc R U . . .
C69 C 1.2134(7) 1.4352(6) 0.9272(6) 0.034(2) Uani 1 1 d . . . . .
C70 C 1.1569(6) 1.3347(5) 0.9202(5) 0.0293(19) Uani 1 1 d . . . . .
C71 C 1.0828(6) 1.2974(6) 0.9455(5) 0.032(2) Uani 1 1 d . . . . .
H71A H 1.066839 1.335808 0.966145 0.039 Uiso 1 1 calc R U . . .
C72 C 1.0325(6) 1.2055(6) 0.9410(5) 0.031(2) Uani 1 1 d . . . . .
H72A H 0.981764 1.181436 0.957453 0.038 Uiso 1 1 calc R U . . .
C73 C 1.0563(6) 1.1491(5) 0.9124(5) 0.0290(19) Uani 1 1 d . . . . .
C74 C 1.1276(7) 1.1841(6) 0.8853(6) 0.035(2) Uani 1 1 d . . . . .
H74A H 1.141666 1.144994 0.863492 0.042 Uiso 1 1 calc R U . . .
C75 C 1.1785(7) 1.2768(6) 0.8903(5) 0.034(2) Uani 1 1 d . . . . .
H75A H 1.228524 1.300503 0.873095 0.041 Uiso 1 1 calc R U . . .
C76 C 1.2297(6) 0.7197(6) 0.9284(5) 0.0281(19) Uani 1 1 d . . . . .
C77 C 1.1726(6) 0.7684(6) 0.9244(5) 0.0293(19) Uani 1 1 d . . . . .
C78 C 1.2158(7) 0.8494(6) 0.9756(5) 0.034(2) Uani 1 1 d . . . . .
H78A H 1.280964 0.872892 1.013490 0.040 Uiso 1 1 calc R U . . .
C79 C 1.1633(7) 0.8950(7) 0.9707(5) 0.035(2) Uani 1 1 d . . . . .
H79A H 1.194772 0.951092 1.004116 0.042 Uiso 1 1 calc R U . . .
C80 C 1.0649(6) 0.8599(5) 0.9176(5) 0.0262(18) Uani 1 1 d . . . . .
C81 C 1.0218(6) 0.7771(6) 0.8672(5) 0.033(2) Uani 1 1 d . . . . .
H81A H 0.955097 0.751254 0.830879 0.039 Uiso 1 1 calc R U . . .
C82 C 1.0754(7) 0.7335(6) 0.8701(5) 0.033(2) Uani 1 1 d . . . . .
H82A H 1.045969 0.679492 0.834854 0.040 Uiso 1 1 calc R U . . .
C83 C 0.8542(6) 0.9089(5) 0.8932(5) 0.0257(18) Uani 1 1 d . . . . .
C84 C 0.9032(6) 1.0028(5) 0.8964(5) 0.0254(18) Uani 1 1 d . . . . .
H84A H 0.867097 1.034139 0.889632 0.030 Uiso 1 1 calc R U . . .
C85 C 1.0040(6) 1.0489(6) 0.9094(5) 0.0268(18) Uani 1 1 d . . . . .
C86 C 1.0563(6) 1.0023(5) 0.9167(5) 0.0273(19) Uani 1 1 d . . . . .
H86A H 1.124992 1.034560 0.925657 0.033 Uiso 1 1 calc R U . . .
C87 C 1.0094(6) 0.9083(5) 0.9113(5) 0.0274(19) Uani 1 1 d . . . . .
C88 C 0.9069(6) 0.8625(6) 0.8985(5) 0.0285(19) Uani 1 1 d . . . . .
H88A H 0.873250 0.799139 0.893351 0.034 Uiso 1 1 calc R U . . .
C89 C 0.0615(10) 0.9586(8) 0.6877(7) 0.062(3) Uani 1 1 d . . . . .
H89A H 0.080607 0.917046 0.670519 0.074 Uiso 1 1 calc R U . . .
Cl1 Cl 0.1707(3) 1.0673(3) 0.7301(2) 0.0911(12) Uani 1 1 d . . . . .
Cl2 Cl 0.0148(4) 0.9166(3) 0.7492(2) 0.0945(13) Uani 1 1 d . . . . .
Cl3 Cl -0.0298(3) 0.9652(3) 0.6121(2) 0.0852(11) Uani 1 1 d . . . . .
loop_
_atom_site_aniso_label
_atom_site_aniso_U_11
_atom_site_aniso_U_22
_atom_site_aniso_U_33
_atom_site_aniso_U_23
_atom_site_aniso_U_13
_atom_site_aniso_U_12
Cd1 0.0271(3) 0.0290(3) 0.0406(4) 0.0136(3) 0.0149(3) 0.0191(3)
Cd2 0.0209(3) 0.0289(3) 0.0342(4) 0.0108(3) 0.0110(3) 0.0141(3)
Cd3 0.0216(3) 0.0220(3) 0.0375(4) 0.0087(3) 0.0107(3) 0.0120(3)
O2 0.028(3) 0.031(3) 0.059(4) 0.021(3) 0.031(3) 0.017(3)
O3 0.026(3) 0.058(5) 0.059(5) 0.032(4) 0.021(3) 0.025(3)
O4 0.035(4) 0.057(5) 0.059(5) 0.006(4) 0.010(4) 0.034(4)
O5 0.029(3) 0.044(4) 0.036(4) 0.019(3) 0.016(3) 0.027(3)
O6 0.047(4) 0.018(3) 0.087(6) 0.013(4) 0.031(4) 0.009(3)
O7 0.067(6) 0.045(5) 0.091(7) 0.031(5) 0.029(5) 0.030(4)
O9 0.020(3) 0.078(6) 0.051(5) 0.022(4) 0.015(3) 0.019(4)
O10 0.039(4) 0.051(4) 0.085(6) 0.041(4) 0.043(4) 0.024(4)
O11 0.037(4) 0.029(3) 0.060(5) 0.014(3) 0.029(3) 0.014(3)
O12 0.044(4) 0.027(3) 0.070(5) 0.019(3) 0.031(4) 0.020(3)
O13 0.051(4) 0.058(5) 0.040(4) 0.000(3) 0.005(3) 0.045(4)
O14 0.032(3) 0.023(3) 0.045(4) 0.013(3) 0.020(3) 0.020(3)
N1 0.044(5) 0.050(5) 0.038(5) 0.021(4) 0.016(4) 0.036(4)
N2 0.035(4) 0.032(4) 0.043(5) 0.006(4) 0.010(4) 0.024(4)
N4 0.047(5) 0.032(4) 0.041(5) 0.005(4) 0.015(4) 0.024(4)
N5 0.070(7) 0.041(5) 0.066(7) 0.010(5) 0.031(6) 0.020(5)
C1 0.024(5) 0.058(7) 0.037(6) 0.006(5) 0.007(4) 0.020(5)
C2 0.029(5) 0.057(7) 0.051(7) 0.011(5) 0.014(5) 0.021(5)
C3 0.037(5) 0.055(7) 0.055(7) 0.016(6) 0.013(5) 0.029(5)
C4 0.051(6) 0.057(7) 0.056(7) 0.028(6) 0.022(6) 0.037(6)
C5 0.044(6) 0.040(6) 0.055(7) 0.013(5) 0.013(5) 0.030(5)
C6 0.033(5) 0.052(7) 0.054(7) 0.018(5) 0.018(5) 0.015(5)
C7 0.035(5) 0.052(7) 0.056(7) 0.017(6) 0.016(5) 0.019(5)
C8 0.039(5) 0.047(6) 0.034(6) 0.012(5) 0.009(4) 0.022(5)
C9 0.032(5) 0.059(7) 0.051(7) 0.013(6) 0.009(5) 0.031(5)
C10 0.036(5) 0.048(6) 0.052(7) 0.006(5) 0.014(5) 0.029(5)
C11 0.054(7) 0.066(8) 0.040(6) 0.001(6) 0.003(5) 0.042(6)
C12 0.056(7) 0.059(7) 0.037(6) -0.003(5) 0.002(5) 0.036(6)
C18 0.028(4) 0.034(5) 0.034(5) 0.008(4) 0.015(4) 0.021(4)
C19 0.022(4) 0.032(5) 0.033(5) 0.005(4) 0.011(4) 0.015(4)
C20 0.033(5) 0.034(5) 0.068(7) 0.025(5) 0.026(5) 0.026(4)
C21 0.036(5) 0.035(5) 0.072(7) 0.029(5) 0.030(5) 0.026(4)
C22 0.025(4) 0.032(5) 0.059(7) 0.016(5) 0.022(4) 0.019(4)
C23 0.037(5) 0.036(5) 0.052(6) 0.019(5) 0.022(5) 0.028(4)
C24 0.032(5) 0.038(5) 0.045(6) 0.020(4) 0.019(4) 0.023(4)
C25 0.033(5) 0.031(5) 0.036(5) 0.009(4) 0.016(4) 0.021(4)
C26 0.028(4) 0.031(5) 0.043(6) 0.016(4) 0.017(4) 0.020(4)
C27 0.034(5) 0.035(5) 0.054(6) 0.007(5) 0.016(5) 0.023(4)
C28 0.028(5) 0.040(5) 0.050(6) 0.014(5) 0.012(4) 0.025(4)
C29 0.030(5) 0.032(5) 0.060(7) 0.016(5) 0.025(5) 0.024(4)
C30 0.027(4) 0.024(4) 0.050(6) 0.007(4) 0.013(4) 0.013(4)
C31 0.031(5) 0.041(5) 0.043(6) 0.008(5) 0.005(4) 0.028(4)
C32 0.053(6) 0.028(5) 0.059(7) 0.020(5) 0.034(6) 0.028(5)
C33 0.039(5) 0.023(4) 0.054(6) 0.015(4) 0.025(5) 0.021(4)
C34 0.037(5) 0.035(5) 0.053(6) 0.016(5) 0.023(5) 0.029(4)
C35 0.028(5) 0.028(5) 0.047(6) 0.009(4) 0.011(4) 0.012(4)
C36 0.039(5) 0.025(4) 0.055(6) 0.020(4) 0.026(5) 0.022(4)
C37 0.032(5) 0.024(5) 0.054(6) 0.008(4) 0.015(5) 0.011(4)
C38 0.033(5) 0.035(5) 0.054(6) 0.012(5) 0.017(5) 0.021(4)
C39 0.029(5) 0.045(6) 0.058(7) 0.022(5) 0.025(5) 0.028(4)
C40 0.042(5) 0.032(5) 0.070(7) 0.021(5) 0.031(5) 0.029(5)
C41 0.032(5) 0.036(5) 0.053(6) 0.016(5) 0.021(5) 0.023(4)
C42 0.025(4) 0.033(5) 0.059(6) 0.016(5) 0.023(4) 0.020(4)
C43 0.034(5) 0.024(4) 0.055(6) 0.016(4) 0.020(5) 0.016(4)
C44 0.037(5) 0.039(5) 0.062(7) 0.028(5) 0.029(5) 0.030(5)
C45 0.033(5) 0.024(5) 0.048(6) 0.009(4) 0.012(5) 0.009(4)
C46 0.036(5) 0.032(5) 0.037(6) 0.006(4) 0.008(4) 0.012(4)
C47 0.039(5) 0.037(5) 0.046(6) 0.003(5) 0.015(5) 0.015(5)
C48 0.051(6) 0.031(5) 0.048(7) 0.005(5) 0.017(5) 0.018(5)
C49 0.035(5) 0.039(5) 0.033(5) 0.008(4) 0.011(4) 0.012(4)
C50 0.050(6) 0.034(5) 0.039(6) 0.016(5) 0.022(5) 0.014(5)
C51 0.052(7) 0.038(6) 0.056(7) 0.008(5) 0.021(6) 0.012(5)
C52 0.064(7) 0.042(6) 0.064(8) 0.021(6) 0.038(6) 0.032(6)
C53 0.058(7) 0.040(6) 0.043(7) 0.009(5) 0.023(6) 0.017(5)
C54 0.060(7) 0.042(6) 0.063(8) 0.007(6) 0.032(6) 0.018(6)
C55 0.064(8) 0.054(8) 0.102(12) 0.037(8) 0.044(8) 0.035(7)
C56 0.054(7) 0.040(6) 0.067(8) 0.020(6) 0.027(6) 0.021(5)
O1 0.045(4) 0.068(5) 0.068(5) 0.038(4) 0.033(4) 0.036(4)
C13 0.053(5) 0.073(8) 0.115(9) 0.065(7) 0.056(6) 0.043(6)
N3 0.058(6) 0.089(8) 0.134(9) 0.069(7) 0.069(6) 0.053(6)
C14 0.17(2) 0.124(15) 0.174(19) 0.045(13) 0.097(17) 0.097(16)
C15 0.103(11) 0.107(10) 0.151(10) 0.072(10) 0.096(9) 0.079(9)
C16 0.071(12) 0.136(14) 0.17(2) 0.046(15) 0.046(12) 0.043(11)
C17 0.053(7) 0.118(12) 0.172(13) 0.098(11) 0.057(8) 0.045(9)
N3A 0.084(10) 0.105(12) 0.142(11) 0.068(11) 0.081(9) 0.067(8)
C14A 0.084(10) 0.105(12) 0.142(11) 0.068(11) 0.081(9) 0.067(8)
C15A 0.084(10) 0.105(12) 0.142(11) 0.068(11) 0.081(9) 0.067(8)
C16A 0.084(10) 0.105(12) 0.142(11) 0.068(11) 0.081(9) 0.067(8)
C17A 0.084(10) 0.105(12) 0.142(11) 0.068(11) 0.081(9) 0.067(8)
O8 0.089(7) 0.034(4) 0.127(9) 0.003(5) 0.055(7) 0.013(5)
C57 0.089(10) 0.032(7) 0.111(13) 0.014(8) 0.041(10) 0.019(7)
N6 0.088(10) 0.036(6) 0.112(12) -0.004(7) 0.042(9) 0.007(7)
C58 0.107(18) 0.077(15) 0.157(18) -0.028(14) 0.057(16) 0.022(14)
C59 0.115(15) 0.043(9) 0.140(15) 0.014(10) 0.040(13) 0.033(10)
C60 0.103(18) 0.102(18) 0.16(2) 0.058(17) 0.065(16) 0.021(15)
C61 0.087(10) 0.083(13) 0.137(16) 0.013(12) 0.049(12) 0.014(9)
C57A 0.063(17) 0.037(11) 0.122(18) 0.017(12) 0.041(16) 0.026(12)
N6A 0.070(16) 0.034(9) 0.130(16) 0.013(11) 0.036(14) 0.030(11)
C58A 0.15(4) 0.10(4) 0.14(2) -0.03(4) 0.02(3) 0.00(4)
C59A 0.093(19) 0.054(17) 0.131(18) 0.003(15) 0.045(15) 0.017(17)
C60A 0.07(3) 0.08(4) 0.19(5) 0.01(4) 0.04(3) -0.01(3)
C61A 0.08(2) 0.060(17) 0.15(2) 0.007(19) 0.05(2) -0.01(2)
C62 0.022(4) 0.044(6) 0.040(6) 0.008(5) 0.017(4) 0.016(4)
C63 0.019(4) 0.037(5) 0.044(6) 0.016(4) 0.017(4) 0.015(4)
C64 0.032(5) 0.048(6) 0.059(7) 0.036(5) 0.027(5) 0.025(5)
C65 0.024(4) 0.040(5) 0.056(6) 0.033(5) 0.022(4) 0.017(4)
C66 0.023(4) 0.026(4) 0.040(5) 0.010(4) 0.013(4) 0.015(4)
C67 0.023(4) 0.037(5) 0.050(6) 0.025(5) 0.020(4) 0.016(4)
C68 0.016(4) 0.040(5) 0.046(6) 0.016(4) 0.010(4) 0.015(4)
C69 0.024(4) 0.025(4) 0.051(6) 0.010(4) 0.015(4) 0.011(4)
C70 0.025(4) 0.017(4) 0.032(5) 0.003(4) 0.012(4) 0.000(3)
C71 0.023(4) 0.022(4) 0.055(6) 0.008(4) 0.020(4) 0.010(4)
C72 0.026(4) 0.027(4) 0.047(6) 0.010(4) 0.020(4) 0.014(4)
C73 0.018(4) 0.017(4) 0.048(6) 0.013(4) 0.014(4) 0.005(3)
C74 0.037(5) 0.022(4) 0.056(6) 0.010(4) 0.029(5) 0.016(4)
C75 0.034(5) 0.024(4) 0.054(6) 0.022(4) 0.031(5) 0.011(4)
C76 0.030(4) 0.025(4) 0.036(5) 0.009(4) 0.017(4) 0.016(4)
C77 0.028(4) 0.029(4) 0.043(5) 0.015(4) 0.017(4) 0.022(4)
C78 0.027(4) 0.036(5) 0.036(5) 0.005(4) 0.010(4) 0.018(4)
C79 0.032(5) 0.037(5) 0.043(6) 0.012(4) 0.017(4) 0.024(4)
C80 0.025(4) 0.021(4) 0.038(5) 0.010(4) 0.015(4) 0.014(3)
C81 0.023(4) 0.028(5) 0.050(6) 0.012(4) 0.019(4) 0.012(4)
C82 0.031(5) 0.028(5) 0.042(6) 0.008(4) 0.014(4) 0.018(4)
C83 0.023(4) 0.015(4) 0.043(5) 0.010(4) 0.018(4) 0.009(3)
C84 0.024(4) 0.020(4) 0.042(5) 0.015(4) 0.020(4) 0.014(3)
C85 0.025(4) 0.024(4) 0.042(5) 0.012(4) 0.019(4) 0.017(4)
C86 0.021(4) 0.019(4) 0.048(6) 0.014(4) 0.020(4) 0.010(3)
C87 0.020(4) 0.021(4) 0.043(5) 0.008(4) 0.014(4) 0.012(3)
C88 0.022(4) 0.021(4) 0.043(5) 0.009(4) 0.018(4) 0.007(3)
C89 0.081(9) 0.043(7) 0.073(9) 0.025(6) 0.038(7) 0.036(7)
Cl1 0.099(3) 0.062(2) 0.085(3) 0.020(2) 0.034(2) 0.025(2)
Cl2 0.126(4) 0.084(3) 0.089(3) 0.038(2) 0.068(3) 0.046(3)
Cl3 0.090(3) 0.094(3) 0.083(3) 0.035(2) 0.037(2) 0.056(2)
loop_
_atom_type_symbol
_atom_type_description
_atom_type_scat_dispersion_real
_atom_type_scat_dispersion_imag
_atom_type_scat_source
C C 0.0033 0.0016 'International Tables Vol C Tables 4.2.6.8 and 6.1.1.4'
H H 0.0000 0.0000 'International Tables Vol C Tables 4.2.6.8 and 6.1.1.4'
N N 0.0061 0.0033 'International Tables Vol C Tables 4.2.6.8 and 6.1.1.4'
O O 0.0106 0.0060 'International Tables Vol C Tables 4.2.6.8 and 6.1.1.4'
Cd Cd -0.8075 1.2024 'International Tables Vol C Tables 4.2.6.8 and 6.1.1.4'
Cl Cl 0.1484 0.1585 'International Tables Vol C Tables 4.2.6.8 and 6.1.1.4'
loop_
_geom_angle_atom_site_label_1
_geom_angle_atom_site_label_2
_geom_angle_atom_site_label_3
_geom_angle
_geom_angle_site_symmetry_1
_geom_angle_site_symmetry_3
_geom_angle_publ_flag
O2 Cd1 O6 94.7(3) . 1_665 ?
O2 Cd1 N1 88.0(3) . . ?
O6 Cd1 N1 85.0(3) 1_665 . ?
O2 Cd1 O5 95.1(2) . 1_655 ?
O6 Cd1 O5 140.2(3) 1_665 1_655 ?
N1 Cd1 O5 133.8(3) . 1_655 ?
O2 Cd1 O1 174.5(2) . . ?
O6 Cd1 O1 88.7(3) 1_665 . ?
N1 Cd1 O1 96.7(3) . . ?
O5 Cd1 O1 79.6(2) 1_655 . ?
O2 Cd1 O4 103.2(2) . 1_655 ?
O6 Cd1 O4 156.8(3) 1_665 1_655 ?
N1 Cd1 O4 80.9(3) . 1_655 ?
O5 Cd1 O4 53.4(2) 1_655 1_655 ?
O1 Cd1 O4 74.8(3) . 1_655 ?
O2 Cd1 C25 105.6(2) . 1_655 ?
O6 Cd1 C25 156.5(3) 1_665 1_655 ?
N1 Cd1 C25 107.1(3) . 1_655 ?
O5 Cd1 C25 28.1(2) 1_655 1_655 ?
O1 Cd1 C25 70.2(3) . 1_655 ?
O4 Cd1 C25 26.3(2) 1_655 1_655 ?
O3 Cd2 O9 175.5(3) . . ?
O3 Cd2 O8 94.1(4) . . ?
O9 Cd2 O8 82.2(4) . . ?
O3 Cd2 N4 80.7(3) . . ?
O9 Cd2 N4 103.4(3) . . ?
O8 Cd2 N4 170.7(4) . . ?
O3 Cd2 O5 88.0(2) . 1_655 ?
O9 Cd2 O5 89.7(2) . 1_655 ?
O8 Cd2 O5 92.3(3) . 1_655 ?
N4 Cd2 O5 95.1(3) . 1_655 ?
O3 Cd2 O14 92.4(2) . 1_455 ?
O9 Cd2 O14 89.8(2) . 1_455 ?
O8 Cd2 O14 87.3(3) . 1_455 ?
N4 Cd2 O14 85.3(3) . 1_455 ?
O5 Cd2 O14 179.5(2) 1_655 1_455 ?
O10 Cd3 N2 92.4(3) . 1_656 ?
O10 Cd3 O12 141.1(3) . 1_445 ?
N2 Cd3 O12 97.6(3) 1_656 1_445 ?
O10 Cd3 O13 113.7(3) . 1_455 ?
N2 Cd3 O13 90.5(3) 1_656 1_455 ?
O12 Cd3 O13 103.8(3) 1_445 1_455 ?
O10 Cd3 O11 86.8(3) . 1_445 ?
N2 Cd3 O11 91.9(3) 1_656 1_445 ?
O12 Cd3 O11 55.5(2) 1_445 1_445 ?
O13 Cd3 O11 159.2(3) 1_455 1_445 ?
O10 Cd3 O14 96.9(2) . 1_455 ?
N2 Cd3 O14 145.7(2) 1_656 1_455 ?
O12 Cd3 O14 95.7(2) 1_445 1_455 ?
O13 Cd3 O14 55.6(2) 1_455 1_455 ?
O11 Cd3 O14 121.4(2) 1_445 1_455 ?
O10 Cd3 C69 114.6(3) . 1_445 ?
N2 Cd3 C69 94.3(3) 1_656 1_445 ?
O12 Cd3 C69 27.4(3) 1_445 1_445 ?
O13 Cd3 C69 131.1(3) 1_455 1_445 ?
O11 Cd3 C69 28.1(3) 1_445 1_445 ?
O14 Cd3 C69 111.2(2) 1_455 1_445 ?
O10 Cd3 C76 109.0(3) . 1_455 ?
N2 Cd3 C76 118.4(3) 1_656 1_455 ?
O12 Cd3 C76 99.0(2) 1_445 1_455 ?
O13 Cd3 C76 27.9(2) 1_455 1_455 ?
O11 Cd3 C76 144.1(3) 1_445 1_455 ?
O14 Cd3 C76 27.9(2) 1_455 1_455 ?
C69 Cd3 C76 123.4(3) 1_445 1_455 ?
C18 O2 Cd1 127.6(5) . . ?
C18 O3 Cd2 142.2(6) . . ?
C25 O4 Cd1 87.7(6) . 1_455 ?
C25 O5 Cd2 121.0(6) . 1_455 ?
C25 O5 Cd1 91.9(5) . 1_455 ?
Cd2 O5 Cd1 119.7(2) 1_455 1_455 ?
C32 O6 Cd1 101.1(6) . 1_445 ?
C62 O9 Cd2 142.7(6) . . ?
C62 O10 Cd3 133.8(7) . . ?
C69 O11 Cd3 90.2(5) . 1_665 ?
C69 O12 Cd3 92.5(6) . 1_665 ?
C76 O13 Cd3 91.3(5) . 1_655 ?
C76 O14 Cd3 90.1(5) . 1_655 ?
C76 O14 Cd2 128.8(5) . 1_655 ?
Cd3 O14 Cd2 116.6(2) 1_655 1_655 ?
C1 N1 C5 117.0(9) . . ?
C1 N1 Cd1 123.8(7) . . ?
C5 N1 Cd1 119.2(7) . . ?
C11 N2 C10 118.3(9) . . ?
C11 N2 Cd3 121.7(6) . 1_454 ?
C10 N2 Cd3 120.0(7) . 1_454 ?
C45 N4 C49 116.1(8) . . ?
C45 N4 Cd2 121.6(6) . . ?
C49 N4 Cd2 120.9(6) . . ?
C54 N5 C55 117.1(11) . . ?
N1 C1 C2 124.5(11) . . ?
N1 C1 H1A 117.7 . . ?
C2 C1 H1A 117.7 . . ?
C3 C2 C1 120.9(11) . . ?
C3 C2 H2A 119.6 . . ?
C1 C2 H2A 119.6 . . ?
C2 C3 C4 117.0(10) . . ?
C2 C3 C6 123.8(11) . . ?
C4 C3 C6 119.2(10) . . ?
C5 C4 C3 118.8(10) . . ?
C5 C4 H4A 120.6 . . ?
C3 C4 H4A 120.6 . . ?
N1 C5 C4 121.7(10) . . ?
N1 C5 H5A 119.1 . . ?
C4 C5 H5A 119.1 . . ?
C7 C6 C3 124.2(12) . . ?
C7 C6 H6A 117.9 . . ?
C3 C6 H6A 117.9 . . ?
C6 C7 C8 127.1(12) . . ?
C6 C7 H7A 116.5 . . ?
C8 C7 H7A 116.5 . . ?
C12 C8 C9 117.0(9) . . ?
C12 C8 C7 118.8(10) . . ?
C9 C8 C7 124.2(10) . . ?
C8 C9 C10 120.4(10) . . ?
C8 C9 H9A 119.8 . . ?
C10 C9 H9A 119.8 . . ?
N2 C10 C9 121.3(10) . . ?
N2 C10 H10A 119.3 . . ?
C9 C10 H10A 119.3 . . ?
N2 C11 C12 122.4(10) . . ?
N2 C11 H11A 118.8 . . ?
C12 C11 H11A 118.8 . . ?
C8 C12 C11 120.5(11) . . ?
C8 C12 H12A 119.8 . . ?
C11 C12 H12A 119.8 . . ?
O3 C18 O2 125.7(8) . . ?
O3 C18 C19 116.3(8) . . ?
O2 C18 C19 118.0(8) . . ?
C20 C19 C24 118.0(8) . . ?
C20 C19 C18 120.0(8) . . ?
C24 C19 C18 122.0(8) . . ?
C21 C20 C19 121.1(8) . . ?
C21 C20 H20A 119.5 . . ?
C19 C20 H20A 119.5 . . ?
C20 C21 C22 121.8(9) . . ?
C20 C21 H21A 119.1 . . ?
C22 C21 H21A 119.1 . . ?
C23 C22 C21 116.4(8) . . ?
C23 C22 C39 123.8(8) . . ?
C21 C22 C39 119.8(8) . . ?
C22 C23 C24 122.5(8) . . ?
C22 C23 H23A 118.7 . . ?
C24 C23 H23A 118.7 . . ?
C23 C24 C19 120.1(9) . . ?
C23 C24 H24A 119.9 . . ?
C19 C24 H24A 119.9 . . ?
O4 C25 O5 122.4(8) . . ?
O4 C25 C26 120.5(9) . . ?
O5 C25 C26 116.9(8) . . ?
O4 C25 Cd1 66.0(5) . 1_455 ?
O5 C25 Cd1 59.9(4) . 1_455 ?
C26 C25 Cd1 154.5(6) . 1_455 ?
C31 C26 C27 120.0(8) . . ?
C31 C26 C25 119.0(8) . . ?
C27 C26 C25 120.9(9) . . ?
C26 C27 C28 119.0(9) . . ?
C26 C27 H27A 120.5 . . ?
C28 C27 H27A 120.5 . . ?
C29 C28 C27 121.1(9) . . ?
C29 C28 H28A 119.5 . . ?
C27 C28 H28A 119.5 . . ?
C28 C29 C30 120.5(8) . . ?
C28 C29 C41 120.3(9) . . ?
C30 C29 C41 119.0(9) . . ?
C29 C30 C31 119.3(9) . . ?
C29 C30 H30A 120.4 . . ?
C31 C30 H30A 120.4 . . ?
C26 C31 C30 120.1(8) . . ?
C26 C31 H31A 120.0 . . ?
C30 C31 H31A 120.0 . . ?
O7 C32 O6 123.0(9) . . ?
O7 C32 C33 120.7(10) . . ?
O6 C32 C33 116.3(9) . . ?
C38 C33 C34 119.3(8) . . ?
C38 C33 C32 120.9(9) . . ?
C34 C33 C32 119.8(9) . . ?
C35 C34 C33 120.5(9) . . ?
C35 C34 H34A 119.7 . . ?
C33 C34 H34A 119.7 . . ?
C34 C35 C36 121.4(9) . . ?
C34 C35 H35A 119.3 . . ?
C36 C35 H35A 119.3 . . ?
C37 C36 C35 116.7(8) . . ?
C37 C36 C43 121.7(9) . . ?
C35 C36 C43 121.6(8) . . ?
C38 C37 C36 121.7(9) . . ?
C38 C37 H37A 119.1 . . ?
C36 C37 H37A 119.1 . . ?
C37 C38 C33 120.2(9) . . ?
C37 C38 H38A 119.9 . . ?
C33 C38 H38A 119.9 . . ?
C44 C39 C40 118.0(8) . . ?
C44 C39 C22 121.5(8) . . ?
C40 C39 C22 120.4(9) . . ?
C41 C40 C39 120.7(9) . . ?
C41 C40 H40A 119.6 . . ?
C39 C40 H40A 119.6 . . ?
C42 C41 C40 120.0(8) . . ?
C42 C41 C29 119.1(8) . . ?
C40 C41 C29 120.5(8) . . ?
C41 C42 C43 122.0(8) . . ?
C41 C42 H42A 119.0 . . ?
C43 C42 H42A 119.0 . . ?
C44 C43 C42 116.5(8) . . ?
C44 C43 C36 122.5(8) . . ?
C42 C43 C36 120.6(8) . . ?
C39 C44 C43 122.8(8) . . ?
C39 C44 H44A 118.6 . . ?
C43 C44 H44A 118.6 . . ?
N4 C45 C46 122.8(9) . . ?
N4 C45 H45A 118.6 . . ?
C46 C45 H45A 118.6 . . ?
C47 C46 C45 120.6(9) . . ?
C47 C46 H46A 119.7 . . ?
C45 C46 H46A 119.7 . . ?
C48 C47 C46 117.2(10) . . ?
C48 C47 C50 124.9(10) . . ?
C46 C47 C50 117.9(9) . . ?
C47 C48 C49 119.3(10) . . ?
C47 C48 H48A 120.4 . . ?
C49 C48 H48A 120.4 . . ?
N4 C49 C48 123.9(9) . . ?
N4 C49 H49A 118.1 . . ?
C48 C49 H49A 118.1 . . ?
C51 C50 C47 124.2(10) . . ?
C51 C50 H50A 117.9 . . ?
C47 C50 H50A 117.9 . . ?
C50 C51 C52 124.1(11) . . ?
C50 C51 H51A 118.0 . . ?
C52 C51 H51A 118.0 . . ?
C53 C52 C56 118.2(11) . . ?
C53 C52 C51 124.8(11) . . ?
C56 C52 C51 117.0(11) . . ?
C52 C53 C54 119.5(11) . . ?
C52 C53 H53A 120.2 . . ?
C54 C53 H53A 120.2 . . ?
N5 C54 C53 123.7(12) . . ?
N5 C54 H54A 118.1 . . ?
C53 C54 H54A 118.1 . . ?
N5 C55 C56 122.7(12) . . ?
N5 C55 H55A 118.7 . . ?
C56 C55 H55A 118.7 . . ?
C52 C56 C55 118.7(12) . . ?
C52 C56 H56A 120.6 . . ?
C55 C56 H56A 120.6 . . ?
C13 O1 Cd1 113.1(8) . . ?
O1 C13 N3 128.1(16) . . ?
O1 C13 N3A 104(4) . . ?
O1 C13 H13A 115.9 . . ?
N3 C13 H13A 115.9 . . ?
O1 C13 H13B 128.0 . . ?
N3A C13 H13B 128.0 . . ?
C13 N3 C15 121.0(15) . . ?
C13 N3 C17 120.5(16) . . ?
C15 N3 C17 118.4(14) . . ?
C15 C14 H14A 109.5 . . ?
C15 C14 H14B 109.5 . . ?
H14A C14 H14B 109.5 . . ?
C15 C14 H14C 109.5 . . ?
H14A C14 H14C 109.5 . . ?
H14B C14 H14C 109.5 . . ?
N3 C15 C14 115.0(19) . . ?
N3 C15 H15A 108.5 . . ?
C14 C15 H15A 108.5 . . ?
N3 C15 H15B 108.5 . . ?
C14 C15 H15B 108.5 . . ?
H15A C15 H15B 107.5 . . ?
C17 C16 H16A 109.5 . . ?
C17 C16 H16B 109.5 . . ?
H16A C16 H16B 109.5 . . ?
C17 C16 H16C 109.5 . . ?
H16A C16 H16C 109.5 . . ?
H16B C16 H16C 109.5 . . ?
C16 C17 N3 112.6(17) . . ?
C16 C17 H17A 109.1 . . ?
N3 C17 H17A 109.1 . . ?
C16 C17 H17B 109.1 . . ?
N3 C17 H17B 109.1 . . ?
H17A C17 H17B 107.8 . . ?
C13 N3A C15A 100(5) . . ?
C13 N3A C17A 133(7) . . ?
C15A N3A C17A 118(3) . . ?
C15A C14A H14D 109.5 . . ?
C15A C14A H14E 109.5 . . ?
H14D C14A H14E 109.5 . . ?
C15A C14A H14F 109.5 . . ?
H14D C14A H14F 109.5 . . ?
H14E C14A H14F 109.5 . . ?
N3A C15A C14A 117(4) . . ?
N3A C15A H15C 108.0 . . ?
C14A C15A H15C 108.0 . . ?
N3A C15A H15D 108.0 . . ?
C14A C15A H15D 108.0 . . ?
H15C C15A H15D 107.2 . . ?
C17A C16A H16D 109.5 . . ?
C17A C16A H16E 109.5 . . ?
H16D C16A H16E 109.5 . . ?
C17A C16A H16F 109.5 . . ?
H16D C16A H16F 109.5 . . ?
H16E C16A H16F 109.5 . . ?
C16A C17A N3A 112(3) . . ?
C16A C17A H17C 109.1 . . ?
N3A C17A H17C 109.1 . . ?
C16A C17A H17D 109.1 . . ?
N3A C17A H17D 109.1 . . ?
H17C C17A H17D 107.9 . . ?
C57A O8 Cd2 137(3) . . ?
C57 O8 Cd2 149.4(14) . . ?
O8 C57 N6 124(2) . . ?
O8 C57 H57B 118.2 . . ?
N6 C57 H57B 118.2 . . ?
C57 N6 C59 116(2) . . ?
C57 N6 C61 119(2) . . ?
C59 N6 C61 121.6(17) . . ?
C59 C58 H58A 109.5 . . ?
C59 C58 H58B 109.5 . . ?
H58A C58 H58B 109.5 . . ?
C59 C58 H58C 109.5 . . ?
H58A C58 H58C 109.5 . . ?
H58B C58 H58C 109.5 . . ?
C58 C59 N6 119(2) . . ?
C58 C59 H59A 107.6 . . ?
N6 C59 H59A 107.6 . . ?
C58 C59 H59D 107.6 . . ?
N6 C59 H59D 107.6 . . ?
H59A C59 H59D 107.0 . . ?
C61 C60 H60A 109.5 . . ?
C61 C60 H60B 109.5 . . ?
H60A C60 H60B 109.5 . . ?
C61 C60 H60C 109.5 . . ?
H60A C60 H60C 109.5 . . ?
H60B C60 H60C 109.5 . . ?
N6 C61 C60 107(2) . . ?
N6 C61 H61A 110.3 . . ?
C60 C61 H61A 110.3 . . ?
N6 C61 H61B 110.3 . . ?
C60 C61 H61B 110.3 . . ?
H61A C61 H61B 108.6 . . ?
O8 C57A N6A 137(5) . . ?
O8 C57A H57A 111.3 . . ?
N6A C57A H57A 111.3 . . ?
C57A N6A C59A 113(3) . . ?
C57A N6A C61A 121(3) . . ?
C59A N6A C61A 123(3) . . ?
C59A C58A H58D 109.5 . . ?
C59A C58A H58E 109.5 . . ?
H58D C58A H58E 109.5 . . ?
C59A C58A H58F 109.5 . . ?
H58D C58A H58F 109.5 . . ?
H58E C58A H58F 109.5 . . ?
C58A C59A N6A 120(4) . . ?
C58A C59A H59B 107.2 . . ?
N6A C59A H59B 107.2 . . ?
C58A C59A H59C 107.2 . . ?
N6A C59A H59C 107.2 . . ?
H59B C59A H59C 106.8 . . ?
C61A C60A H60D 109.5 . . ?
C61A C60A H60E 109.5 . . ?
H60D C60A H60E 109.5 . . ?
C61A C60A H60F 109.5 . . ?
H60D C60A H60F 109.5 . . ?
H60E C60A H60F 109.5 . . ?
N6A C61A C60A 110(4) . . ?
N6A C61A H61C 109.8 . . ?
C60A C61A H61C 109.8 . . ?
N6A C61A H61D 109.8 . . ?
C60A C61A H61D 109.8 . . ?
H61C C61A H61D 108.2 . . ?
O10 C62 O9 127.4(9) . . ?
O10 C62 C63 117.2(8) . . ?
O9 C62 C63 115.5(8) . . ?
C68 C63 C64 119.4(8) . . ?
C68 C63 C62 121.8(8) . . ?
C64 C63 C62 118.8(8) . . ?
C65 C64 C63 120.2(8) . . ?
C65 C64 H64A 119.9 . . ?
C63 C64 H64A 119.9 . . ?
C64 C65 C66 121.4(8) . . ?
C64 C65 H65A 119.3 . . ?
C66 C65 H65A 119.3 . . ?
C65 C66 C67 118.5(8) . . ?
C65 C66 C83 120.9(8) . . ?
C67 C66 C83 120.7(8) . . ?
C66 C67 C68 119.8(8) . . ?
C66 C67 H67A 120.1 . . ?
C68 C67 H67A 120.1 . . ?
C63 C68 C67 120.7(8) . . ?
C63 C68 H68A 119.6 . . ?
C67 C68 H68A 119.6 . . ?
O12 C69 O11 121.6(8) . . ?
O12 C69 C70 119.5(8) . . ?
O11 C69 C70 118.8(8) . . ?
O12 C69 Cd3 60.1(5) . 1_665 ?
O11 C69 Cd3 61.7(5) . 1_665 ?
C70 C69 Cd3 179.1(7) . 1_665 ?
C75 C70 C71 118.1(8) . . ?
C75 C70 C69 121.0(8) . . ?
C71 C70 C69 120.9(8) . . ?
C72 C71 C70 121.2(8) . . ?
C72 C71 H71A 119.4 . . ?
C70 C71 H71A 119.4 . . ?
C73 C72 C71 120.1(8) . . ?
C73 C72 H72A 120.0 . . ?
C71 C72 H72A 120.0 . . ?
C72 C73 C74 119.8(8) . . ?
C72 C73 C85 120.4(8) . . ?
C74 C73 C85 119.8(8) . . ?
C73 C74 C75 120.0(8) . . ?
C73 C74 H74A 120.0 . . ?
C75 C74 H74A 120.0 . . ?
C70 C75 C74 120.8(8) . . ?
C70 C75 H75A 119.6 . . ?
C74 C75 H75A 119.6 . . ?
O14 C76 O13 122.5(8) . . ?
O14 C76 C77 119.1(8) . . ?
O13 C76 C77 118.4(8) . . ?
O14 C76 Cd3 62.1(4) . 1_655 ?
O13 C76 Cd3 60.9(5) . 1_655 ?
C77 C76 Cd3 172.0(6) . 1_655 ?
C82 C77 C78 119.1(8) . . ?
C82 C77 C76 120.4(8) . . ?
C78 C77 C76 120.5(8) . . ?
C79 C78 C77 120.2(9) . . ?
C79 C78 H78A 119.9 . . ?
C77 C78 H78A 119.9 . . ?
C78 C79 C80 121.5(9) . . ?
C78 C79 H79A 119.2 . . ?
C80 C79 H79A 119.2 . . ?
C79 C80 C81 117.3(8) . . ?
C79 C80 C87 122.0(8) . . ?
C81 C80 C87 120.6(8) . . ?
C82 C81 C80 121.2(8) . . ?
C82 C81 H81A 119.4 . . ?
C80 C81 H81A 119.4 . . ?
C81 C82 C77 120.6(9) . . ?
C81 C82 H82A 119.7 . . ?
C77 C82 H82A 119.7 . . ?
C88 C83 C84 119.0(7) . . ?
C88 C83 C66 120.4(7) . . ?
C84 C83 C66 120.6(7) . . ?
C85 C84 C83 120.1(7) . . ?
C85 C84 H84A 119.9 . . ?
C83 C84 H84A 119.9 . . ?
C84 C85 C86 120.1(8) . . ?
C84 C85 C73 120.2(7) . . ?
C86 C85 C73 119.7(7) . . ?
C85 C86 C87 121.6(7) . . ?
C85 C86 H86A 119.2 . . ?
C87 C86 H86A 119.2 . . ?
C86 C87 C88 117.6(7) . . ?
C86 C87 C80 120.9(7) . . ?
C88 C87 C80 121.5(7) . . ?
C83 C88 C87 121.5(7) . . ?
C83 C88 H88A 119.3 . . ?
C87 C88 H88A 119.3 . . ?
Cl2 C89 Cl1 109.8(8) . . ?
Cl2 C89 Cl3 111.7(8) . . ?
Cl1 C89 Cl3 109.8(6) . . ?
Cl2 C89 H89A 108.5 . . ?
Cl1 C89 H89A 108.5 . . ?
Cl3 C89 H89A 108.5 . . ?
loop_
_geom_bond_atom_site_label_1
_geom_bond_atom_site_label_2
_geom_bond_distance
_geom_bond_site_symmetry_2
_geom_bond_publ_flag
Cd1 O2 2.235(6) . ?
Cd1 O6 2.268(7) 1_665 ?
Cd1 N1 2.335(8) . ?
Cd1 O5 2.362(6) 1_655 ?
Cd1 O1 2.417(7) . ?
Cd1 O4 2.495(7) 1_655 ?
Cd1 C25 2.728(9) 1_655 ?
Cd2 O3 2.214(6) . ?
Cd2 O9 2.217(6) . ?
Cd2 O8 2.229(9) . ?
Cd2 N4 2.330(8) . ?
Cd2 O5 2.351(6) 1_655 ?
Cd2 O14 2.404(6) 1_455 ?
Cd3 O10 2.201(7) . ?
Cd3 N2 2.295(8) 1_656 ?
Cd3 O12 2.316(7) 1_445 ?
Cd3 O13 2.347(7) 1_455 ?
Cd3 O11 2.350(6) 1_445 ?
Cd3 O14 2.373(6) 1_455 ?
Cd3 C69 2.669(9) 1_445 ?
Cd3 C76 2.685(8) 1_455 ?
O2 C18 1.270(10) . ?
O3 C18 1.260(10) . ?
O4 C25 1.208(11) . ?
O5 C25 1.288(11) . ?
O6 C32 1.245(13) . ?
O7 C32 1.240(13) . ?
O9 C62 1.253(11) . ?
O10 C62 1.197(11) . ?
O11 C69 1.258(11) . ?
O12 C69 1.229(11) . ?
O13 C76 1.255(11) . ?
O14 C76 1.255(10) . ?
N1 C1 1.312(13) . ?
N1 C5 1.337(12) . ?
N2 C11 1.319(13) . ?
N2 C10 1.322(12) . ?
N4 C45 1.328(12) . ?
N4 C49 1.356(13) . ?
N5 C54 1.312(16) . ?
N5 C55 1.325(17) . ?
C1 C2 1.360(14) . ?
C1 H1A 0.9400 . ?
C2 C3 1.334(15) . ?
C2 H2A 0.9400 . ?
C3 C4 1.406(16) . ?
C3 C6 1.497(15) . ?
C4 C5 1.406(15) . ?
C4 H4A 0.9400 . ?
C5 H5A 0.9400 . ?
C6 C7 1.291(15) . ?
C6 H6A 0.9400 . ?
C7 C8 1.470(14) . ?
C7 H7A 0.9400 . ?
C8 C12 1.354(15) . ?
C8 C9 1.363(15) . ?
C9 C10 1.381(14) . ?
C9 H9A 0.9400 . ?
C10 H10A 0.9400 . ?
C11 C12 1.365(14) . ?
C11 H11A 0.9400 . ?
C12 H12A 0.9400 . ?
C18 C19 1.486(11) . ?
C19 C20 1.386(13) . ?
C19 C24 1.395(12) . ?
C20 C21 1.354(13) . ?
C20 H20A 0.9400 . ?
C21 C22 1.410(12) . ?
C21 H21A 0.9400 . ?
C22 C23 1.371(13) . ?
C22 C39 1.479(12) . ?
C23 C24 1.375(13) . ?
C23 H23A 0.9400 . ?
C24 H24A 0.9400 . ?
C25 C26 1.508(12) . ?
C26 C31 1.381(13) . ?
C26 C27 1.389(13) . ?
C27 C28 1.399(12) . ?
C27 H27A 0.9400 . ?
C28 C29 1.348(14) . ?
C28 H28A 0.9400 . ?
C29 C30 1.391(13) . ?
C29 C41 1.525(12) . ?
C30 C31 1.398(12) . ?
C30 H30A 0.9400 . ?
C31 H31A 0.9400 . ?
C32 C33 1.514(12) . ?
C33 C38 1.381(13) . ?
C33 C34 1.403(12) . ?
C34 C35 1.363(13) . ?
C34 H34A 0.9400 . ?
C35 C36 1.414(13) . ?
C35 H35A 0.9400 . ?
C36 C37 1.408(13) . ?
C36 C43 1.476(12) . ?
C37 C38 1.379(13) . ?
C37 H37A 0.9400 . ?
C38 H38A 0.9400 . ?
C39 C44 1.374(13) . ?
C39 C40 1.399(12) . ?
C40 C41 1.372(13) . ?
C40 H40A 0.9400 . ?
C41 C42 1.360(13) . ?
C42 C43 1.401(12) . ?
C42 H42A 0.9400 . ?
C43 C44 1.396(13) . ?
C44 H44A 0.9400 . ?
C45 C46 1.411(13) . ?
C45 H45A 0.9400 . ?
C46 C47 1.376(14) . ?
C46 H46A 0.9400 . ?
C47 C48 1.372(15) . ?
C47 C50 1.469(14) . ?
C48 C49 1.403(14) . ?
C48 H48A 0.9400 . ?
C49 H49A 0.9400 . ?
C50 C51 1.345(15) . ?
C50 H50A 0.9400 . ?
C51 C52 1.472(15) . ?
C51 H51A 0.9400 . ?
C52 C53 1.333(16) . ?
C52 C56 1.390(16) . ?
C53 C54 1.426(15) . ?
C53 H53A 0.9400 . ?
C54 H54A 0.9400 . ?
C55 C56 1.428(17) . ?
C55 H55A 0.9400 . ?
C56 H56A 0.9400 . ?
O1 C13 1.236(14) . ?
C13 N3 1.322(15) . ?
C13 N3A 1.33(2) . ?
C13 H13A 0.9400 . ?
C13 H13B 0.9400 . ?
N3 C15 1.41(2) . ?
N3 C17 1.51(2) . ?
C14 C15 1.46(3) . ?
C14 H14A 0.9700 . ?
C14 H14B 0.9700 . ?
C14 H14C 0.9700 . ?
C15 H15A 0.9800 . ?
C15 H15B 0.9800 . ?
C16 C17 1.44(3) . ?
C16 H16A 0.9700 . ?
C16 H16B 0.9700 . ?
C16 H16C 0.9700 . ?
C17 H17A 0.9800 . ?
C17 H17B 0.9800 . ?
N3A C15A 1.41(3) . ?
N3A C17A 1.51(3) . ?
C14A C15A 1.46(3) . ?
C14A H14D 0.9700 . ?
C14A H14E 0.9700 . ?
C14A H14F 0.9700 . ?
C15A H15C 0.9800 . ?
C15A H15D 0.9800 . ?
C16A C17A 1.44(4) . ?
C16A H16D 0.9700 . ?
C16A H16E 0.9700 . ?
C16A H16F 0.9700 . ?
C17A H17C 0.9800 . ?
C17A H17D 0.9800 . ?
O8 C57A 1.02(5) . ?
O8 C57 1.12(2) . ?
C57 N6 1.39(2) . ?
C57 H57B 0.9400 . ?
N6 C59 1.45(3) . ?
N6 C61 1.53(3) . ?
C58 C59 1.36(3) . ?
C58 H58A 0.9700 . ?
C58 H58B 0.9700 . ?
C58 H58C 0.9700 . ?
C59 H59A 0.9800 . ?
C59 H59D 0.9800 . ?
C60 C61 1.61(3) . ?
C60 H60A 0.9700 . ?
C60 H60B 0.9700 . ?
C60 H60C 0.9700 . ?
C61 H61A 0.9800 . ?
C61 H61B 0.9800 . ?
C57A N6A 1.39(3) . ?
C57A H57A 0.9400 . ?
N6A C59A 1.45(3) . ?
N6A C61A 1.53(4) . ?
C58A C59A 1.36(4) . ?
C58A H58D 0.9700 . ?
C58A H58E 0.9700 . ?
C58A H58F 0.9700 . ?
C59A H59B 0.9800 . ?
C59A H59C 0.9800 . ?
C60A C61A 1.62(4) . ?
C60A H60D 0.9700 . ?
C60A H60E 0.9700 . ?
C60A H60F 0.9700 . ?
C61A H61C 0.9800 . ?
C61A H61D 0.9800 . ?
C62 C63 1.522(11) . ?
C63 C68 1.372(13) . ?
C63 C64 1.388(12) . ?
C64 C65 1.372(12) . ?
C64 H64A 0.9400 . ?
C65 C66 1.390(12) . ?
C65 H65A 0.9400 . ?
C66 C67 1.391(12) . ?
C66 C83 1.493(11) . ?
C67 C68 1.401(11) . ?
C67 H67A 0.9400 . ?
C68 H68A 0.9400 . ?
C69 C70 1.496(12) . ?
C70 C75 1.375(13) . ?
C70 C71 1.393(12) . ?
C71 C72 1.374(12) . ?
C71 H71A 0.9400 . ?
C72 C73 1.368(12) . ?
C72 H72A 0.9400 . ?
C73 C74 1.379(12) . ?
C73 C85 1.504(11) . ?
C74 C75 1.386(12) . ?
C74 H74A 0.9400 . ?
C75 H75A 0.9400 . ?
C76 C77 1.490(11) . ?
C77 C82 1.386(12) . ?
C77 C78 1.393(13) . ?
C78 C79 1.379(12) . ?
C78 H78A 0.9400 . ?
C79 C80 1.390(12) . ?
C79 H79A 0.9400 . ?
C80 C81 1.411(12) . ?
C80 C87 1.456(11) . ?
C81 C82 1.370(12) . ?
C81 H81A 0.9400 . ?
C82 H82A 0.9400 . ?
C83 C88 1.392(11) . ?
C83 C84 1.408(11) . ?
C84 C85 1.380(11) . ?
C84 H84A 0.9400 . ?
C85 C86 1.384(11) . ?
C86 C87 1.401(11) . ?
C86 H86A 0.9400 . ?
C87 C88 1.404(11) . ?
C88 H88A 0.9400 . ?
C89 Cl2 1.723(13) . ?
C89 Cl1 1.760(13) . ?
C89 Cl3 1.767(14) . ?
C89 H89A 0.9900 . ?
loop_
_publcif_info_exptl_table_extra_item
sin_theta_over_lambda_max
loop_
_publcif_info_exptl_table_header_item
?
