#------------------------------------------------------------------------------
#$Date: 2020-09-06 11:13:00 +0300 (Sun, 06 Sep 2020) $
#$Revision: 255954 $
#$URL: file:///home/coder/svn-repositories/cod/cif/7/12/67/7126797.cif $
#------------------------------------------------------------------------------
#
# This file is available in the Crystallography Open Database (COD),
# http://www.crystallography.net/
#
# All data on this site have been placed in the public domain by the
# contributors.
#
data_7126797
loop_
_publ_author_name
'Tang, Haitong'
'Yang, Keke'
'Wang, Kun-Yu'
'Meng, Qi'
'Wu, Fan'
'Fang, Yu'
'Wu, Xiang'
'Li, Yougui'
'Zhang, WenCheng'
'Luo, Yunfei'
'Zhu, Chengfeng'
'Zhou, Hong-Cai'
_publ_section_title
;
 Engineering a homochiral metal-organic framework based on an amino acid
 for enantioselective separation.
;
_journal_issue                   63
_journal_name_full
'Chemical communications (Cambridge, England)'
_journal_page_first              9016
_journal_page_last               9019
_journal_paper_doi               10.1039/d0cc00897d
_journal_volume                  56
_journal_year                    2020
_chemical_absolute_configuration rm
_chemical_formula_moiety         '0.5(C186 H156 N18 O38 Zn8)'
_chemical_formula_sum            'C93 H78 N9 O19 Zn4'
_chemical_formula_weight         1887.12
_space_group_crystal_system      trigonal
_space_group_IT_number           150
_space_group_name_Hall           'P 3 2"'
_space_group_name_H-M_alt        'P 3 2 1'
_atom_sites_solution_hydrogens   geom
_audit_creation_date             2019-11-25
_audit_creation_method
;
Olex2 1.2
(compiled 2018.05.29 svn.r3508 for OlexSys, GUI svn.r5506)
;
_audit_update_record
;
2019-11-26 deposited with the CCDC.	2020-06-26 downloaded from the CCDC.
;
_cell_angle_alpha                90
_cell_angle_beta                 90
_cell_angle_gamma                120
_cell_formula_units_Z            2
_cell_length_a                   25.6587(8)
_cell_length_b                   25.6587(8)
_cell_length_c                   10.1334(5)
_cell_measurement_reflns_used    9678
_cell_measurement_temperature    100(2)
_cell_measurement_theta_max      27.750
_cell_measurement_theta_min      2.224
_cell_volume                     5777.7(4)
_computing_cell_refinement       'SAINT V8.38A (?, 2016)'
_computing_data_reduction        'SAINT V8.38A (?, 2016)'
_computing_molecular_graphics    'Olex2 (Dolomanov et al., 2009)'
_computing_publication_material  'Olex2 (Dolomanov et al., 2009)'
_computing_structure_refinement  'ShelXL (Sheldrick, 2015)'
_diffrn_ambient_temperature      100.0
_diffrn_measured_fraction_theta_full 0.987
_diffrn_measured_fraction_theta_max 0.983
_diffrn_measurement_device_type  Synchrotron
_diffrn_measurement_method       '\f and \w scans'
_diffrn_radiation_type           Synchrotron
_diffrn_radiation_wavelength     0.65247
_diffrn_reflns_av_R_equivalents  0.0872
_diffrn_reflns_av_unetI/netI     0.0429
_diffrn_reflns_Laue_measured_fraction_full 0.987
_diffrn_reflns_Laue_measured_fraction_max 0.983
_diffrn_reflns_limit_h_max       36
_diffrn_reflns_limit_h_min       -36
_diffrn_reflns_limit_k_max       36
_diffrn_reflns_limit_k_min       -36
_diffrn_reflns_limit_l_max       14
_diffrn_reflns_limit_l_min       -14
_diffrn_reflns_number            103649
_diffrn_reflns_point_group_measured_fraction_full 0.988
_diffrn_reflns_point_group_measured_fraction_max 0.982
_diffrn_reflns_theta_full        23.047
_diffrn_reflns_theta_max         27.869
_diffrn_reflns_theta_min         2.497
_diffrn_standards_number         0
_exptl_absorpt_coefficient_mu    0.697
_exptl_absorpt_correction_T_max  0.7456
_exptl_absorpt_correction_T_min  0.4433
_exptl_absorpt_correction_type   multi-scan
_exptl_absorpt_process_details
'SADABS-2016/2 (Bruker,2016/2) was used for absorption correction. wR2(int) was 0.1372 before and 0.1069 after correction. The Ratio of minimum to maximum transmission is 0.5946. The \l/2 correction factor is Not present.'
_exptl_crystal_colour            'clear whiteish colourless'
_exptl_crystal_colour_lustre     clear
_exptl_crystal_colour_modifier   whiteish
_exptl_crystal_colour_primary    colourless
_exptl_crystal_density_diffrn    1.085
_exptl_crystal_description       block
_exptl_crystal_F_000             1942
_exptl_crystal_size_max          0.04
_exptl_crystal_size_mid          0.03
_exptl_crystal_size_min          0.02
_refine_diff_density_max         1.891
_refine_diff_density_min         -1.325
_refine_diff_density_rms         0.089
_refine_ls_abs_structure_details
;
 Flack x determined using 4257 quotients [(I+)-(I-)]/[(I+)+(I-)]
 (Parsons, Flack and Wagner, Acta Cryst. B69 (2013) 249-259).
;
_refine_ls_abs_structure_Flack   0.079(7)
_refine_ls_extinction_method     none
_refine_ls_goodness_of_fit_ref   1.066
_refine_ls_hydrogen_treatment    constr
_refine_ls_matrix_type           full
_refine_ls_number_parameters     412
_refine_ls_number_reflns         11693
_refine_ls_number_restraints     58
_refine_ls_restrained_S_all      1.109
_refine_ls_R_factor_all          0.0739
_refine_ls_R_factor_gt           0.0663
_refine_ls_shift/su_max          0.001
_refine_ls_shift/su_mean         0.000
_refine_ls_structure_factor_coef Fsqd
_refine_ls_weighting_details
'w=1/[\s^2^(Fo^2^)+(0.1289P)^2^+1.9347P] where P=(Fo^2^+2Fc^2^)/3'
_refine_ls_weighting_scheme      calc
_refine_ls_wR_factor_gt          0.1837
_refine_ls_wR_factor_ref         0.1905
_reflns_Friedel_coverage         0.882
_reflns_Friedel_fraction_full    0.988
_reflns_Friedel_fraction_max     0.980
_reflns_number_gt                10197
_reflns_number_total             11693
_reflns_threshold_expression     'I > 2\s(I)'
_cod_data_source_file            d0cc00897d2.cif
_cod_data_source_block           ld3056c115mm_0m
_cod_depositor_comments          'Adding full bibliography for 7126797.cif.'
_cod_original_cell_volume        5777.7(5)
_cod_database_code               7126797
_shelx_shelxl_version_number     2016/6
_shelx_space_group_comment
;
The symmetry employed for this shelxl refinement is uniquely defined
by the following loop, which should always be used as a source of
symmetry information in preference to the above space-group names.
They are only intended as comments.
;
_shelx_estimated_absorpt_t_max   0.986
_shelx_estimated_absorpt_t_min   0.973
_olex2_refinement_description
;
1. Fixed Uiso
 At 1.2 times of:
  All C(H) groups, All C(H,H) groups, All N(H) groups
2. Restrained distances
 C22-C21 = C21-C26 = C25-C26 = C24-C25 = C24-C23 = C23-C22
 1.395 with sigma of 0.002
 C21-C23 = C23-C25
 2.45 with sigma of 0.002
 C24-C22 = C22-C26
 2.45 with sigma of 0.002
 C20-C21 = C20-C19 = C19-C18
 1.52 with sigma of 0.02
 C16A-C11 = C16A-C15A = C15A-C14 = C14B-C14 = C14B-C15B = C15B-C11 = C12B-C11 =
  C12A-C11 = C12A-C13A = C13B-C12B = C13B-C14 = C13A-C14
 1.395 with sigma of 0.002
 C5-C4 = C9-C4 = C8-C9 = C8-C7 = C6-C7 = C6-C5
 1.395 with sigma of 0.002
 C4-C6 = C6-C8
 2.45 with sigma of 0.002
 C7-C5 = C5-C9
 2.45 with sigma of 0.002
 C5-C4 = C9-C4 = C9-C8 = C8-C7 = C7-C6 = C6-C5
 1.395 with sigma of 0.002
3. Restrained planarity
 C21, C26, C25, C24, C23, C22
 with sigma of 0.002
 C4, C5, C9, C7, C6, C8
 with sigma of 0.002
 C13A, C12A, C14, C15A, C16A, C11
 with sigma of 0.02
 C4, C5, H5, C9, H9, C7, H7, C6, H6, C8, H8
 with sigma of 0.02
4. Others
 Fixed Sof: C15B(0.5) H15B(0.5) C12B(0.5) H12B(0.5) C14B(0.5) H14B(0.5)
 C13B(0.5) H13B(0.5) C13A(0.5) H13A(0.5) C12A(0.5) H12A(0.5) C15A(0.5)
 H15A(0.5) C16A(0.5) H16A(0.5)
5.a Ternary CH refined with riding coordinates:
 C2(H2A), C19(H19)
5.b Secondary CH2 refined with riding coordinates:
 C3(H3A,H3B), C20(H20A,H20B)
5.c Aromatic/amide H refined with riding coordinates:
 N2(H2), N1(H1), C31(H31), C27(H27), C30(H30), C28(H28), C26(H26), C22(H22),
 C23(H23), C15B(H15B), C25(H25), C24(H24), C5(H5), C12B(H12B), C9(H9),
 C14B(H14B), C7(H7), C13B(H13B), C13A(H13A), C12A(H12A), C15A(H15A), C16A(H16A),
  C6(H6), C8(H8)
;
_shelx_res_file
;
TITL LD3056C115MM_0m in P-3
    ld3056c115mm_0m.res
    created by SHELXL-2016/6 at 09:15:13 on 25-Nov-2019
CELL 0.65247 25.65875 25.65875 10.1334 90 90 120
ZERR 2 0.00078 0.00078 0.0005 0 0 0
LATT -1
SYMM -Y,+X-Y,+Z
SYMM +Y-X,-X,+Z
SYMM +Y,+X,-Z
SYMM -Y+X,-Y,-Z
SYMM -X,-X+Y,-Z
SFAC C H N O Zn
DISP C 0.0027 0.0013 9.6948
DISP H -0 0 0.6206
DISP N 0.0052 0.0027 16.0906
DISP O 0.0094 0.005 26.0978
DISP Zn 0.3425 1.2594 4635.836
UNIT 186 156 18 38 8
DFIX 1.395 0.002 C22 C21 C21 C26 C25 C26 C24 C25 C24 C23 C23 C22
DFIX 2.45 0.002 C21 C23 C23 C25
DFIX 2.45 0.002 C24 C22 C22 C26
DFIX 1.52 C20 C21 C20 C19 C19 C18
DFIX 1.395 0.002 C16A C11 C16A C15A C15A C14 C14B C14 C14B C15B C15B C11 =
 C12B C11 C12A C11 C12A C13A C13B C12B C13B C14 C13A C14
DFIX 1.395 0.002 C5 C4 C9 C4 C8 C9 C8 C7 C6 C7 C6 C5
DFIX 2.45 0.002 C4 C6 C6 C8
DFIX 2.45 0.002 C7 C5 C5 C9
DFIX 1.395 0.002 C5 C4 C9 C4 C9 C8 C8 C7 C7 C6 C6 C5
FLAT 0.002 C21 C26 C25 C24 C23 C22
FLAT 0.002 C4 C5 C9 C7 C6 C8
FLAT 0.02 C13A C12A C14 C15A C16A C11
FLAT 0.02 C4 C5 H5 C9 H9 C7 H7 C6 H6 C8 H8

L.S. 99
PLAN  60
SIZE 0.02 0.03 0.04
TEMP -173.15
BOND $H
LIST 6
ABIN
fmap 2
acta
OMIT 3 3 2
OMIT 0 4 1
OMIT 4 4 1
OMIT -6 6 8
OMIT -4 8 1
OMIT 0 5 1
OMIT 0 0 2
OMIT -2 4 0
OMIT -4 4 1
OMIT -1 3 0
OMIT 1 2 0
OMIT -5 6 4
OMIT -6 5 4
OMIT 1 5 0
REM <olex2.extras>
REM <HklSrc "%.\\LD3056C115MM_0m.hkl">
REM </olex2.extras>

WGHT    0.128900    1.934700
FVAR       0.45324
ZN2   5    0.375689    0.624717    0.433414    11.00000    0.03909    0.04240 =
         0.02546   -0.00464   -0.00391    0.02307
ZN1   5    0.333333    0.666667    0.679503    10.33333    0.04319    0.04319 =
         0.01917    0.00000    0.00000    0.02160
O7    4    0.333333    0.666667    0.486139    10.33333    0.03607    0.03607 =
         0.02220    0.00000    0.00000    0.01803
O6    4   -0.233626    0.332796    0.711256    11.00000    0.04121    0.04187 =
         0.02891   -0.00030   -0.00836    0.00968
O2    4    0.231342    0.557049    0.588827    11.00000    0.04421    0.04396 =
         0.04450    0.01440   -0.00779    0.01253
O5    4   -0.308866    0.241662    0.661535    11.00000    0.04028    0.04409 =
         0.04947    0.00391   -0.01968    0.01280
O1    4    0.303385    0.582792    0.736086    11.00000    0.05187    0.04373 =
         0.03161    0.00308   -0.00753    0.01756
N3    3    0.408819    0.567289    0.473852    11.00000    0.03889    0.03700 =
         0.02669   -0.00349   -0.00822    0.02048
O4    4   -0.148127    0.273551    0.585789    11.00000    0.04394    0.11388 =
         0.02832    0.01500   -0.01198    0.01345
N2    3   -0.165581    0.283680    0.799131    11.00000    0.03791    0.07377 =
         0.03107    0.01345   -0.01227    0.01596
AFIX  43
H2    2   -0.150214    0.299407    0.876534    11.00000   -1.20000
AFIX   0
O3    4    0.142816    0.452031    0.907526    11.00000    0.04001    0.10957 =
         0.04225   -0.03748   -0.00684    0.02008
C10   1    0.126395    0.434350    0.794316    11.00000    0.04158    0.04419 =
         0.03462   -0.00988   -0.00525    0.02138
C1    1    0.256934    0.544802    0.677206    11.00000    0.03819    0.04413 =
         0.02241    0.00412   -0.00116    0.01524
N1    3    0.164905    0.445366    0.697361    11.00000    0.03455    0.05020 =
         0.02454    0.00089   -0.00445    0.01371
AFIX  43
H1    2    0.150647    0.431935    0.617929    11.00000   -1.20000
AFIX   0
C11   1    0.060559    0.398731    0.765608    11.00000    0.03852    0.03959 =
         0.03223   -0.00162   -0.00627    0.01893
C31   1    0.423253    0.555343    0.590738    11.00000    0.04381    0.05251 =
         0.02890    0.00233    0.00037    0.02961
AFIX  43
H31   2    0.413369    0.569929    0.667379    11.00000   -1.20000
AFIX   0
C27   1    0.421085    0.545032    0.367268    11.00000    0.06538    0.05666 =
         0.03331   -0.00686   -0.01447    0.04269
AFIX  43
H27   2    0.408871    0.551592    0.283346    11.00000   -1.20000
AFIX   0
C18   1   -0.259094    0.277227    0.712220    11.00000    0.04364    0.04897 =
         0.02495    0.00341   -0.01042    0.01781
C3    1    0.259228    0.449519    0.639100    11.00000    0.05418    0.06402 =
         0.04957   -0.00749   -0.00834    0.03606
AFIX  23
H3A   2    0.246650    0.445230    0.545514    11.00000   -1.20000
H3B   2    0.303464    0.476030    0.642458    11.00000   -1.20000
AFIX   0
C2    1    0.229594    0.478563    0.715667    11.00000    0.03738    0.04340 =
         0.02952    0.00082   -0.00712    0.01677
AFIX  13
H2A   2    0.237924    0.476908    0.811519    11.00000   -1.20000
AFIX   0
C30   1    0.452249    0.522366    0.605911    11.00000    0.04590    0.05651 =
         0.03541    0.00511   -0.00228    0.03313
AFIX  43
H30   2    0.461602    0.514495    0.691694    11.00000   -1.20000
AFIX   0
C29   1    0.467700    0.500714    0.494710    11.00000    0.03969    0.03863 =
         0.03206    0.00225   -0.00466    0.01917
C19   1   -0.230562    0.246111    0.787324    11.00000    0.03652    0.05542 =
         0.03723    0.01279   -0.01165    0.01373
AFIX  13
H19   2   -0.239656    0.208546    0.738834    11.00000   -1.20000
AFIX   0
C28   1    0.451009    0.512632    0.373985    11.00000    0.07683    0.05666 =
         0.03338   -0.00660   -0.00854    0.04627
AFIX  43
H28   2    0.460039    0.498609    0.295285    11.00000   -1.20000
AFIX   0
C26   1   -0.364243    0.190900    0.987583    11.00000    0.04950    0.08976 =
         0.02924    0.00019   -0.00297    0.00593
AFIX  43
H26   2   -0.354257    0.230997    1.007802    11.00000   -1.20000
AFIX   0
C17   1   -0.128817    0.295119    0.698765    11.00000    0.04417    0.07689 =
         0.03254    0.01692   -0.01223    0.01519
C14   1   -0.062781    0.330688    0.721608    11.00000    0.03950    0.06232 =
         0.03476    0.01534   -0.00892    0.01782
C21   1   -0.320189    0.179387    0.936490    11.00000    0.04588    0.06596 =
         0.03228    0.02088   -0.01181    0.00302
C22   1   -0.334356    0.120101    0.905978    11.00000    0.07308    0.07319 =
         0.07517    0.02979   -0.01783    0.01808
AFIX  43
H22   2   -0.304426    0.112438    0.871361    11.00000   -1.20000
AFIX   0
C23   1   -0.393503    0.072235    0.927420    11.00000    0.08235    0.07251 =
         0.08055    0.03905   -0.01977    0.00519
AFIX  43
H23   2   -0.403715    0.032067    0.907281    11.00000   -1.20000
AFIX   0
PART 1
C15B  1    0.020818    0.415667    0.815610    10.50000    0.04558    0.03894 =
         0.02854   -0.00920   -0.00839    0.02201
AFIX  43
H15B  2    0.036768    0.451458    0.866647    10.50000   -1.20000
AFIX   0
PART 0
C25   1   -0.422847    0.143529    1.008871    11.00000    0.05284    0.15049 =
         0.03414    0.02279    0.00490    0.00635
AFIX  43
H25   2   -0.452693    0.151331    1.043431    11.00000   -1.20000
AFIX   0
C24   1   -0.437228    0.084522    0.978894    11.00000    0.07352    0.10740 =
         0.05883    0.04652   -0.02275   -0.02939
AFIX  43
H24   2   -0.477010    0.052356    0.993479    11.00000   -1.20000
AFIX   0
C20   1   -0.256917    0.228771    0.926951    11.00000    0.04019    0.06823 =
         0.03085    0.01560   -0.00621    0.01154
AFIX  23
H20A  2   -0.231540    0.217126    0.978444    11.00000   -1.20000
H20B  2   -0.253881    0.264933    0.969439    11.00000   -1.20000
AFIX   0
C4    1    0.243097    0.389287    0.692817    11.00000    0.10682    0.06469 =
         0.08797   -0.01562   -0.01585    0.05338
C5    1    0.281378    0.386423    0.788258    11.00000    0.17056    0.09184 =
         0.11748   -0.01119   -0.03978    0.09862
AFIX  43
H5    2    0.317235    0.421828    0.813712    11.00000   -1.20000
AFIX   0
PART 1
C12B  1    0.036943    0.349270    0.680108    10.50000    0.03438    0.04569 =
         0.03103   -0.01354   -0.01423    0.01606
AFIX  43
H12B  2    0.063639    0.340060    0.634290    10.50000   -1.20000
AFIX   0
PART 0
C9    1    0.190133    0.337234    0.654815    11.00000    0.08112    0.06761 =
         0.21627   -0.02918   -0.01939    0.02960
AFIX  43
H9    2    0.164568    0.339638    0.590259    11.00000   -1.20000
AFIX   0
PART 1
C14B  1   -0.041103    0.383099    0.795088    10.50000    0.04639    0.04794 =
         0.03004   -0.00378   -0.00728    0.01999
AFIX  43
H14B  2   -0.067145    0.396088    0.829595    10.50000   -1.20000
AFIX   0
PART 0
C7    1    0.212824    0.278669    0.806875    11.00000    0.33802    0.09545 =
         0.27618    0.01796   -0.02769    0.14031
AFIX  43
H7    2    0.202452    0.240985    0.845610    11.00000   -1.20000
AFIX   0
PART 1
C13B  1   -0.024992    0.313163    0.660667    10.50000    0.04093    0.03426 =
         0.03627   -0.00569   -0.01430    0.00859
AFIX  43
H13B  2   -0.040944    0.277893    0.607858    10.50000   -1.20000
AFIX   0
PART 0
PART 2
C13A  1   -0.022695    0.365999    0.623510    10.50000    0.04248    0.06403 =
         0.03561    0.01862   -0.00630    0.01099
AFIX  43
H13A  2   -0.038412    0.364929    0.538036    10.50000   -1.20000
AFIX   0
C12A  1    0.039012    0.402831    0.642525    10.50000    0.04926    0.04999 =
         0.02931   -0.01012   -0.00864    0.01641
AFIX  43
H12A  2    0.064693    0.429050    0.575668    10.50000   -1.20000
AFIX   0
C15A  1   -0.038094    0.335878    0.847302    10.50000    0.04157    0.10386 =
         0.05326    0.03102   -0.00512    0.02214
AFIX  43
H15A  2   -0.064422    0.313891    0.917707    10.50000   -1.20000
AFIX   0
C16A  1    0.023225    0.371683    0.874768    10.50000    0.06088    0.09844 =
         0.02070   -0.00757   -0.00788    0.04947
AFIX  43
H16A  2    0.038613    0.377316    0.962078    10.50000   -1.20000
AFIX   0
PART 0
C6    1    0.266069    0.330572    0.845778    11.00000    0.28875    0.12831 =
         0.16120    0.00791   -0.03415    0.16453
AFIX  43
H6    2    0.291533    0.328008    0.910359    11.00000   -1.20000
AFIX   0
C8    1    0.174872    0.281776    0.711785    11.00000    0.32457    0.08658 =
         0.20072    0.01808    0.04572    0.08709
AFIX  43
H8    2    0.138993    0.246433    0.686159    11.00000   -1.20000
AFIX   0
HKLF 4




REM  LD3056C115MM_0m in P-3
REM R1 =  0.0663 for   10197 Fo > 4sig(Fo)  and  0.0739 for all   11693 data
REM    412 parameters refined using     58 restraints

END

WGHT      0.1289      1.9345

REM Highest difference peak  1.891,  deepest hole -1.325,  1-sigma level  0.089
Q1    1   0.3719  0.6231  0.5075  11.00000  0.05    1.89
Q2    1   0.3787  0.6278  0.3588  11.00000  0.05    1.50
Q3    1   0.3333  0.6667  0.7597  10.33333  0.05    0.74
Q4    1   0.3333  0.6667  0.5818  10.33333  0.05    0.66
Q5    1  -0.2484  0.2507  0.5737  11.00000  0.05    0.43
Q6    1   0.3333  0.6667  0.8380  10.33333  0.05    0.39
Q7    1   0.2528  0.5014  0.5004  11.00000  0.05    0.36
Q8    1   0.3599  0.6807  0.3125  11.00000  0.05    0.34
Q9    1  -0.3459  0.2579  0.7152  11.00000  0.05    0.32
Q10   1  -0.1355  0.2877  0.6465  11.00000  0.05    0.32
Q11   1  -0.2356  0.2331  0.8419  11.00000  0.05    0.31
Q12   1  -0.4943  0.0773  0.9752  11.00000  0.05    0.31
Q13   1   0.2873  0.5780  0.8027  11.00000  0.05    0.30
Q14   1   0.4486  0.4973  0.4378  11.00000  0.05    0.30
Q15   1  -0.1204  0.2246  0.9333  11.00000  0.05    0.29
Q16   1   0.3660  0.5159  0.5141  11.00000  0.05    0.29
Q17   1  -0.3149  0.2379  0.7371  11.00000  0.05    0.28
Q18   1   0.2451  0.5743  0.6790  11.00000  0.05    0.28
Q19   1   0.2372  0.4762  0.6600  11.00000  0.05    0.28
Q20   1  -0.3209  0.2561  0.5782  11.00000  0.05    0.28
Q21   1  -0.2483  0.3735  0.7400  11.00000  0.05    0.27
Q22   1  -0.2355  0.3315  0.6338  11.00000  0.05    0.27
Q23   1   0.3655  0.3990  0.6780  11.00000  0.05    0.27
Q24   1   0.0069  0.2301  0.6730  11.00000  0.05    0.27
Q25   1  -0.1922  0.3380  0.6395  11.00000  0.05    0.27
Q26   1  -0.3594  0.1185  0.9566  11.00000  0.05    0.27
Q27   1  -0.1361  0.2698  0.5155  11.00000  0.05    0.27
Q28   1   0.3392  0.7153  0.6759  11.00000  0.05    0.27
Q29   1  -0.0567  0.2062  0.6473  11.00000  0.05    0.27
Q30   1  -0.0704  0.3414  0.9399  11.00000  0.05    0.26
Q31   1   0.3097  0.6621  0.3970  11.00000  0.05    0.26
Q32   1  -0.3862  0.2335  0.9839  11.00000  0.05    0.26
Q33   1   0.1027  0.2824  0.8961  11.00000  0.05    0.26
Q34   1   0.3524  0.6025  0.5900  11.00000  0.05    0.25
Q35   1   0.1321  0.2213  0.5451  11.00000  0.05    0.25
Q36   1   0.1358  0.3890  0.6197  11.00000  0.05    0.25
Q37   1   0.1045  0.2381  0.5625  11.00000  0.05    0.25
Q38   1   0.1445  0.2849  0.5316  11.00000  0.05    0.25
Q39   1  -0.3491  0.0580  0.7280  11.00000  0.05    0.25
Q40   1   0.3302  0.3296  0.9233  11.00000  0.05    0.25
Q41   1  -0.2936  0.1566  0.8210  11.00000  0.05    0.25
Q42   1   0.1363  0.4964  0.6004  11.00000  0.05    0.24
Q43   1   0.2550  0.5556  0.5275  11.00000  0.05    0.24
Q44   1  -0.3484  0.0406  0.8644  11.00000  0.05    0.24
Q45   1   0.2470  0.3882  0.6149  11.00000  0.05    0.24
Q46   1   0.3616  0.4204  0.4616  11.00000  0.05    0.24
Q47   1   0.2334  0.3733  0.8041  11.00000  0.05    0.24
Q48   1   0.4273  0.4616  0.3238  11.00000  0.05    0.24
Q49   1  -0.2458  0.1966  0.8174  11.00000  0.05    0.24
Q50   1   0.1472  0.4422  0.7417  11.00000  0.05    0.24
Q51   1  -0.0658  0.1963  0.5421  11.00000  0.05    0.24
Q52   1   0.1939  0.2814  0.6364  11.00000  0.05    0.24
Q53   1   0.2304  0.2202  0.6312  11.00000  0.05    0.24
Q54   1   0.2955  0.5494  0.5382  11.00000  0.05    0.24
Q55   1   0.4991  0.5442  0.5392  11.00000  0.05    0.24
Q56   1   0.2271  0.5903  0.7324  11.00000  0.05    0.23
Q57   1   0.2589  0.4752  0.5002  11.00000  0.05    0.23
Q58   1   0.4175  0.5604  0.5255  11.00000  0.05    0.23
Q59   1   0.1769  0.3451  0.4914  11.00000  0.05    0.23
Q60   1  -0.2289  0.1201  0.9413  11.00000  0.05    0.23
;
_shelx_res_checksum              59254
_shelx_fab_file
;
-31 -1 -2 0.3741 -0.0074
-31 -1 -1 0.8708 0.5384
-31 -1 0 0.3223 0.8115
-31 -1 1 -0.4395 0.7478
-31 -1 2 -0.5977 -0.4479
-30 -3 -1 -0.1260 0.1122
-30 -3 0 -0.1453 -0.0443
-30 -3 1 -0.3635 0.4364
-30 -2 -3 -0.0499 -0.4053
-30 -2 -2 0.4677 -0.0231
-30 -2 -1 1.1328 0.4784
-30 -2 0 -0.0660 0.3582
-30 -2 1 -0.5446 0.9727
-30 -2 2 -0.9161 0.0496
-30 -2 3 0.8094 -1.2871
-30 -1 -4 -0.1744 0.1092
-30 -1 -3 -0.0868 0.1207
-30 -1 -2 0.1740 -0.2535
-30 -1 -1 1.4471 0.6710
-30 -1 0 0.7482 0.5817
-30 -1 1 -0.3624 0.0453
-30 -1 2 -1.8232 0.2817
-30 -1 3 1.3408 -1.0586
-30 -1 4 0.1107 -0.4299
-29 -5 0 -0.5421 1.0510
-29 -4 -2 0.6711 -0.5036
-29 -4 -1 -0.1231 -0.2478
-29 -4 0 -0.4110 0.3312
-29 -4 1 -0.5281 0.3842
-29 -4 2 -0.3840 0.7387
-29 -3 -3 0.1551 -0.1982
-29 -3 -2 0.3208 -0.5173
-29 -3 -1 0.7576 -0.2054
-29 -3 0 0.0794 -0.0471
-29 -3 1 -0.8637 0.8553
-29 -3 2 -1.0059 1.1309
-29 -3 3 0.8252 -1.1569
-29 -2 -4 -0.2509 0.1250
-29 -2 -3 0.0680 -0.0275
-29 -2 -2 0.0311 -0.2553
-29 -2 -1 0.8916 -0.0449
-29 -2 0 0.0312 0.2823
-29 -2 1 0.1933 0.2995
-29 -2 2 -2.1573 0.7817
-29 -2 3 0.9430 -1.2435
-29 -2 4 0.2276 -0.7019
-29 -1 -5 0.3972 0.8464
-29 -1 -4 -0.1238 0.1801
-29 -1 -3 0.3745 0.4834
-29 -1 -2 -0.4121 -0.0879
-29 -1 -1 0.6008 -0.1287
-29 -1 0 0.2678 0.2533
-29 -1 1 0.4673 -0.4524
-29 -1 2 -1.5615 0.0323
-29 -1 3 0.6043 -0.4306
-29 -1 4 0.5265 -0.8474
-29 -1 5 -0.6120 0.3979
-28 -6 -2 0.3988 0.0732
-28 -6 -1 0.1796 -0.1360
-28 -6 0 0.1605 0.7256
-28 -6 1 -0.7309 0.4786
-28 -6 2 0.0495 -0.5963
-28 -5 -3 0.1063 -0.8679
-28 -5 -2 0.6381 0.2060
-28 -5 -1 -0.0086 0.3078
-28 -5 0 0.0370 0.3286
-28 -5 1 -0.5717 0.8374
-28 -5 2 -0.7787 0.0878
-28 -5 3 0.8883 -0.0694
-28 -4 -4 -0.0249 -0.2295
-28 -4 -3 -0.1218 -0.8759
-28 -4 -2 0.6110 -0.5445
-28 -4 -1 0.0204 -0.1695
-28 -4 0 0.5380 0.2310
-28 -4 1 -0.3403 0.5139
-28 -4 2 -1.0684 1.5678
-28 -4 3 0.9968 -0.4412
-28 -4 4 -0.1977 -1.2908
-28 -3 -5 -0.0554 0.9081
-28 -3 -4 -0.4469 -0.3792
-28 -3 -3 0.2316 -0.4994
-28 -3 -2 0.0662 -0.9243
-28 -3 -1 -0.1402 -0.5815
-28 -3 0 -0.1282 0.3736
-28 -3 1 0.4352 0.3497
-28 -3 2 -1.6797 1.5833
-28 -3 3 1.0777 -0.6016
-28 -3 4 -0.6678 -0.9398
-28 -3 5 0.2713 1.0989
-28 -2 -5 0.1115 1.5463
-28 -2 -4 -0.3905 0.2724
-28 -2 -3 0.5015 0.2177
-28 -2 -2 0.0001 -0.1965
-28 -2 -1 -0.4862 -0.7701
-28 -2 0 -0.7457 0.2053
-28 -2 1 0.8343 -0.0310
-28 -2 2 -1.6430 0.0831
-28 -2 3 0.8669 -0.1110
-28 -2 4 -0.6608 -0.6576
-28 -2 5 -0.2535 0.6880
-28 -1 -6 -0.5729 -0.0386
-28 -1 -5 0.4085 1.3522
-28 -1 -4 0.2428 0.5665
-28 -1 -3 0.6847 0.7402
-28 -1 -2 0.3861 -0.3648
-28 -1 -1 0.5951 -0.1332
-28 -1 0 -0.5663 -0.3218
-28 -1 1 -0.0247 -0.8091
-28 -1 2 -0.1687 -0.1911
-28 -1 3 0.5974 -0.5348
-28 -1 4 -0.4149 -0.5410
-28 -1 5 -0.3827 0.0275
-28 -1 6 0.1091 0.0393
-27 -8 -1 0.0328 -0.2112
-27 -8 0 0.0979 -0.7762
-27 -8 1 0.5569 0.1112
-27 -7 -3 0.3394 -0.3239
-27 -7 -2 0.3364 0.2581
-27 -7 -1 0.5808 -0.0834
-27 -7 0 0.2878 -0.0541
-27 -7 1 0.0291 0.2876
-27 -7 2 0.3824 0.1209
-27 -7 3 0.4676 -0.2741
-27 -6 -4 0.1948 0.1130
-27 -6 -3 0.3490 -0.9263
-27 -6 -2 -0.0382 0.3217
-27 -6 -1 0.5993 1.1714
-27 -6 0 0.3993 0.1573
-27 -6 1 -0.2636 0.7236
-27 -6 2 -0.2191 -0.2056
-27 -6 3 0.3848 0.4598
-27 -6 4 0.3422 -0.6162
-27 -5 -5 0.0291 -0.1985
-27 -5 -4 0.1875 0.3052
-27 -5 -3 -0.3106 -1.6038
-27 -5 -2 0.0382 0.2168
-27 -5 -1 0.1470 0.4737
-27 -5 0 0.3593 0.6380
-27 -5 1 0.0920 0.3992
-27 -5 2 -0.6898 0.6112
-27 -5 3 0.2880 0.6610
-27 -5 4 0.1125 -1.5126
-27 -5 5 0.1589 -1.1059
-27 -4 -5 0.4002 0.0969
-27 -4 -4 0.3705 -0.3713
-27 -4 -3 -0.2282 -1.1566
-27 -4 -2 0.3751 -0.9991
-27 -4 -1 -0.1830 -0.6337
-27 -4 0 -0.2846 1.1202
-27 -4 1 0.8269 0.1248
-27 -4 2 -0.6407 1.6009
-27 -4 3 0.4248 0.0735
-27 -4 4 -0.7395 -1.5025
-27 -4 5 0.0460 0.3121
-27 -3 -6 -0.0061 -0.2583
-27 -3 -5 -0.0844 0.6832
-27 -3 -4 0.0358 -0.2499
-27 -3 -3 0.4908 -0.0130
-27 -3 -2 -0.3518 -0.7782
-27 -3 -1 -0.3589 -0.7535
-27 -3 0 -0.7322 0.6654
-27 -3 1 0.6292 0.8463
-27 -3 2 0.2796 0.6106
-27 -3 3 0.6055 0.3214
-27 -3 4 -1.1718 -0.3444
-27 -3 5 -0.0531 0.8013
-27 -3 6 -0.4351 -0.1039
-27 -2 -6 -0.0001 0.0726
-27 -2 -5 -0.5049 1.2185
-27 -2 -4 0.1629 0.2860
-27 -2 -3 0.4743 1.1090
-27 -2 -2 -0.5352 -0.3598
-27 -2 -1 0.0805 -0.0579
-27 -2 0 -0.2922 -0.3588
-27 -2 1 -0.5522 0.0186
-27 -2 2 0.7907 -0.1270
-27 -2 3 0.7935 -0.2893
-27 -2 4 -0.9397 0.2036
-27 -2 5 -0.1169 -0.1110
-27 -2 6 -0.4104 -0.0090
-27 -1 -7 -0.5098 -0.0700
-27 -1 -6 -0.4480 0.5560
-27 -1 -5 0.1411 0.7356
-27 -1 -4 0.4372 0.0617
-27 -1 -3 -0.2874 0.8981
-27 -1 -2 0.3814 -0.5372
-27 -1 -1 0.9493 0.7823
-27 -1 0 0.4872 -1.3099
-27 -1 1 -1.4678 -0.7731
-27 -1 2 0.1656 -0.0190
-27 -1 3 1.0533 -1.0361
-27 -1 4 -0.4686 0.2320
-27 -1 5 -0.0946 0.0873
-27 -1 6 0.2214 0.1059
-26 -9 -2 0.0743 0.7116
-26 -9 -1 -0.1160 -0.0037
-26 -9 0 0.0173 -0.4033
-26 -9 1 0.5752 -0.2511
-26 -9 2 0.3758 0.7859
-26 -8 -3 0.3746 -1.0171
-26 -8 -2 0.0328 0.3701
-26 -8 -1 0.8898 -0.6979
-26 -8 0 0.2309 -0.1850
-26 -8 1 0.8754 0.0212
-26 -8 2 0.3685 1.1522
-26 -8 3 0.7980 0.3510
-26 -7 -4 0.1144 0.7628
-26 -7 -3 0.1095 -1.0182
-26 -7 -2 -0.3479 -0.2713
-26 -7 -1 1.0646 0.5282
-26 -7 0 0.4432 0.6824
-26 -7 1 0.6325 0.1925
-26 -7 2 -0.0899 0.6268
-26 -7 3 0.5350 1.1687
-26 -7 4 0.5379 -0.4685
-26 -6 -5 0.8232 -0.8542
-26 -6 -4 0.1639 1.5654
-26 -6 -3 -0.0036 -1.1564
-26 -6 -2 -0.9075 0.4406
-26 -6 -1 1.0770 0.3428
-26 -6 0 0.3902 1.6519
-26 -6 1 0.3531 0.2570
-26 -6 2 -0.3075 -0.0414
-26 -6 3 -0.1547 2.2406
-26 -6 4 0.4581 -1.4162
-26 -6 5 -0.0997 -0.8357
-26 -5 -6 0.3578 -0.4185
-26 -5 -5 1.1700 -0.9358
-26 -5 -4 0.4143 1.2027
-26 -5 -3 -0.4262 -1.4645
-26 -5 -2 -0.4852 0.5918
-26 -5 -1 0.6954 -1.6793
-26 -5 0 -0.4970 2.3752
-26 -5 1 1.1251 0.2881
-26 -5 2 -0.3291 0.2215
-26 -5 3 0.1705 1.6303
-26 -5 4 0.0542 -2.5326
-26 -5 5 -0.2120 -0.7097
-26 -5 6 -0.2137 0.6518
-26 -4 -6 0.1255 -0.3787
-26 -4 -5 1.0215 -0.9766
-26 -4 -4 0.4905 0.1550
-26 -4 -3 -0.0154 -0.5660
-26 -4 -2 -0.7499 0.0636
-26 -4 -1 -0.3714 -1.7431
-26 -4 0 -0.7010 1.8081
-26 -4 1 0.7616 1.5733
-26 -4 2 0.8121 0.2911
-26 -4 3 0.4713 0.9945
-26 -4 4 -0.2201 -1.5497
-26 -4 5 -0.1499 0.3090
-26 -4 6 0.3314 -0.2101
-26 -3 -7 -1.1574 -0.6317
-26 -3 -6 0.6484 0.2811
-26 -3 -5 -0.1869 -0.4256
-26 -3 -4 0.6370 -0.2711
-26 -3 -3 0.7003 1.0848
-26 -3 -2 -1.9134 0.1838
-26 -3 -1 -0.1140 -0.3426
-26 -3 0 0.1361 0.4835
-26 -3 1 -0.4379 1.9632
-26 -3 2 1.9474 0.0138
-26 -3 3 0.0246 0.9357
-26 -3 4 -0.4292 0.0245
-26 -3 5 0.2100 -0.1730
-26 -3 6 -0.4463 -0.9885
-26 -2 -7 -1.1364 -0.3074
-26 -2 -6 0.4050 0.8429
-26 -2 -5 -0.5533 0.3685
-26 -2 -4 0.5030 -0.8172
-26 -2 -3 0.0346 1.3011
-26 -2 -2 -1.4898 0.4432
-26 -2 -1 0.3012 0.6914
-26 -2 0 1.0915 -1.7496
-26 -2 1 -0.7841 0.9508
-26 -2 2 1.0732 -0.4993
-26 -2 3 0.2337 0.3524
-26 -2 4 -0.1143 0.6501
-26 -2 5 0.2225 -0.1526
-26 -2 6 -0.4585 -0.6467
-26 -2 7 0.2886 -0.5783
-26 -1 -8 0.4221 0.9775
-26 -1 -7 -0.9602 0.2837
-26 -1 -6 0.2044 0.4866
-26 -1 -5 -0.1344 0.4901
-26 -1 -4 -0.0602 -1.3373
-26 -1 -3 -0.7510 0.6363
-26 -1 -2 -1.2692 0.7165
-26 -1 -1 -0.2355 0.4929
-26 -1 0 1.4685 -2.6789
-26 -1 1 -1.7193 0.6439
-26 -1 2 0.7485 -0.8691
-26 -1 3 -0.1507 0.3876
-26 -1 4 0.8039 1.1161
-26 -1 5 0.1480 0.4495
-26 -1 6 0.9179 0.0283
-26 -1 7 -0.3523 -0.1100
-25 -10 -2 0.8526 0.6890
-25 -10 -1 -0.6000 0.3202
-25 -10 0 0.0917 0.4323
-25 -10 1 -0.2622 -0.8145
-25 -10 2 0.1579 0.7361
-25 -9 -4 -1.5229 0.8997
-25 -9 -3 0.4753 -0.4725
-25 -9 -2 -0.0972 0.3317
-25 -9 -1 0.2973 -0.9564
-25 -9 0 0.5685 0.0448
-25 -9 1 -0.2739 -0.3317
-25 -9 2 -0.0764 1.1301
-25 -9 3 0.6161 0.3759
-25 -9 4 -1.0968 -0.6974
-25 -8 -5 0.5647 -0.2975
-25 -8 -4 -0.2610 1.2112
-25 -8 -3 0.2531 -1.2706
-25 -8 -2 -0.3185 -0.3458
-25 -8 -1 0.7655 -1.0815
-25 -8 0 0.9325 0.7318
-25 -8 1 0.5310 0.2998
-25 -8 2 -0.9604 0.8525
-25 -8 3 1.0840 0.4842
-25 -8 4 -0.8475 -0.1424
-25 -8 5 -1.1677 0.3823
-25 -7 -5 1.1591 -1.3949
-25 -7 -4 0.3840 2.0670
-25 -7 -3 -0.1555 -0.9053
-25 -7 -2 -0.4474 0.3017
-25 -7 -1 0.8124 -0.5263
-25 -7 0 1.3851 1.8701
-25 -7 1 0.6889 0.5614
-25 -7 2 -0.9434 0.4955
-25 -7 3 0.8755 1.5923
-25 -7 4 -0.1528 0.0956
-25 -7 5 -1.0026 -0.7419
-25 -6 -6 0.2900 0.3074
-25 -6 -5 1.2392 -2.0201
-25 -6 -4 0.3259 2.6360
-25 -6 -3 -0.1620 -1.1780
-25 -6 -2 -1.0070 1.5398
-25 -6 -1 1.1199 -1.8933
-25 -6 0 0.1363 2.5118
-25 -6 1 0.8463 0.5825
-25 -6 2 -1.0577 0.4842
-25 -6 3 0.8295 1.8754
-25 -6 4 0.4075 -1.6899
-25 -6 5 -0.6335 -1.1003
-25 -6 6 -0.2510 -0.2229
-25 -5 -7 0.5932 -0.6162
-25 -5 -6 -0.3961 -0.0994
-25 -5 -5 1.3347 -2.0604
-25 -5 -4 0.0997 1.4767
-25 -5 -3 -0.0559 -1.5647
-25 -5 -2 -0.8047 1.5973
-25 -5 -1 -0.4753 -2.8497
-25 -5 0 -0.3164 2.3432
-25 -5 1 0.8188 1.3943
-25 -5 2 -0.9161 0.5972
-25 -5 3 1.2811 0.9164
-25 -5 4 0.3367 -2.1894
-25 -5 5 -0.6204 -0.0226
-25 -5 6 0.9040 -0.1387
-25 -5 7 0.5452 -0.9427
-25 -4 -7 -0.5841 -1.4829
-25 -4 -6 -0.1239 0.7917
-25 -4 -5 0.8266 -1.8876
-25 -4 -4 -0.0363 0.2413
-25 -4 -3 0.1200 -0.0451
-25 -4 -2 -1.5785 0.5779
-25 -4 -1 -1.8194 -1.1159
-25 -4 0 0.6921 1.6068
-25 -4 1 0.4323 2.0118
-25 -4 2 0.7031 1.1763
-25 -4 3 0.7260 0.4740
-25 -4 4 0.1636 -0.6025
-25 -4 5 0.1626 0.2437
-25 -4 6 0.5475 -1.4004
-25 -4 7 0.4405 -1.9462
-25 -3 -7 -0.8290 -1.2146
-25 -3 -6 0.8204 1.4332
-25 -3 -5 0.1105 -0.7613
-25 -3 -4 0.5382 -0.5751
-25 -3 -3 -0.1637 1.3345
-25 -3 -2 -2.0579 0.1789
-25 -3 -1 -1.2793 0.5807
-25 -3 0 0.7544 -0.6930
-25 -3 1 0.7217 1.7481
-25 -3 2 0.7485 0.7754
-25 -3 3 -0.0167 0.7387
-25 -3 4 0.2264 0.3028
-25 -3 5 0.8063 -0.1428
-25 -3 6 -0.1433 -2.0527
-25 -3 7 1.1251 -1.3662
-25 -2 -8 0.1833 2.0588
-25 -2 -7 -0.5611 -0.1255
-25 -2 -6 1.0276 0.8000
-25 -2 -5 -0.1188 0.3774
-25 -2 -4 0.6314 -1.8928
-25 -2 -3 -0.1871 1.7711
-25 -2 -2 -1.2742 0.9660
-25 -2 -1 -1.1118 0.0231
-25 -2 0 0.8460 -3.2534
-25 -2 1 -0.0644 1.2179
-25 -2 2 0.3360 -0.2488
-25 -2 3 -0.3133 1.3508
-25 -2 4 0.4012 1.2521
-25 -2 5 0.2124 0.2297
-25 -2 6 0.6440 -0.7187
-25 -2 7 0.4258 -0.7663
-25 -1 -8 0.6235 2.5760
-25 -1 -7 -0.4513 0.2245
-25 -1 -6 0.4879 0.2067
-25 -1 -5 0.1472 0.1010
-25 -1 -4 0.1128 -1.6813
-25 -1 -3 -0.7390 2.1349
-25 -1 -2 -0.7594 1.0916
-25 -1 -1 -1.5865 -0.8757
-25 -1 0 0.8137 -2.7062
-25 -1 1 -0.8419 0.3934
-25 -1 2 1.0274 0.5280
-25 -1 3 -0.2136 1.5523
-25 -1 4 0.7330 1.7204
-25 -1 5 -0.2645 0.5717
-25 -1 6 0.9860 0.0567
-25 -1 7 -0.5921 -1.0251
-24 -12 -1 -0.5160 0.1768
-24 -12 0 -0.3448 -0.1266
-24 -12 1 0.0441 0.7671
-24 -11 -3 -0.4352 0.7034
-24 -11 -2 1.3345 0.3522
-24 -11 -1 -0.4357 0.4557
-24 -11 0 -0.3643 0.1520
-24 -11 1 -0.3197 -0.0740
-24 -11 2 -0.2433 0.1493
-24 -11 3 0.0541 0.2261
-24 -10 -4 -1.2011 1.0127
-24 -10 -3 0.1196 1.4100
-24 -10 -2 0.7171 0.3663
-24 -10 -1 -0.0726 -0.3670
-24 -10 0 0.4719 -0.2155
-24 -10 1 -0.8788 -0.4107
-24 -10 2 -0.5399 0.5145
-24 -10 3 -0.1060 0.0031
-24 -10 4 -0.6107 -0.6544
-24 -9 -5 0.0609 0.4485
-24 -9 -4 -0.6807 0.7130
-24 -9 -3 0.6031 0.6685
-24 -9 -2 -0.7014 -0.3496
-24 -9 -1 0.5733 -1.3506
-24 -9 0 0.6490 -0.1623
-24 -9 1 -0.1490 0.4878
-24 -9 2 -1.1437 -0.0199
-24 -9 3 0.2257 -0.7448
-24 -9 4 -0.7398 -0.6659
-24 -9 5 -1.6178 -0.2459
-24 -8 -6 -0.3474 -0.0785
-24 -8 -5 0.7982 -0.5244
-24 -8 -4 0.5239 0.7536
-24 -8 -3 0.1150 -0.4163
-24 -8 -2 -0.6098 0.5555
-24 -8 -1 0.3591 -1.4493
-24 -8 0 1.0932 0.8272
-24 -8 1 0.4136 1.3432
-24 -8 2 -1.4436 -0.2650
-24 -8 3 0.8212 -0.4659
-24 -8 4 -0.4823 0.7447
-24 -8 5 -1.2783 -1.4746
-24 -8 6 -0.0177 -1.1820
-24 -7 -6 -0.2589 0.3350
-24 -7 -5 1.1013 -2.1282
-24 -7 -4 0.6494 1.7700
-24 -7 -3 0.2246 -0.9531
-24 -7 -2 -0.4235 1.6101
-24 -7 -1 0.9690 -1.2675
-24 -7 0 0.7274 1.0303
-24 -7 1 0.3054 1.2865
-24 -7 2 -1.3813 0.9070
-24 -7 3 0.6046 0.2781
-24 -7 4 0.3410 0.2366
-24 -7 5 -1.2171 -1.9686
-24 -7 6 -0.2004 -2.1839
-24 -6 -7 0.3244 -0.5709
-24 -6 -6 -0.4972 -0.2442
-24 -6 -5 0.4155 -2.6023
-24 -6 -4 -0.1641 1.6193
-24 -6 -3 0.3974 -1.9960
-24 -6 -2 -0.7070 1.5672
-24 -6 -1 0.5197 -1.9112
-24 -6 0 -0.1742 0.6117
-24 -6 1 0.2094 1.2858
-24 -6 2 -1.3717 1.5772
-24 -6 3 0.8665 0.0791
-24 -6 4 0.8851 -1.1953
-24 -6 5 -1.4008 -0.4110
-24 -6 6 0.6581 -1.3053
-24 -6 7 0.4832 -0.8839
-24 -5 -7 0.1061 -1.6991
-24 -5 -6 -0.7379 0.1644
-24 -5 -5 0.7394 -1.9791
-24 -5 -4 -0.7480 0.1848
-24 -5 -3 0.0757 -1.4808
-24 -5 -2 -1.0921 0.4594
-24 -5 -1 -1.6968 -1.5558
-24 -5 0 0.3579 1.1948
-24 -5 1 -0.0436 0.8408
-24 -5 2 -0.2153 2.3056
-24 -5 3 0.8415 -0.6852
-24 -5 4 0.3208 -0.4327
-24 -5 5 -0.2320 1.2794
-24 -5 6 0.8510 -1.1504
-24 -5 7 0.5178 -2.6029
-24 -4 -8 0.3281 0.8153
-24 -4 -7 -0.6627 -1.8786
-24 -4 -6 0.0237 1.2135
-24 -4 -5 1.2749 -0.8271
-24 -4 -4 -0.4287 -0.2724
-24 -4 -3 -0.3287 0.4821
-24 -4 -2 -1.3403 -1.0375
-24 -4 -1 -1.8416 0.6424
-24 -4 0 0.7729 0.1113
-24 -4 1 0.6522 0.5591
-24 -4 2 0.6812 2.4869
-24 -4 3 -0.1769 -0.9701
-24 -4 4 -0.1099 0.4188
-24 -4 5 0.5982 1.0800
-24 -4 6 0.2153 -2.4985
-24 -4 7 1.0960 -2.0228
-24 -3 -8 0.2884 1.4076
-24 -3 -7 -0.4841 -0.6582
-24 -3 -6 1.0281 0.7064
-24 -3 -5 0.2071 0.6429
-24 -3 -4 0.2820 -1.1812
-24 -3 -3 -0.4251 2.3559
-24 -3 -2 -1.1632 -0.8118
-24 -3 -1 -0.9460 0.6150
-24 -3 0 0.7675 -2.6076
-24 -3 1 0.3129 0.4524
-24 -3 2 0.9785 1.1704
-24 -3 3 -0.3253 -0.1283
-24 -3 4 0.0952 0.3861
-24 -3 5 0.2090 0.1595
-24 -3 6 0.3142 -1.6694
-24 -3 7 0.8305 -0.5197
-24 -3 8 0.4869 -0.5715
-24 -2 -8 0.4144 3.5040
-24 -2 -7 0.2169 -0.0921
-24 -2 -6 0.8143 -0.2224
-24 -2 -5 -0.4607 0.7197
-24 -2 -4 0.8304 -2.0368
-24 -2 -3 -0.4825 4.6662
-24 -2 -2 -0.8138 0.4381
-24 -2 -1 -1.1560 -1.6320
-24 -2 0 0.5837 -3.2802
-24 -2 1 -0.8824 -0.2966
-24 -2 2 1.3138 1.9488
-24 -2 3 0.4232 1.2988
-24 -2 4 0.5912 1.2504
-24 -2 5 -0.2773 0.1475
-24 -2 6 0.6019 -0.1825
-24 -2 7 0.0863 -0.8697
-24 -2 8 -0.8080 -0.5756
-24 -1 -9 -0.5400 0.7059
-24 -1 -8 0.1493 3.3753
-24 -1 -7 0.3772 0.1674
-24 -1 -6 0.4318 -1.0162
-24 -1 -5 0.4982 0.2561
-24 -1 -4 0.5391 -0.8104
-24 -1 -3 -0.6176 4.3820
-24 -1 -2 -0.1546 0.8486
-24 -1 -1 -1.7712 -2.3515
-24 -1 0 0.8261 -1.6718
-24 -1 1 -0.3937 -0.1159
-24 -1 2 0.4405 2.8544
-24 -1 3 1.1912 1.7680
-24 -1 4 1.2653 0.9898
-24 -1 5 -1.1060 0.1997
-24 -1 6 0.5443 -0.7205
-24 -1 7 0.0075 -0.9934
-24 -1 8 -1.6187 -0.3979
-23 -13 -1 -0.1741 -0.3124
-23 -13 0 -0.5719 0.2565
-23 -13 1 -0.4460 1.2594
-23 -12 -3 -0.1426 0.8680
-23 -12 -2 0.5908 -0.0415
-23 -12 -1 0.3888 0.0730
-23 -12 0 -0.6786 0.1668
-23 -12 1 -0.4270 0.9434
-23 -12 2 -0.4892 -0.2850
-23 -12 3 0.1514 0.3828
-23 -11 -4 -0.4793 1.0084
-23 -11 -3 0.4051 1.3868
-23 -11 -2 0.7928 1.3132
-23 -11 -1 0.2956 -0.3369
-23 -11 0 0.2391 -0.1343
-23 -11 1 -0.2486 0.0549
-23 -11 2 -0.7512 -0.1173
-23 -11 3 0.3356 0.5950
-23 -11 4 0.3055 -0.7296
-23 -10 -5 0.1409 1.0374
-23 -10 -4 -0.6813 0.7197
-23 -10 -3 0.8178 1.9267
-23 -10 -2 -0.2507 0.5524
-23 -10 -1 0.1659 -0.9101
-23 -10 0 0.1170 -0.5863
-23 -10 1 0.0686 0.1564
-23 -10 2 -1.1027 -0.4891
-23 -10 3 -0.1325 -0.4194
-23 -10 4 0.5592 -1.1666
-23 -10 5 -1.2544 -0.1987
-23 -9 -6 -0.2498 -0.1774
-23 -9 -5 -0.0780 0.9444
-23 -9 -4 0.1450 -0.0138
-23 -9 -3 0.8023 0.4579
-23 -9 -2 -1.1209 0.5108
-23 -9 -1 0.5460 -1.3805
-23 -9 0 -0.2991 -0.0651
-23 -9 1 0.4547 1.1912
-23 -9 2 -1.3952 -1.8134
-23 -9 3 0.0146 -0.8351
-23 -9 4 0.1276 -0.0707
-23 -9 5 -0.9081 -1.0764
-23 -9 6 -0.1195 -1.4593
-23 -8 -7 -0.3525 -0.0742
-23 -8 -6 -0.5425 -0.2440
-23 -8 -5 0.6486 -0.5395
-23 -8 -4 0.3024 0.4047
-23 -8 -3 0.5380 -1.1602
-23 -8 -2 -0.8929 1.5436
-23 -8 -1 1.0625 -1.5301
-23 -8 0 -0.0248 0.5208
-23 -8 1 0.4232 1.2350
-23 -8 2 -1.1980 -1.1705
-23 -8 3 0.3337 -0.1405
-23 -8 4 0.2613 0.4784
-23 -8 5 -0.7551 -2.0300
-23 -8 6 -0.3475 -3.4365
-23 -7 -7 0.3233 -0.7526
-23 -7 -6 -0.1362 -0.6780
-23 -7 -5 0.7018 -2.2180
-23 -7 -4 -0.3841 1.1268
-23 -7 -3 0.6620 -2.1949
-23 -7 -2 -0.6219 1.0564
-23 -7 -1 0.8629 -1.4530
-23 -7 0 -0.4750 -0.7006
-23 -7 1 -0.2127 1.3565
-23 -7 2 -1.1766 0.1405
-23 -7 3 0.1451 -0.0299
-23 -7 4 1.0887 -0.5624
-23 -7 5 -1.4939 -1.6122
-23 -7 6 0.6592 -2.6625
-23 -7 7 -0.3380 -1.2738
-23 -6 -8 0.0795 -0.1442
-23 -6 -7 0.5073 -1.5695
-23 -6 -6 -0.3363 -1.0562
-23 -6 -5 0.3802 -2.3228
-23 -6 -4 -0.4449 0.2349
-23 -6 -3 0.6586 -2.3322
-23 -6 -2 -0.7616 0.1325
-23 -6 -1 0.1765 -2.0421
-23 -6 0 -0.8036 -0.5296
-23 -6 1 -0.6336 0.8116
-23 -6 2 -0.1716 1.0133
-23 -6 3 -0.0399 -0.4864
-23 -6 4 0.2263 -0.9088
-23 -6 5 -1.0039 1.0339
-23 -6 6 0.5110 -1.2684
-23 -6 7 -0.0647 -2.8091
-23 -6 8 -0.7062 0.1198
-23 -5 -8 0.3159 0.8443
-23 -5 -7 0.1349 -1.8288
-23 -5 -6 -0.6681 -0.4639
-23 -5 -5 1.6282 -0.8082
-23 -5 -4 -0.7943 -0.7755
-23 -5 -3 0.0256 -0.7247
-23 -5 -2 -0.9006 -0.8708
-23 -5 -1 0.0796 -0.8137
-23 -5 0 -0.0741 -0.1618
-23 -5 1 0.1866 -0.0420
-23 -5 2 1.2376 1.9404
-23 -5 3 -0.0554 -1.1243
-23 -5 4 -0.8056 0.1980
-23 -5 5 0.0423 2.2727
-23 -5 6 -0.3307 -2.4010
-23 -5 7 -0.0235 -2.9394
-23 -5 8 0.1686 -0.5923
-23 -4 -8 0.9954 0.6583
-23 -4 -7 -0.5587 -0.5567
-23 -4 -6 0.7542 -0.1407
-23 -4 -5 1.7602 0.8527
-23 -4 -4 -1.1998 -1.0148
-23 -4 -3 -0.3289 1.0888
-23 -4 -2 -1.1130 -1.0648
-23 -4 -1 0.2777 0.6853
-23 -4 0 0.8626 -2.1624
-23 -4 1 -0.3551 0.0399
-23 -4 2 1.6256 0.8441
-23 -4 3 -0.0096 -0.9236
-23 -4 4 -0.3272 0.0248
-23 -4 5 0.1432 0.7054
-23 -4 6 -0.0278 -2.4390
-23 -4 7 0.1575 -0.7068
-23 -4 8 0.8404 -0.1744
-23 -3 -9 0.2862 -0.9682
-23 -3 -8 0.5008 1.4742
-23 -3 -7 -0.1903 0.4895
-23 -3 -6 0.4502 -0.5913
-23 -3 -5 -0.0515 1.1338
-23 -3 -4 -0.1903 -1.3370
-23 -3 -3 -0.5632 3.6723
-23 -3 -2 -1.1419 0.1240
-23 -3 -1 0.0996 -0.7143
-23 -3 0 0.9267 -3.5610
-23 -3 1 -1.6436 -0.4279
-23 -3 2 1.6381 0.5947
-23 -3 3 0.5543 0.3861
-23 -3 4 0.3094 -0.4602
-23 -3 5 0.0636 -0.0197
-23 -3 6 -0.1730 -0.4559
-23 -3 7 0.3925 0.6849
-23 -3 8 0.3243 0.7953
-23 -2 -9 0.2804 0.6046
-23 -2 -8 0.0892 3.3674
-23 -2 -7 0.0586 0.2014
-23 -2 -6 -1.1693 -1.5549
-23 -2 -5 -0.3427 0.6729
-23 -2 -4 0.4778 -0.3581
-23 -2 -3 -0.8282 5.8411
-23 -2 -2 -0.7407 1.1611
-23 -2 -1 -0.9047 -2.6873
-23 -2 0 0.7279 -3.4280
-23 -2 1 -0.5249 0.7365
-23 -2 2 1.0346 2.4290
-23 -2 3 1.3531 1.7772
-23 -2 4 1.2879 0.0446
-23 -2 5 -0.5056 -0.1458
-23 -2 6 -0.4122 -0.5560
-23 -2 7 0.3128 0.1968
-23 -2 8 -0.3980 1.3193
-23 -1 -9 -0.3926 2.1899
-23 -1 -8 0.6189 2.4097
-23 -1 -7 -0.3008 -0.7568
-23 -1 -6 -0.1563 -1.6990
-23 -1 -5 0.2483 0.8446
-23 -1 -4 0.2251 0.3171
-23 -1 -3 -0.2505 4.5656
-23 -1 -2 -0.4911 0.6271
-23 -1 -1 -1.9788 -2.6108
-23 -1 0 1.3438 -1.7791
-23 -1 1 -0.3938 2.0914
-23 -1 2 0.2037 2.2082
-23 -1 3 1.0186 1.3070
-23 -1 4 1.6801 -0.2654
-23 -1 5 -0.7698 -1.0566
-23 -1 6 0.3754 -1.2449
-23 -1 7 0.4169 -0.1100
-23 -1 8 0.2203 1.3751
-22 -14 -1 0.2896 -0.1595
-22 -14 0 -0.2363 0.6621
-22 -14 1 -1.0673 0.9002
-22 -14 2 0.1674 -0.5884
-22 -13 -3 -0.8806 0.4502
-22 -13 -2 0.1413 0.5287
-22 -13 -1 0.4963 0.4356
-22 -13 0 -0.2018 0.6888
-22 -13 1 -1.0601 1.3111
-22 -13 2 -0.3551 -0.3858
-22 -13 3 -0.2043 -0.3086
-22 -12 -4 0.1526 0.5759
-22 -12 -3 0.3757 0.0351
-22 -12 -2 -0.0613 1.3851
-22 -12 -1 0.4732 0.6312
-22 -12 0 0.2551 0.2762
-22 -12 1 -0.4407 0.9544
-22 -12 2 -0.5033 -0.3139
-22 -12 3 0.4440 0.4281
-22 -12 4 -0.0400 -0.7877
-22 -12 5 -0.1662 -0.7862
-22 -11 -5 0.2736 0.8150
-22 -11 -4 -0.0263 1.0454
-22 -11 -3 0.9253 0.4948
-22 -11 -2 0.1921 1.6974
-22 -11 -1 0.0328 -0.3704
-22 -11 0 0.2734 -0.1519
-22 -11 1 0.4033 0.1045
-22 -11 2 -0.8647 0.0604
-22 -11 3 0.3532 0.1845
-22 -11 4 0.4512 -0.8638
-22 -11 5 -0.8707 -0.4339
-22 -10 -6 -0.3585 0.3158
-22 -10 -5 -0.6830 1.1963
-22 -10 -4 0.0503 0.6931
-22 -10 -3 0.4873 0.1903
-22 -10 -2 -0.1894 0.3406
-22 -10 -1 -0.0420 -0.6492
-22 -10 0 -0.2475 -0.4238
-22 -10 1 0.7058 0.3001
-22 -10 2 -1.0761 -1.2792
-22 -10 3 0.3120 -0.5200
-22 -10 4 0.4335 0.2238
-22 -10 5 -0.6562 0.0055
-22 -10 6 0.4643 -1.8543
-22 -9 -7 0.0647 0.7192
-22 -9 -6 0.1446 0.2565
-22 -9 -5 -0.5346 0.3015
-22 -9 -4 0.4234 0.6318
-22 -9 -3 0.2806 -1.3395
-22 -9 -2 -1.1698 0.2171
-22 -9 -1 0.9410 -0.8529
-22 -9 0 -0.5921 0.4766
-22 -9 1 0.8011 -0.1056
-22 -9 2 -1.0111 -2.4850
-22 -9 3 0.4850 0.2238
-22 -9 4 0.5594 0.6438
-22 -9 5 -0.4560 0.2404
-22 -9 6 0.2514 -3.7849
-22 -9 7 -0.8200 -1.6763
-22 -8 -7 0.4366 -0.0164
-22 -8 -6 0.5208 -0.2274
-22 -8 -5 0.4170 -0.8815
-22 -8 -4 0.1505 0.9425
-22 -8 -3 0.3964 -2.3000
-22 -8 -2 -0.7327 0.3475
-22 -8 -1 0.8728 -1.4071
-22 -8 0 -0.2076 0.1949
-22 -8 1 0.4537 -0.1310
-22 -8 2 -1.1923 -2.1403
-22 -8 3 0.4239 0.3913
-22 -8 4 0.8333 -0.2147
-22 -8 5 -1.2726 -1.0154
-22 -8 6 0.9464 -3.1546
-22 -8 7 -0.7720 -2.1586
-22 -7 -8 0.5537 -0.1592
-22 -7 -7 0.2440 -1.3313
-22 -7 -6 0.4429 -0.5275
-22 -7 -5 -0.0648 -2.1534
-22 -7 -4 -0.0285 0.8597
-22 -7 -3 0.3695 -2.6943
-22 -7 -2 -0.4973 -0.1873
-22 -7 -1 0.1754 -2.4114
-22 -7 0 -0.4220 -0.7628
-22 -7 1 -0.3800 0.5123
-22 -7 2 -0.0717 -1.4561
-22 -7 3 0.0726 -0.3959
-22 -7 4 0.3880 -1.6948
-22 -7 5 -1.3128 -0.1785
-22 -7 6 0.8186 -1.0969
-22 -7 7 -0.4312 -2.4131
-22 -7 8 -1.3719 0.1003
-22 -6 -8 0.0431 0.3041
-22 -6 -7 0.7329 -1.3630
-22 -6 -6 -0.1733 -1.2780
-22 -6 -5 0.5152 -1.6566
-22 -6 -4 0.4541 -0.0879
-22 -6 -3 -0.1381 -2.0040
-22 -6 -2 -0.6912 -0.6764
-22 -6 -1 0.7040 -2.4130
-22 -6 0 -1.2337 -0.7418
-22 -6 1 0.2604 0.2434
-22 -6 2 0.9871 0.2681
-22 -6 3 0.2238 -0.9492
-22 -6 4 -0.6965 -1.3833
-22 -6 5 -0.4336 2.1848
-22 -6 6 -0.0612 -2.1963
-22 -6 7 -0.4942 -2.7454
-22 -6 8 -1.3055 -0.6595
-22 -5 -9 0.4196 -0.7010
-22 -5 -8 0.4115 0.9432
-22 -5 -7 0.2437 -0.6120
-22 -5 -6 0.8070 -1.2237
-22 -5 -5 1.8417 0.0911
-22 -5 -4 -0.5667 -0.9908
-22 -5 -3 -0.2795 -0.6709
-22 -5 -2 -0.4027 -0.6706
-22 -5 -1 1.0982 -0.8320
-22 -5 0 -0.1055 -1.7004
-22 -5 1 0.1356 0.2583
-22 -5 2 0.7576 0.7457
-22 -5 3 0.5835 -0.6562
-22 -5 4 -0.9849 -0.2394
-22 -5 5 -0.0632 0.8625
-22 -5 6 -0.4607 -3.5181
-22 -5 7 -0.4066 -1.6540
-22 -5 8 -0.5856 -0.0760
-22 -4 -9 0.4986 -1.3412
-22 -4 -8 0.8786 0.5199
-22 -4 -7 -0.5594 0.7899
-22 -4 -6 1.4840 -0.3802
-22 -4 -5 0.3512 0.2786
-22 -4 -4 -1.6288 -0.7347
-22 -4 -3 -0.6206 0.7929
-22 -4 -2 -0.9136 0.4395
-22 -4 -1 0.7013 -0.1486
-22 -4 0 0.5578 -3.1500
-22 -4 1 -1.3436 -0.4738
-22 -4 2 0.7345 0.0099
-22 -4 3 0.7716 0.3587
-22 -4 4 0.1138 -0.8924
-22 -4 5 0.3579 -0.3553
-22 -4 6 -0.8335 -1.8020
-22 -4 7 0.1441 0.7971
-22 -4 8 -0.4321 1.4558
-22 -3 -9 0.8590 -0.3240
-22 -3 -8 0.2076 0.9125
-22 -3 -7 -0.5063 1.7531
-22 -3 -6 -0.9604 -0.6604
-22 -3 -5 -0.5273 -0.3187
-22 -3 -4 -0.8634 0.9489
-22 -3 -3 -1.1823 3.1702
-22 -3 -2 -0.9071 1.7054
-22 -3 -1 -0.5372 -0.7791
-22 -3 0 -0.3262 -4.6953
-22 -3 1 -0.7175 0.1675
-22 -3 2 0.6184 0.8299
-22 -3 3 1.1115 1.2476
-22 -3 4 1.0421 -0.9827
-22 -3 5 0.6870 0.6183
-22 -3 6 -1.1470 -0.3304
-22 -3 7 0.6849 1.7674
-22 -3 8 -0.3139 2.8994
-22 -3 9 -0.0053 -0.3451
-22 -2 -10 -0.3564 -0.2549
-22 -2 -9 0.6331 2.6752
-22 -2 -8 0.2204 1.5902
-22 -2 -7 -1.4053 -0.6391
-22 -2 -6 -1.8544 -0.9473
-22 -2 -5 0.1311 0.1256
-22 -2 -4 0.2334 1.9039
-22 -2 -3 -0.7001 5.0330
-22 -2 -2 0.1781 1.0344
-22 -2 -1 -1.3834 -1.9800
-22 -2 0 -0.1984 -4.3710
-22 -2 1 0.4187 2.8656
-22 -2 2 0.2437 1.7670
-22 -2 3 0.4905 0.8035
-22 -2 4 0.7574 -0.7839
-22 -2 5 -0.2270 -0.8181
-22 -2 6 -0.4071 -0.4737
-22 -2 7 0.5254 0.7385
-22 -2 8 0.5590 3.8478
-22 -2 9 0.8013 0.3063
-22 -1 -10 -0.3008 0.4166
-22 -1 -9 0.1354 2.7121
-22 -1 -8 0.4996 0.0863
-22 -1 -7 -0.6292 -2.6936
-22 -1 -6 -0.8416 -0.1134
-22 -1 -5 -0.4491 0.2715
-22 -1 -4 0.8484 0.9555
-22 -1 -3 -0.8051 3.8117
-22 -1 -2 1.0859 -0.9144
-22 -1 -1 -0.9273 -1.5972
-22 -1 0 -0.2268 -1.4059
-22 -1 1 -0.4053 2.0632
-22 -1 2 -0.1523 1.5099
-22 -1 3 -0.4019 -0.8465
-22 -1 4 -0.6613 -1.7056
-22 -1 5 -0.4542 -1.8119
-22 -1 6 0.0757 -0.2526
-22 -1 7 0.4736 -0.0605
-22 -1 8 1.1699 3.5214
-22 -1 9 1.4417 0.6490
-21 -15 0 -0.0456 -0.1163
-21 -15 1 -0.7265 0.0635
-21 -15 2 0.7270 -1.4033
-21 -14 -2 -0.5619 1.9722
-21 -14 -1 0.6974 1.0594
-21 -14 0 -0.1421 0.7773
-21 -14 1 -0.8847 0.8309
-21 -14 2 -0.1137 -0.5526
-21 -14 3 -0.7063 -0.7748
-21 -14 4 -0.5176 0.0426
-21 -13 -5 0.2441 -0.9711
-21 -13 -4 -0.0476 0.1672
-21 -13 -3 -0.3402 -1.2272
-21 -13 -2 -0.2299 0.6215
-21 -13 -1 0.4209 2.2211
-21 -13 0 0.3325 0.7848
-21 -13 1 -0.7520 1.4651
-21 -13 2 -0.0677 -0.1546
-21 -13 3 -0.8053 -0.5850
-21 -13 4 -0.4783 -0.5514
-21 -13 5 -0.3424 -1.1382
-21 -12 -6 -0.8849 -0.5393
-21 -12 -5 -0.0425 -0.1914
-21 -12 -4 0.0829 1.0053
-21 -12 -3 0.4906 -0.9353
-21 -12 -2 -0.5193 0.7117
-21 -12 -1 0.7632 1.1952
-21 -12 0 0.0735 0.4030
-21 -12 1 0.4580 0.7357
-21 -12 2 0.2162 0.4030
-21 -12 3 -0.6650 -0.2352
-21 -12 4 0.1435 -0.8093
-21 -12 5 -0.9178 -0.4503
-21 -12 6 0.7805 -2.2717
-21 -11 -6 -0.4651 -0.1677
-21 -11 -5 -0.5356 0.7045
-21 -11 -4 0.2858 1.1224
-21 -11 -3 0.0755 -0.2967
-21 -11 -2 -0.3135 0.2714
-21 -11 -1 0.1561 -0.4635
-21 -11 0 -0.2396 0.0439
-21 -11 1 0.6561 0.0295
-21 -11 2 -0.2785 -0.1134
-21 -11 3 -0.1901 -0.6695
-21 -11 4 -0.1399 -0.0255
-21 -11 5 -0.2301 1.0067
-21 -11 6 0.8452 -2.8808
-21 -10 -7 0.4018 0.7480
-21 -10 -6 0.1210 0.6693
-21 -10 -5 -0.6796 -0.3945
-21 -10 -4 0.4839 0.9956
-21 -10 -3 0.2329 -0.7417
-21 -10 -2 -0.5443 -0.7373
-21 -10 -1 0.3736 -0.1866
-21 -10 0 0.0556 0.2555
-21 -10 1 0.5046 -0.8774
-21 -10 2 -0.2038 -1.9095
-21 -10 3 -0.2989 -0.0724
-21 -10 4 0.2949 0.5308
-21 -10 5 -0.5045 2.7337
-21 -10 6 0.6121 -3.4949
-21 -10 7 -0.2124 -2.2509
-21 -9 -7 0.3683 1.2542
-21 -9 -6 0.8347 0.4766
-21 -9 -5 -0.4251 -0.8707
-21 -9 -4 0.6479 0.5778
-21 -9 -3 0.5214 -1.8144
-21 -9 -2 -0.6733 -0.4280
-21 -9 -1 1.1684 0.2028
-21 -9 0 0.4071 0.4727
-21 -9 1 1.3630 -1.4307
-21 -9 2 -0.2191 -2.9981
-21 -9 3 0.1877 0.8893
-21 -9 4 1.0329 0.0735
-21 -9 5 -1.3810 1.5992
-21 -9 6 0.8972 -2.7030
-21 -9 7 -0.3159 -3.0984
-21 -8 -8 0.4899 0.5966
-21 -8 -7 0.1379 -0.1714
-21 -8 -6 0.7662 0.9772
-21 -8 -5 -0.4965 -0.8686
-21 -8 -4 0.4620 -0.0231
-21 -8 -3 0.3191 -2.6426
-21 -8 -2 -0.4028 -0.0523
-21 -8 -1 0.1533 -0.8318
-21 -8 0 0.6141 0.2074
-21 -8 1 0.1770 -0.7035
-21 -8 2 0.4925 -2.9682
-21 -8 3 0.3312 0.2807
-21 -8 4 0.4408 -1.7119
-21 -8 5 -0.6986 0.0745
-21 -8 6 1.0015 -0.2837
-21 -8 7 0.5607 -2.1305
-21 -8 8 -0.8653 0.0102
-21 -7 -8 -0.2017 -0.0029
-21 -7 -7 -0.1153 -0.7779
-21 -7 -6 -0.2803 0.4871
-21 -7 -5 -0.7125 -1.0267
-21 -7 -4 0.6949 -0.0653
-21 -7 -3 -0.1239 -2.9849
-21 -7 -2 -0.4179 -1.0135
-21 -7 -1 0.0160 -1.6237
-21 -7 0 -0.5367 -0.2117
-21 -7 1 -0.1249 -0.0747
-21 -7 2 1.1476 -1.3152
-21 -7 3 -0.2981 -0.9812
-21 -7 4 -0.3137 -2.4451
-21 -7 5 -0.5202 1.7108
-21 -7 6 0.7165 -0.3336
-21 -7 7 0.2699 -1.6005
-21 -7 8 -0.9572 -0.1067
-21 -6 -9 0.5670 0.5763
-21 -6 -8 -0.6539 0.2529
-21 -6 -7 0.3560 -0.4554
-21 -6 -6 0.0831 -1.3828
-21 -6 -5 -0.0095 0.3135
-21 -6 -4 0.4491 -0.4312
-21 -6 -3 -1.0159 -2.3902
-21 -6 -2 -0.0402 -1.8584
-21 -6 -1 0.4006 -1.7016
-21 -6 0 -0.8343 -0.8530
-21 -6 1 0.8168 0.5961
-21 -6 2 0.1936 0.3494
-21 -6 3 0.2170 -0.8239
-21 -6 4 -0.8308 -0.9168
-21 -6 5 -0.2542 1.2923
-21 -6 6 -0.1613 -2.7373
-21 -6 7 -0.3131 -1.6523
-21 -6 8 -1.4954 0.5793
-21 -5 -9 0.7680 -0.2075
-21 -5 -8 -0.0881 0.9990
-21 -5 -7 0.7892 -0.7657
-21 -5 -6 1.8651 -0.6418
-21 -5 -5 -0.1476 0.4539
-21 -5 -4 -0.9404 -0.3956
-21 -5 -3 -1.2809 -1.0611
-21 -5 -2 -0.4792 -1.1788
-21 -5 -1 0.0340 -1.3236
-21 -5 0 -0.8622 -1.6462
-21 -5 1 -0.6856 0.0879
-21 -5 2 -0.5108 0.8403
-21 -5 3 0.1686 -0.0150
-21 -5 4 -0.2311 -0.6402
-21 -5 5 0.9658 -1.2904
-21 -5 6 -0.9759 -2.7999
-21 -5 7 0.2421 -0.2418
-21 -5 8 -1.5376 1.6743
-21 -5 9 -1.0846 -1.6227
-21 -4 -9 0.7239 -0.7408
-21 -4 -8 0.1682 0.6838
-21 -4 -7 -0.2000 1.4195
-21 -4 -6 1.1149 0.1701
-21 -4 -5 -1.2934 -0.8237
-21 -4 -4 -1.3645 1.5841
-21 -4 -3 -0.8762 0.6902
-21 -4 -2 -0.7485 1.0867
-21 -4 -1 -0.2400 -0.2853
-21 -4 0 -1.9556 -4.1284
-21 -4 1 -1.2289 -0.8146
-21 -4 2 -0.0587 1.6171
-21 -4 3 -0.4112 0.3300
-21 -4 4 0.7989 -1.4406
-21 -4 5 1.1052 -0.0176
-21 -4 6 -1.2767 -1.0151
-21 -4 7 0.5735 1.5174
-21 -4 8 -0.6165 2.7586
-21 -4 9 -0.8891 -1.5936
-21 -3 -10 0.1587 -0.8264
-21 -3 -9 0.9785 1.0143
-21 -3 -8 0.1302 0.9928
-21 -3 -7 -1.7852 2.0388
-21 -3 -6 -0.7900 -0.4159
-21 -3 -5 -0.7924 -0.4506
-21 -3 -4 -0.5070 3.1774
-21 -3 -3 -0.3293 2.9256
-21 -3 -2 0.2642 2.4923
-21 -3 -1 -0.4539 -0.8096
-21 -3 0 -1.3418 -6.3467
-21 -3 1 -0.3975 0.9576
-21 -3 2 1.4798 2.2108
-21 -3 3 -0.5495 0.2824
-21 -3 4 0.2078 -1.0307
-21 -3 5 0.3070 0.7026
-21 -3 6 -1.1969 0.0543
-21 -3 7 0.0351 1.2849
-21 -3 8 0.2800 3.5723
-21 -3 9 -0.5717 -1.4212
-21 -2 -10 0.2430 -0.4498
-21 -2 -9 1.1769 2.4587
-21 -2 -8 -0.0308 -0.5047
-21 -2 -7 -1.5791 -1.4755
-21 -2 -6 -0.2343 0.4282
-21 -2 -5 -0.1121 -0.2359
-21 -2 -4 0.8966 2.6141
-21 -2 -3 -0.7705 3.6371
-21 -2 -2 1.2331 0.4953
-21 -2 -1 -0.0105 -1.9127
-21 -2 0 -1.2451 -3.9893
-21 -2 1 -0.3081 1.8965
-21 -2 2 1.3197 1.7889
-21 -2 3 -1.0658 -1.0854
-21 -2 4 -1.0813 -1.9875
-21 -2 5 -0.6338 -1.6836
-21 -2 6 -0.2718 0.9085
-21 -2 7 -0.3447 0.1456
-21 -2 8 1.1107 4.3714
-21 -2 9 -0.3336 -0.2815
-21 -1 -10 -1.2236 0.7175
-21 -1 -9 1.0119 0.5386
-21 -1 -8 -0.2034 -3.0926
-21 -1 -7 -0.3627 -1.7376
-21 -1 -6 0.3589 0.7621
-21 -1 -5 -0.2119 -0.6171
-21 -1 -4 0.6744 1.1718
-21 -1 -3 -0.7503 1.7109
-21 -1 -2 1.1383 -1.2702
-21 -1 -1 0.6564 -0.8708
-21 -1 0 -1.2058 -0.3919
-21 -1 1 -1.1742 0.2037
-21 -1 2 0.1337 0.7729
-21 -1 3 -1.1818 -1.9584
-21 -1 4 -1.5501 -2.7052
-21 -1 5 -1.3173 -1.3205
-21 -1 6 0.2532 1.0339
-21 -1 7 -0.2197 0.4785
-21 -1 8 0.9087 3.3572
-21 -1 9 0.0278 0.1076
-21 -1 10 0.7511 -0.9011
-20 -16 1 -0.3094 -0.5654
-20 -16 2 0.7833 -1.1418
-20 -15 -4 -0.0163 -0.4412
-20 -15 -3 0.1629 -1.0948
-20 -15 -2 -1.4814 1.9847
-20 -15 -1 0.7187 1.0141
-20 -15 0 -0.3502 0.2580
-20 -15 1 -0.3585 -0.1170
-20 -15 2 0.1453 -0.1812
-20 -15 3 -0.6278 -0.2041
-20 -15 4 0.1212 0.1131
-20 -14 -5 -0.0087 -0.3819
-20 -14 -4 -0.6405 -0.1511
-20 -14 -3 -0.2384 -2.1889
-20 -14 -2 -0.3436 0.4497
-20 -14 -1 0.4184 1.5243
-20 -14 0 0.4167 1.1885
-20 -14 1 -0.5777 0.9009
-20 -14 2 0.0437 0.4737
-20 -14 3 -1.1658 -0.1922
-20 -14 4 -0.2803 -0.2519
-20 -14 5 0.0120 -0.5638
-20 -13 -6 -0.8787 -0.5695
-20 -13 -5 0.1907 -1.0126
-20 -13 -4 -0.5957 0.6870
-20 -13 -3 -0.0639 -1.9413
-20 -13 -2 -0.1922 -0.5387
-20 -13 -1 0.5284 1.5168
-20 -13 0 0.4042 0.8871
-20 -13 1 0.0688 0.9616
-20 -13 2 0.6994 0.4947
-20 -13 3 -1.6182 -0.4812
-20 -13 4 0.1204 -0.4367
-20 -13 5 -0.2058 0.0996
-20 -13 6 -0.1241 -2.5404
-20 -12 -6 -0.1082 -0.6191
-20 -12 -5 -0.2216 -0.4107
-20 -12 -4 0.2448 1.2526
-20 -12 -3 -0.0098 -0.6531
-20 -12 -2 -0.6843 -0.1710
-20 -12 -1 1.0640 -0.2090
-20 -12 0 -0.4148 0.4600
-20 -12 1 0.9538 0.5907
-20 -12 2 0.1590 -0.2043
-20 -12 3 -1.1946 -0.8756
-20 -12 4 -0.9480 -0.8929
-20 -12 5 0.4950 1.5899
-20 -12 6 0.3747 -3.0827
-20 -11 -7 0.1791 0.1543
-20 -11 -6 -0.4286 0.3467
-20 -11 -5 -0.2481 -1.1103
-20 -11 -4 0.0251 0.9985
-20 -11 -3 -0.0042 -0.0089
-20 -11 -2 -0.5329 0.0029
-20 -11 -1 0.2542 -1.0535
-20 -11 0 0.1108 1.1557
-20 -11 1 0.6639 -0.5683
-20 -11 2 0.2189 -1.4854
-20 -11 3 -0.9750 -0.8397
-20 -11 4 -1.0733 -1.1631
-20 -11 5 0.5030 3.5146
-20 -11 6 0.3797 -2.3490
-20 -11 7 0.1254 -2.3619
-20 -10 -8 0.6406 0.1809
-20 -10 -7 0.0264 0.7908
-20 -10 -6 0.0776 0.7976
-20 -10 -5 0.1686 -2.2184
-20 -10 -4 -0.1935 0.3992
-20 -10 -3 0.8961 -1.0404
-20 -10 -2 -0.1907 0.2159
-20 -10 -1 0.2854 0.7093
-20 -10 0 0.4443 0.6645
-20 -10 1 1.3518 -1.1499
-20 -10 2 0.3813 -2.8666
-20 -10 3 -0.5461 0.2444
-20 -10 4 0.3655 -0.5341
-20 -10 5 -0.9150 2.5951
-20 -10 6 0.6480 -0.8090
-20 -10 7 0.0973 -3.5447
-20 -10 8 -0.7669 -0.1275
-20 -9 -8 0.6555 0.6654
-20 -9 -7 -0.1731 0.5919
-20 -9 -6 0.5572 1.4624
-20 -9 -5 -0.2480 -1.2349
-20 -9 -4 0.3755 -0.6512
-20 -9 -3 1.2782 -2.7539
-20 -9 -2 0.2864 1.0067
-20 -9 -1 0.8149 1.5158
-20 -9 0 0.5285 0.0171
-20 -9 1 0.8881 -0.6977
-20 -9 2 0.6915 -3.4067
-20 -9 3 0.3055 1.5114
-20 -9 4 -0.3850 -1.5384
-20 -9 5 -0.6335 0.4267
-20 -9 6 0.6539 0.8836
-20 -9 7 0.8737 -2.1585
-20 -9 8 -0.0030 -0.1170
-20 -8 -9 -0.0019 0.5919
-20 -8 -8 -0.0259 0.4312
-20 -8 -7 -0.0831 -0.1112
-20 -8 -6 -1.0343 2.4533
-20 -8 -5 -0.5763 -0.0761
-20 -8 -4 -0.2001 -1.1225
-20 -8 -3 0.4539 -3.3168
-20 -8 -2 0.2124 -0.1316
-20 -8 -1 0.5357 0.8344
-20 -8 0 0.0607 0.4369
-20 -8 1 -0.3036 -0.7873
-20 -8 2 1.3404 -2.0025
-20 -8 3 -0.0414 0.5790
-20 -8 4 -1.2177 -2.1293
-20 -8 5 -0.2426 0.9528
-20 -8 6 0.8709 2.0491
-20 -8 7 0.5808 -0.5961
-20 -8 8 0.5822 0.0804
-20 -7 -9 -0.0506 1.5623
-20 -7 -8 -0.3616 -0.3395
-20 -7 -7 -0.4562 -0.1680
-20 -7 -6 -1.0024 0.8078
-20 -7 -5 -0.2669 1.0284
-20 -7 -4 -0.6542 -0.3775
-20 -7 -3 -0.7971 -2.8181
-20 -7 -2 0.1615 -2.4191
-20 -7 -1 0.0191 -0.3993
-20 -7 0 -0.5600 0.1027
-20 -7 1 0.2939 0.1393
-20 -7 2 -0.0145 -0.8353
-20 -7 3 -0.3477 -0.3089
-20 -7 4 -1.1048 0.0843
-20 -7 5 -0.6273 1.5545
-20 -7 6 0.9868 0.8883
-20 -7 7 -0.1045 -0.5883
-20 -7 8 -0.2695 0.8891
-20 -7 9 -0.5829 -0.1113
-20 -6 -9 0.1828 1.6875
-20 -6 -8 -1.1390 0.0253
-20 -6 -7 0.9429 -1.8964
-20 -6 -6 0.1915 -0.4361
-20 -6 -5 -0.1650 1.7765
-20 -6 -4 -0.7010 0.1336
-20 -6 -3 -1.6361 -1.2577
-20 -6 -2 0.1800 -3.0129
-20 -6 -1 -0.3630 -2.0053
-20 -6 0 -0.5772 -0.0706
-20 -6 1 -0.4158 0.7499
-20 -6 2 -1.4031 -0.0164
-20 -6 3 -0.5057 -0.3242
-20 -6 4 -1.3742 0.7741
-20 -6 5 0.5035 -0.9597
-20 -6 6 -0.2857 -1.0903
-20 -6 7 0.0211 0.1313
-20 -6 8 -1.0668 1.4358
-20 -6 9 -1.2201 -0.0713
-20 -5 -10 -0.4246 -0.3368
-20 -5 -9 0.1819 0.6010
-20 -5 -8 -0.7241 0.4631
-20 -5 -7 1.8128 -2.1949
-20 -5 -6 -0.0681 0.8263
-20 -5 -5 -1.0457 0.2850
-20 -5 -4 -1.3271 1.2839
-20 -5 -3 -1.6122 0.6342
-20 -5 -2 -0.1225 -0.9198
-20 -5 -1 -0.6694 -1.0703
-20 -5 0 -1.7123 -2.1535
-20 -5 1 -1.1730 -0.2950
-20 -5 2 -1.0262 1.9694
-20 -5 3 -0.5387 -1.5363
-20 -5 4 -0.2056 -1.0319
-20 -5 5 1.0397 -2.1997
-20 -5 6 -1.0281 -0.4906
-20 -5 7 -0.1239 1.3103
-20 -5 8 -0.7982 1.9075
-20 -5 9 -1.5904 -0.6258
-20 -4 -10 -0.2169 -1.3436
-20 -4 -9 0.1599 0.2307
-20 -4 -8 0.5111 1.4486
-20 -4 -7 -0.3159 0.9543
-20 -4 -6 0.0734 0.3890
-20 -4 -5 -1.5410 -0.1494
-20 -4 -4 -0.4903 2.5553
-20 -4 -3 -0.4843 1.9395
-20 -4 -2 0.4573 2.8049
-20 -4 -1 -0.5498 -0.3137
-20 -4 0 -1.7265 -6.2606
-20 -4 1 -1.0117 -0.5643
-20 -4 2 1.0952 3.8415
-20 -4 3 -0.3085 -1.7824
-20 -4 4 0.6621 -1.5643
-20 -4 5 0.0505 -0.3606
-20 -4 6 -0.5892 0.4317
-20 -4 7 -0.6601 1.6701
-20 -4 8 -0.1451 1.4334
-20 -4 9 -1.0857 -1.7010
-20 -3 -10 1.0438 -1.1931
-20 -3 -9 0.3775 1.1234
-20 -3 -8 -0.0885 1.2175
-20 -3 -7 -1.2260 1.3433
-20 -3 -6 0.7210 -0.2506
-20 -3 -5 -0.3331 0.4531
-20 -3 -4 1.1444 2.4762
-20 -3 -3 -0.0293 2.0419
-20 -3 -2 1.4782 3.3097
-20 -3 -1 0.4824 -2.0422
-20 -3 0 -0.9274 -6.5893
-20 -3 1 -1.0714 0.3746
-20 -3 2 2.8166 3.7133
-20 -3 3 -1.2945 -0.7525
-20 -3 4 -0.6181 -1.3992
-20 -3 5 -0.6572 -1.1187
-20 -3 6 -0.6487 0.8227
-20 -3 7 -0.7585 0.9175
-20 -3 8 0.8343 0.9266
-20 -3 9 -0.6933 -1.2347
-20 -2 -10 0.4999 0.0288
-20 -2 -9 0.6899 0.0352
-20 -2 -8 -0.6668 -3.0301
-20 -2 -7 -0.5403 0.1686
-20 -2 -6 1.0211 0.5067
-20 -2 -5 0.7343 -0.2119
-20 -2 -4 0.5427 1.5747
-20 -2 -3 -1.0940 0.4779
-20 -2 -2 1.6118 0.4721
-20 -2 -1 -0.1024 -1.9534
-20 -2 0 -0.9932 -2.5964
-20 -2 1 -0.1844 0.6094
-20 -2 2 1.2167 1.3434
-20 -2 3 -1.3725 -0.8298
-20 -2 4 -0.9156 -2.1493
-20 -2 5 -1.3216 -2.3370
-20 -2 6 -0.0192 1.7500
-20 -2 7 -0.5936 1.0201
-20 -2 8 0.9099 1.7607
-20 -2 9 -0.7041 -0.7868
-20 -2 10 0.1343 -1.4662
-20 -1 -11 0.1853 -0.1982
-20 -1 -10 -1.0983 0.1907
-20 -1 -9 0.4043 -2.1521
-20 -1 -8 -0.3026 -3.9845
-20 -1 -7 -0.4988 0.8160
-20 -1 -6 1.0101 0.5541
-20 -1 -5 0.7025 0.0190
-20 -1 -4 -0.0550 -0.1884
-20 -1 -3 -0.4482 0.0964
-20 -1 -2 0.1827 -1.2723
-20 -1 -1 -0.9172 -0.1073
-20 -1 0 0.6753 0.6259
-20 -1 1 -0.3787 -0.6289
-20 -1 2 0.9313 0.0066
-20 -1 3 0.1529 -1.0814
-20 -1 4 0.1316 -1.0647
-20 -1 5 -0.7325 -0.3753
-20 -1 6 0.9309 1.4105
-20 -1 7 -0.6731 2.0622
-20 -1 8 0.1772 1.1191
-20 -1 9 -0.1675 -1.0811
-20 -1 10 0.1980 -0.7403
-19 -17 1 -0.4293 0.3720
-19 -17 2 0.2798 -0.5856
-19 -16 -4 0.6856 0.0359
-19 -16 -3 0.2787 -0.6561
-19 -16 -2 -1.1194 0.5737
-19 -16 -1 -0.5125 0.9902
-19 -16 0 0.0015 -0.2040
-19 -16 1 -0.4203 0.0483
-19 -16 2 0.1413 0.5222
-19 -16 3 0.2692 0.0314
-19 -16 4 0.3017 0.3221
-19 -15 -5 -0.6359 0.6274
-19 -15 -4 0.0261 -0.1515
-19 -15 -3 0.1029 -1.2439
-19 -15 -2 -0.5751 -0.3795
-19 -15 -1 -0.0811 0.3254
-19 -15 0 0.4731 0.2624
-19 -15 1 -0.6908 0.7324
-19 -15 2 -0.2727 1.5289
-19 -15 3 -0.4715 0.6471
-19 -15 4 0.3112 0.2949
-19 -15 5 0.0878 -0.4775
-19 -14 -6 -0.5887 -1.0724
-19 -14 -5 0.0464 -0.2565
-19 -14 -4 -0.2968 -0.3920
-19 -14 -3 -0.1516 -1.7641
-19 -14 -2 0.7473 -0.6290
-19 -14 -1 -0.1089 -0.1544
-19 -14 0 1.0357 0.4552
-19 -14 1 -0.5115 0.7760
-19 -14 2 0.1425 1.4443
-19 -14 3 -1.0887 -0.2300
-19 -14 4 0.4515 0.5383
-19 -14 5 0.3570 0.5276
-19 -14 6 -0.1910 -1.5905
-19 -13 -6 0.1523 -0.9663
-19 -13 -5 0.0633 -0.9857
-19 -13 -4 0.1957 -0.0657
-19 -13 -3 -0.2776 -0.9901
-19 -13 -2 0.6761 -0.3223
-19 -13 -1 0.4757 -0.1180
-19 -13 0 0.6329 -0.3958
-19 -13 1 0.6873 1.1469
-19 -13 2 0.1281 0.0579
-19 -13 3 -0.7677 -1.2535
-19 -13 4 -0.5737 0.0813
-19 -13 5 0.9888 1.3450
-19 -13 6 0.3196 -2.3552
-19 -12 -7 -0.6515 0.1310
-19 -12 -6 0.1988 0.2601
-19 -12 -5 -0.3978 -1.3588
-19 -12 -4 0.4986 0.2250
-19 -12 -3 -0.7297 -0.1225
-19 -12 -2 0.1975 0.3003
-19 -12 -1 0.2620 -0.7687
-19 -12 0 -0.1175 1.0656
-19 -12 1 0.9061 0.4771
-19 -12 2 -0.1923 -1.0019
-19 -12 3 -0.9753 -1.5794
-19 -12 4 -1.2931 -1.6072
-19 -12 5 1.1521 2.8748
-19 -12 6 0.9565 -1.6055
-19 -12 7 0.0857 -1.6573
-19 -11 -8 0.0465 -1.2729
-19 -11 -7 -0.5841 -0.0848
-19 -11 -6 -0.8346 1.0549
-19 -11 -5 0.0471 -1.7917
-19 -11 -4 -0.3147 -0.1644
-19 -11 -3 -0.2510 -0.5428
-19 -11 -2 0.7631 0.7082
-19 -11 -1 -0.2886 -0.1292
-19 -11 0 -0.2082 2.0641
-19 -11 1 1.1369 -0.7193
-19 -11 2 -0.2342 -1.4519
-19 -11 3 -1.1554 -1.7483
-19 -11 4 -0.5996 -0.9862
-19 -11 5 -0.3189 2.3626
-19 -11 6 0.4552 0.2978
-19 -11 7 0.0345 -2.5415
-19 -11 8 -0.8640 -0.4231
-19 -10 -8 0.9348 -0.5163
-19 -10 -7 -0.9322 -0.7707
-19 -10 -6 -0.0256 1.5364
-19 -10 -5 -0.3532 -1.2751
-19 -10 -4 -0.3491 -0.4554
-19 -10 -3 0.6892 -2.2604
-19 -10 -2 1.0535 1.2595
-19 -10 -1 0.2488 1.5501
-19 -10 0 0.1000 0.1800
-19 -10 1 0.7674 -0.2662
-19 -10 2 0.4350 -2.2591
-19 -10 3 0.0163 0.3599
-19 -10 4 -0.7636 -1.0412
-19 -10 5 -1.1167 0.4062
-19 -10 6 0.0624 1.3620
-19 -10 7 0.0008 -1.7993
-19 -10 8 -0.6517 -0.1990
-19 -9 -9 0.8524 1.2698
-19 -9 -8 0.7272 0.1288
-19 -9 -7 0.3881 -0.4428
-19 -9 -6 -0.0748 1.9576
-19 -9 -5 -0.5793 0.7384
-19 -9 -4 0.0569 -1.0010
-19 -9 -3 0.3119 -2.8121
-19 -9 -2 0.7059 1.2752
-19 -9 -1 0.8780 1.4993
-19 -9 0 -0.8451 -0.0362
-19 -9 1 -0.4587 -0.8343
-19 -9 2 0.8382 -1.2225
-19 -9 3 0.4101 1.8001
-19 -9 4 -1.8014 -2.2594
-19 -9 5 -0.7910 0.4866
-19 -9 6 0.7597 2.2915
-19 -9 7 -0.1461 -0.2897
-19 -9 8 0.6037 0.0017
-19 -9 9 0.2956 0.4281
-19 -8 -9 -0.0630 2.4873
-19 -8 -8 0.6424 0.3445
-19 -8 -7 0.0499 0.0983
-19 -8 -6 -0.7625 1.5237
-19 -8 -5 0.2561 2.1753
-19 -8 -4 -0.8913 -0.8476
-19 -8 -3 -0.2913 -1.2921
-19 -8 -2 0.7951 -0.1679
-19 -8 -1 0.7649 0.5381
-19 -8 0 -1.0978 -0.1366
-19 -8 1 -0.2398 -0.6891
-19 -8 2 -0.3309 -0.4446
-19 -8 3 -0.1114 1.1128
-19 -8 4 -2.4041 0.7732
-19 -8 5 -1.1780 1.1262
-19 -8 6 1.0103 3.3231
-19 -8 7 -0.0486 -0.0139
-19 -8 8 0.3818 0.3621
-19 -8 9 0.3072 0.6541
-19 -7 -9 -0.1123 3.5616
-19 -7 -8 -0.0929 0.1429
-19 -7 -7 -0.2047 -1.4491
-19 -7 -6 0.2472 0.3284
-19 -7 -5 0.0063 2.6710
-19 -7 -4 -1.3827 0.3113
-19 -7 -3 -0.8842 0.6295
-19 -7 -2 0.6213 -1.2548
-19 -7 -1 0.5849 -0.8865
-19 -7 0 0.2331 -0.6898
-19 -7 1 -0.5810 0.4441
-19 -7 2 -1.1360 -0.4688
-19 -7 3 -0.4277 0.8145
-19 -7 4 -2.3469 3.6049
-19 -7 5 -1.0031 -0.1030
-19 -7 6 0.4427 1.7118
-19 -7 7 -0.3249 0.7497
-19 -7 8 -0.4982 0.5286
-19 -7 9 -0.4095 1.2326
-19 -6 -10 -0.0426 -1.0787
-19 -6 -9 0.0242 2.9048
-19 -6 -8 -1.2539 -0.8350
-19 -6 -7 2.3103 -3.4665
-19 -6 -6 -0.5979 0.5357
-19 -6 -5 -0.3307 2.2925
-19 -6 -4 -1.1528 0.9337
-19 -6 -3 -1.7234 2.0722
-19 -6 -2 0.3918 -0.5144
-19 -6 -1 -0.0642 0.0952
-19 -6 0 -0.0156 -1.5297
-19 -6 1 -1.7470 -0.1440
-19 -6 2 -1.3985 1.8106
-19 -6 3 0.0704 -1.3348
-19 -6 4 -1.3170 1.5174
-19 -6 5 0.1976 -2.3386
-19 -6 6 -0.2217 0.6867
-19 -6 7 -0.3900 1.8002
-19 -6 8 -0.4489 1.4104
-19 -6 9 -1.2068 1.0504
-19 -5 -10 -0.1826 -2.4353
-19 -5 -9 -0.4247 1.2073
-19 -5 -8 -0.2965 -0.1940
-19 -5 -7 1.3406 -2.6747
-19 -5 -6 -1.2868 1.6296
-19 -5 -5 -1.0403 0.8522
-19 -5 -4 -0.2725 1.2438
-19 -5 -3 -1.1221 2.0583
-19 -5 -2 1.0856 2.4742
-19 -5 -1 -0.2753 2.7112
-19 -5 0 0.0173 -5.2663
-19 -5 1 -1.4214 -1.0642
-19 -5 2 -0.4367 4.5986
-19 -5 3 1.3129 -3.9867
-19 -5 4 0.3609 -0.6478
-19 -5 5 -0.4455 -2.1961
-19 -5 6 -0.2181 1.8730
-19 -5 7 -0.5677 2.1839
-19 -5 8 -0.5845 1.4097
-19 -5 9 -0.3015 -0.1929
-19 -4 -10 0.2580 -2.4035
-19 -4 -9 0.3370 0.9381
-19 -4 -8 0.2583 1.5569
-19 -4 -7 -1.0768 -0.3902
-19 -4 -6 0.7118 0.8087
-19 -4 -5 -1.5645 0.2096
-19 -4 -4 1.4908 1.0686
-19 -4 -3 -0.2229 1.0123
-19 -4 -2 1.4901 3.5991
-19 -4 -1 1.2182 1.7976
-19 -4 0 0.6453 -7.7150
-19 -4 1 -0.6363 -1.7166
-19 -4 2 2.5708 6.6341
-19 -4 3 0.7220 -3.3862
-19 -4 4 1.1011 -0.3572
-19 -4 5 -1.5199 -1.1643
-19 -4 6 -0.1901 1.3090
-19 -4 7 -1.3153 2.0816
-19 -4 8 -0.1955 -0.7953
-19 -4 9 0.1654 -0.3189
-19 -4 10 -1.0387 -2.0056
-19 -3 -11 -0.3094 -0.9081
-19 -3 -10 0.8883 -0.3437
-19 -3 -9 0.4752 0.6036
-19 -3 -8 -0.1803 -0.3568
-19 -3 -7 -0.6458 0.5294
-19 -3 -6 1.5830 -0.3539
-19 -3 -5 0.6032 0.3473
-19 -3 -4 0.5487 0.2956
-19 -3 -3 -0.5017 -0.5889
-19 -3 -2 1.2230 0.7608
-19 -3 -1 0.1609 -0.4148
-19 -3 0 -0.3360 -4.8146
-19 -3 1 -0.0604 -0.7201
-19 -3 2 2.7677 5.3871
-19 -3 3 -1.3184 -0.8112
-19 -3 4 0.8027 -0.5881
-19 -3 5 -0.8841 -2.2466
-19 -3 6 -0.3560 0.5914
-19 -3 7 -0.1959 1.4493
-19 -3 8 0.2340 -1.3946
-19 -3 9 -0.4052 -0.3621
-19 -3 10 -0.1226 -0.8593
-19 -2 -11 0.4424 0.3235
-19 -2 -10 -0.1101 0.0140
-19 -2 -9 -0.1027 -2.2408
-19 -2 -8 -0.2449 -2.8197
-19 -2 -7 -0.7853 1.3423
-19 -2 -6 0.8725 0.1130
-19 -2 -5 1.5267 0.7846
-19 -2 -4 -1.1725 -1.2327
-19 -2 -3 -0.5848 -0.7135
-19 -2 -2 0.9647 -2.3422
-19 -2 -1 -3.0247 0.0470
-19 -2 0 0.4060 0.4824
-19 -2 1 1.0168 -0.6665
-19 -2 2 0.2959 1.9277
-19 -2 3 -0.5297 0.7076
-19 -2 4 0.6488 -0.7457
-19 -2 5 -0.4306 -1.2495
-19 -2 6 1.0579 1.4940
-19 -2 7 0.5818 1.8233
-19 -2 8 -0.0866 -0.5343
-19 -2 9 0.1553 -1.5743
-19 -2 10 0.7118 -0.2592
-19 -2 11 -0.3358 -0.1845
-19 -1 -11 0.0989 0.3482
-19 -1 -10 0.4564 -0.1530
-19 -1 -9 -0.0336 -3.3997
-19 -1 -8 -0.4744 -0.8819
-19 -1 -7 -0.5298 2.2355
-19 -1 -6 -0.1655 0.5156
-19 -1 -5 0.4871 0.7646
-19 -1 -4 0.8341 -1.7292
-19 -1 -3 -0.3629 0.5094
-19 -1 -2 1.0127 -3.5418
-19 -1 -1 -2.3369 1.8275
-19 -1 0 2.0473 1.7274
-19 -1 1 1.9765 -2.5299
-19 -1 2 0.9891 1.3506
-19 -1 3 1.4816 0.4628
-19 -1 4 1.1655 0.4210
-19 -1 5 0.4865 1.4439
-19 -1 6 0.9670 1.3279
-19 -1 7 0.5464 1.5086
-19 -1 8 -0.6078 -0.4716
-19 -1 9 0.4161 -1.8876
-19 -1 10 0.2024 -0.2352
-19 -1 11 0.1911 0.3327
-18 -17 -4 0.5226 0.4656
-18 -17 -3 0.3933 -0.2868
-18 -17 -2 -0.5300 0.0664
-18 -17 -1 -1.1128 1.1969
-18 -17 0 0.0926 0.0364
-18 -17 1 -0.7126 0.9534
-18 -17 2 -0.2479 0.5155
-18 -17 3 0.8062 -0.1732
-18 -17 4 0.2343 0.4859
-18 -16 -5 -0.4179 1.3027
-18 -16 -4 0.5245 0.5370
-18 -16 -3 0.0848 0.5908
-18 -16 -2 -0.2314 -0.8002
-18 -16 -1 -0.7346 0.4216
-18 -16 0 0.8587 -0.4616
-18 -16 1 -0.7877 1.1059
-18 -16 2 -0.4732 1.9274
-18 -16 3 0.0001 0.7551
-18 -16 4 0.4204 0.8323
-18 -16 5 -0.3786 -0.0542
-18 -15 -6 -0.2814 -0.5699
-18 -15 -5 -0.4601 1.2272
-18 -15 -4 0.4146 -0.5990
-18 -15 -3 -0.3488 0.2030
-18 -15 -2 0.3677 -0.5402
-18 -15 -1 -0.1108 -0.6951
-18 -15 0 0.9167 -0.6530
-18 -15 1 -0.6022 1.1361
-18 -15 2 -0.1806 2.4701
-18 -15 3 -0.5626 -0.0088
-18 -15 4 1.2491 0.7639
-18 -15 5 0.0022 1.2289
-18 -15 6 0.3971 -0.2344
-18 -14 -7 -0.1077 0.0769
-18 -14 -6 0.1461 -1.6990
-18 -14 -5 0.1215 0.3487
-18 -14 -4 0.5444 -2.0969
-18 -14 -3 -0.2930 -0.2367
-18 -14 -2 0.6787 0.2973
-18 -14 -1 0.0292 -0.6617
-18 -14 0 0.6542 -1.4640
-18 -14 1 -0.2109 1.5159
-18 -14 2 -0.0162 1.0547
-18 -14 3 -0.0328 -1.4599
-18 -14 4 0.5799 0.6387
-18 -14 5 0.9202 1.5669
-18 -14 6 0.6181 -1.5241
-18 -14 7 0.4032 0.0196
-18 -13 -7 -0.7449 -0.3258
-18 -13 -6 0.5753 -0.2022
-18 -13 -5 -0.0195 -0.8832
-18 -13 -4 0.7731 -1.9681
-18 -13 -3 -0.3736 -0.1889
-18 -13 -2 1.0613 0.2089
-18 -13 -1 -0.0236 -0.0988
-18 -13 0 0.6104 -0.6292
-18 -13 1 -0.3278 1.7771
-18 -13 2 0.1558 -0.2360
-18 -13 3 -0.8056 -1.4692
-18 -13 4 -0.2795 -0.8165
-18 -13 5 0.8018 1.7229
-18 -13 6 0.9082 -1.6764
-18 -13 7 0.7594 -0.5313
-18 -12 -8 -0.1653 -2.1844
-18 -12 -7 -1.0445 0.0605
-18 -12 -6 -0.5017 1.1727
-18 -12 -5 -0.6528 -0.6565
-18 -12 -4 0.0665 -1.4678
-18 -12 -3 -1.0570 -0.6386
-18 -12 -2 1.2837 -0.0555
-18 -12 -1 0.2607 -0.0340
-18 -12 0 -0.2527 1.7506
-18 -12 1 0.3761 0.4235
-18 -12 2 -0.1713 0.2003
-18 -12 3 -1.4994 -2.0738
-18 -12 4 -0.0396 -0.7966
-18 -12 5 -0.0388 2.0122
-18 -12 6 -0.1506 -0.5600
-18 -12 7 0.3146 -1.1450
-18 -12 8 -0.5839 -0.7818
-18 -11 -8 0.2633 -1.9050
-18 -11 -7 -1.0820 -1.3064
-18 -11 -6 -0.7884 1.6872
-18 -11 -5 -0.6224 0.7217
-18 -11 -4 -0.6397 -1.4899
-18 -11 -3 -0.8351 -1.1265
-18 -11 -2 1.3278 -0.0999
-18 -11 -1 -0.1035 0.2986
-18 -11 0 0.1141 1.0857
-18 -11 1 -0.3107 -0.3857
-18 -11 2 0.0116 0.0097
-18 -11 3 -0.5063 -1.2169
-18 -11 4 -0.3485 -0.2368
-18 -11 5 -0.3352 1.5247
-18 -11 6 -1.0405 0.1910
-18 -11 7 -0.2544 -1.0861
-18 -11 8 -1.0552 -0.4391
-18 -10 -9 1.2141 1.2759
-18 -10 -8 0.4136 -0.9281
-18 -10 -7 -0.1565 -1.9479
-18 -10 -6 0.2508 1.5390
-18 -10 -5 -0.7360 2.6722
-18 -10 -4 -0.0045 -1.3504
-18 -10 -3 -0.4119 -1.1574
-18 -10 -2 0.9396 0.9566
-18 -10 -1 0.1406 -0.1807
-18 -10 0 -0.4662 -0.1012
-18 -10 1 -1.3151 -0.9775
-18 -10 2 0.5228 0.5763
-18 -10 3 -0.0802 1.2997
-18 -10 4 -1.0579 -2.2454
-18 -10 5 -1.1129 1.3512
-18 -10 6 -0.0079 0.9115
-18 -10 7 -0.9354 -0.8951
-18 -10 8 -0.3286 0.3568
-18 -10 9 0.0792 -0.8490
-18 -9 -9 0.7494 2.5755
-18 -9 -8 1.2594 0.4226
-18 -9 -7 0.5918 -0.2308
-18 -9 -6 0.2203 -0.1934
-18 -9 -5 -0.2225 5.2477
-18 -9 -4 -0.3001 -1.9786
-18 -9 -3 -0.8446 0.4216
-18 -9 -2 0.7350 2.5792
-18 -9 -1 0.4254 -0.9572
-18 -9 0 -2.1248 -0.7413
-18 -9 1 -0.0258 -0.8518
-18 -9 2 -0.2525 1.4338
-18 -9 3 0.2927 2.3106
-18 -9 4 -2.3112 -1.3958
-18 -9 5 -1.1821 1.6090
-18 -9 6 0.1232 2.5624
-18 -9 7 -0.3969 -0.8455
-18 -9 8 -0.4218 0.4703
-18 -9 9 -0.0477 -0.7608
-18 -8 -10 0.1274 -0.3874
-18 -8 -9 0.0100 4.4431
-18 -8 -8 1.7106 2.0660
-18 -8 -7 0.1791 -0.7274
-18 -8 -6 0.8370 -1.2116
-18 -8 -5 0.5577 5.8238
-18 -8 -4 -1.3851 -1.5640
-18 -8 -3 -0.4648 2.5749
-18 -8 -2 0.8783 3.2223
-18 -8 -1 0.3622 -0.9556
-18 -8 0 -1.0083 -2.3709
-18 -8 1 -0.4947 -0.0023
-18 -8 2 -0.5412 1.2556
-18 -8 3 0.1185 3.3818
-18 -8 4 -3.0899 3.2545
-18 -8 5 -0.7933 0.7217
-18 -8 6 -0.0116 2.6799
-18 -8 7 0.0668 -0.3174
-18 -8 8 -0.5314 -0.1051
-18 -8 9 -0.4985 0.2913
-18 -7 -10 0.1744 -0.9832
-18 -7 -9 0.3116 5.5816
-18 -7 -8 -0.0830 0.3443
-18 -7 -7 1.2760 -2.0871
-18 -7 -6 0.9061 -1.5250
-18 -7 -5 -0.0617 5.5352
-18 -7 -4 -0.8218 0.1040
-18 -7 -3 -0.6940 2.9816
-18 -7 -2 1.3889 3.1160
-18 -7 -1 1.1198 1.3567
-18 -7 0 -0.2372 -3.2528
-18 -7 1 -2.1348 -1.0193
-18 -7 2 -0.8752 3.3871
-18 -7 3 -0.3500 3.3903
-18 -7 4 -2.1220 4.0989
-18 -7 5 -0.9844 -1.4398
-18 -7 6 0.3929 1.3769
-18 -7 7 -0.4318 0.1964
-18 -7 8 0.4640 0.9638
-18 -7 9 -0.9010 0.9613
-18 -6 -10 0.6946 -1.9001
-18 -6 -9 0.0627 3.4641
-18 -6 -8 -0.6890 -1.5319
-18 -6 -7 1.9897 -2.1956
-18 -6 -6 -0.9777 -0.6235
-18 -6 -5 -0.8952 4.8772
-18 -6 -4 0.0564 0.6513
-18 -6 -3 -1.6320 1.5938
-18 -6 -2 1.6435 4.0184
-18 -6 -1 1.5527 5.8659
-18 -6 0 0.2188 -4.7815
-18 -6 1 -2.4816 -2.4371
-18 -6 2 -0.3590 5.6015
-18 -6 3 1.1189 0.4444
-18 -6 4 -0.2124 1.4259
-18 -6 5 -0.5703 -1.9806
-18 -6 6 -0.4153 2.1386
-18 -6 7 -0.0022 0.9296
-18 -6 8 -0.1649 2.5000
-18 -6 9 -0.0465 0.5780
-18 -6 10 -0.3057 -2.8261
-18 -5 -10 0.2942 -3.2734
-18 -5 -9 0.4300 1.7187
-18 -5 -8 0.0916 -0.3467
-18 -5 -7 -0.1782 -1.8863
-18 -5 -6 -0.2497 1.1114
-18 -5 -5 -1.2607 1.4285
-18 -5 -4 1.6768 0.9027
-18 -5 -3 -1.3346 -0.3409
-18 -5 -2 1.0921 4.1116
-18 -5 -1 3.0637 7.3134
-18 -5 0 1.4648 -7.1771
-18 -5 1 -2.0181 -3.7480
-18 -5 2 2.4594 6.6538
-18 -5 3 2.0230 -2.5742
-18 -5 4 1.2806 1.5711
-18 -5 5 -0.6188 -0.4901
-18 -5 6 -0.3586 3.2925
-18 -5 7 -0.6270 1.5902
-18 -5 8 -0.2489 1.2671
-18 -5 9 0.7155 0.7105
-18 -5 10 -0.6743 -2.2319
-18 -4 -11 -0.4334 -0.6157
-18 -4 -10 -0.1836 -1.1455
-18 -4 -9 1.1775 1.5320
-18 -4 -8 0.0893 -0.2195
-18 -4 -7 -1.5824 -1.1752
-18 -4 -6 1.4538 -0.2718
-18 -4 -5 -0.4482 -0.7918
-18 -4 -4 1.9449 0.4625
-18 -4 -3 -0.8706 -1.6599
-18 -4 -2 0.7576 0.9056
-18 -4 -1 3.5593 4.4291
-18 -4 0 0.7370 -6.2005
-18 -4 1 -0.8240 -3.1981
-18 -4 2 3.7957 7.3498
-18 -4 3 -0.0811 -2.6542
-18 -4 4 0.8634 2.2536
-18 -4 5 -0.7606 -0.4372
-18 -4 6 -0.3941 1.4438
-18 -4 7 -0.9070 1.2301
-18 -4 8 0.7864 -0.8745
-18 -4 9 -0.0390 0.8702
-18 -4 10 -0.1332 -0.2705
-18 -3 -11 0.1927 0.2450
-18 -3 -10 0.0337 1.3156
-18 -3 -9 0.4928 -0.8835
-18 -3 -8 0.4312 -1.2937
-18 -3 -7 -1.4508 -0.5744
-18 -3 -6 0.6703 -1.6669
-18 -3 -5 0.2680 0.4077
-18 -3 -4 -1.2804 -1.7234
-18 -3 -3 -0.3496 -1.5751
-18 -3 -2 -0.4743 -2.2660
-18 -3 -1 -0.2354 1.5930
-18 -3 0 0.4491 -0.2699
-18 -3 1 0.2101 -0.7309
-18 -3 2 2.3691 4.5160
-18 -3 3 -1.3944 0.3785
-18 -3 4 0.0342 -0.2457
-18 -3 5 -0.0856 -0.9754
-18 -3 6 -0.1697 0.2590
-18 -3 7 0.3411 0.7252
-18 -3 8 -0.0194 -1.5860
-18 -3 9 -0.1354 -0.1495
-18 -3 10 0.5449 0.9030
-18 -3 11 0.2648 0.5554
-18 -2 -11 0.2528 0.8775
-18 -2 -10 -0.0345 1.1743
-18 -2 -9 0.3624 -3.4567
-18 -2 -8 0.2895 0.2565
-18 -2 -7 -1.0624 1.4443
-18 -2 -6 -0.2710 -0.1283
-18 -2 -5 -0.4484 0.5433
-18 -2 -4 -1.5724 -2.8006
-18 -2 -3 -0.2104 -0.9234
-18 -2 -2 -0.7935 -4.1475
-18 -2 -1 -3.0158 2.3507
-18 -2 0 1.9720 3.0270
-18 -2 1 1.4103 -1.9962
-18 -2 2 0.0592 1.9040
-18 -2 3 1.0418 2.6003
-18 -2 4 -0.1614 -1.3689
-18 -2 5 0.7045 1.0859
-18 -2 6 1.4625 1.7302
-18 -2 7 0.1935 -0.2403
-18 -2 8 -0.3354 -1.2990
-18 -2 9 0.1222 -1.8199
-18 -2 10 0.2253 0.4917
-18 -2 11 0.3409 1.1938
-18 -1 -11 0.5004 -0.6233
-18 -1 -10 0.4759 1.4213
-18 -1 -9 0.5724 -2.4575
-18 -1 -8 0.4787 2.4369
-18 -1 -7 -0.7291 2.6874
-18 -1 -6 -0.5400 0.3448
-18 -1 -5 0.5067 -0.4846
-18 -1 -4 0.3969 -1.7597
-18 -1 -3 0.0091 -1.4882
-18 -1 -2 0.6161 -3.8338
-18 -1 -1 -1.0872 3.2695
-18 -1 0 1.4191 -0.1798
-18 -1 1 1.7355 -3.3435
-18 -1 2 -0.3729 2.1991
-18 -1 3 1.3287 1.6017
-18 -1 4 0.3033 0.1055
-18 -1 5 0.8463 2.3223
-18 -1 6 -0.1170 1.1762
-18 -1 7 1.4950 -0.8404
-18 -1 8 -0.4354 -1.1147
-18 -1 9 0.0574 -2.0062
-18 -1 10 0.0458 0.5544
-18 -1 11 0.2391 1.3459
-17 -17 -5 -0.2378 1.0860
-17 -17 -4 0.2315 0.9923
-17 -17 -3 0.1183 0.9913
-17 -17 -2 -0.2040 0.6743
-17 -17 -1 -0.7691 0.9123
-17 -17 0 1.1348 -0.2831
-17 -16 -6 -0.2421 1.0943
-17 -16 -5 -0.0603 2.0631
-17 -16 -4 0.4677 0.4896
-17 -16 -3 -0.6614 1.1679
-17 -16 -2 -0.1120 0.4864
-17 -16 -1 -0.5174 0.3436
-17 -16 0 1.1172 -0.8436
-17 -16 1 -0.7395 1.2347
-17 -16 2 -0.0966 2.0689
-17 -16 3 -0.6090 0.5758
-17 -16 4 0.9802 0.7094
-17 -16 5 0.1099 2.1079
-17 -16 6 0.1526 1.1950
-17 -15 -7 0.3067 -0.2990
-17 -15 -6 0.0729 -0.7682
-17 -15 -5 -0.3242 1.9527
-17 -15 -4 0.6067 -1.3865
-17 -15 -3 -0.3373 0.2890
-17 -15 -2 -0.7593 0.8165
-17 -15 -1 0.2568 0.1691
-17 -15 0 0.0103 -1.9948
-17 -15 1 -0.5799 2.2233
-17 -15 2 -0.4471 1.3128
-17 -15 3 -0.1098 -1.2254
-17 -15 4 0.5368 0.1657
-17 -15 5 0.3396 2.3952
-17 -15 6 0.3564 0.1603
-17 -15 7 0.4333 0.2704
-17 -14 -7 0.1677 -1.3346
-17 -14 -6 -0.0473 -1.1086
-17 -14 -5 -0.1629 0.7116
-17 -14 -4 0.2951 -2.5253
-17 -14 -3 -0.2664 0.0335
-17 -14 -2 -0.1920 0.5750
-17 -14 -1 -0.1083 -0.2304
-17 -14 0 0.7279 -1.8496
-17 -14 1 -1.3032 2.7639
-17 -14 2 0.4719 -0.1224
-17 -14 3 -0.2167 -1.2284
-17 -14 4 -0.2218 -0.6063
-17 -14 5 0.2536 1.1390
-17 -14 6 -0.0671 -0.8412
-17 -14 7 0.8254 -0.0818
-17 -13 -8 0.3289 -0.8902
-17 -13 -7 -0.3980 -0.9322
-17 -13 -6 -0.0640 0.7587
-17 -13 -5 -0.0619 -0.6784
-17 -13 -4 -0.4190 -1.4850
-17 -13 -3 -0.4158 -0.5020
-17 -13 -2 0.4107 -0.3763
-17 -13 -1 0.1100 -0.2010
-17 -13 0 0.5836 -0.3524
-17 -13 1 -1.1474 2.2218
-17 -13 2 0.6488 0.5819
-17 -13 3 -1.1561 -1.2384
-17 -13 4 0.3059 -0.5037
-17 -13 5 0.0586 0.4067
-17 -13 6 -0.9491 -0.5771
-17 -13 7 0.6900 -0.5648
-17 -13 8 -0.4368 -1.1315
-17 -12 -8 0.1059 -1.2683
-17 -12 -7 -1.1406 -0.3956
-17 -12 -6 -0.3380 1.3414
-17 -12 -5 -0.7177 0.2834
-17 -12 -4 -0.5367 -1.4664
-17 -12 -3 -0.5669 -0.5503
-17 -12 -2 0.9113 -0.9259
-17 -12 -1 0.4091 0.0795
-17 -12 0 0.7469 -0.0792
-17 -12 1 -1.0447 0.7495
-17 -12 2 -0.0435 1.4346
-17 -12 3 -0.4536 -1.1103
-17 -12 4 0.0113 -0.0193
-17 -12 5 0.4575 1.4339
-17 -12 6 -1.6456 -0.6787
-17 -12 7 -0.2701 -0.3347
-17 -12 8 -0.2693 -1.1650
-17 -11 -9 0.6535 0.0796
-17 -11 -8 -0.6255 -1.0163
-17 -11 -7 -0.3923 -1.4737
-17 -11 -6 -0.7072 1.6313
-17 -11 -5 -0.6410 2.4187
-17 -11 -4 -0.5993 -2.4792
-17 -11 -3 -0.6731 0.1667
-17 -11 -2 1.2239 0.2381
-17 -11 -1 -0.1490 -1.0413
-17 -11 0 1.0048 -0.0301
-17 -11 1 -1.7532 -1.2754
-17 -11 2 0.4379 2.7747
-17 -11 3 0.1777 0.5181
-17 -11 4 -0.0679 -1.1273
-17 -11 5 -0.0063 1.6150
-17 -11 6 -0.5012 -0.4563
-17 -11 7 -1.1929 -0.8122
-17 -11 8 -0.1968 -0.1556
-17 -11 9 0.3824 -1.0729
-17 -10 -9 0.8558 1.0202
-17 -10 -8 0.3794 -0.4039
-17 -10 -7 0.1892 -0.7480
-17 -10 -6 0.0343 0.4477
-17 -10 -5 -0.2307 5.6234
-17 -10 -4 -0.8018 -3.5914
-17 -10 -3 -0.7694 0.5515
-17 -10 -2 0.7175 3.2975
-17 -10 -1 -0.4548 -1.8349
-17 -10 0 -1.7263 -0.5079
-17 -10 1 -0.2505 -0.8793
-17 -10 2 -0.3462 4.2634
-17 -10 3 0.4616 2.0927
-17 -10 4 -0.6135 -1.9346
-17 -10 5 -0.6107 1.3912
-17 -10 6 0.4412 0.4862
-17 -10 7 -0.3735 -1.3156
-17 -10 8 -0.5984 0.6236
-17 -10 9 0.1182 -1.5804
-17 -9 -10 -0.0814 1.2777
-17 -9 -9 0.2739 2.4971
-17 -9 -8 1.5853 2.2684
-17 -9 -7 -0.0154 -0.6079
-17 -9 -6 0.1785 -1.9300
-17 -9 -5 0.2958 8.6959
-17 -9 -4 -1.4638 -4.5875
-17 -9 -3 -0.3388 1.3322
-17 -9 -2 0.9241 5.6235
-17 -9 -1 -0.7186 -1.4082
-17 -9 0 -1.9815 -2.2997
-17 -9 1 -0.0019 -0.0479
-17 -9 2 -0.7658 4.4563
-17 -9 3 0.4326 4.6860
-17 -9 4 -2.7127 0.7566
-17 -9 5 -0.3512 2.1539
-17 -9 6 -0.2000 0.6150
-17 -9 7 0.5124 -0.7893
-17 -9 8 -0.6513 -0.0641
-17 -9 9 -0.6611 -0.7551
-17 -8 -10 0.6510 0.4043
-17 -8 -9 0.5014 6.0261
-17 -8 -8 1.3691 2.1797
-17 -8 -7 0.5394 -2.0370
-17 -8 -6 0.0943 -3.1767
-17 -8 -5 0.3822 9.0986
-17 -8 -4 -1.7589 -2.1968
-17 -8 -3 -0.0897 1.0343
-17 -8 -2 1.9022 5.1801
-17 -8 -1 -0.0027 0.8271
-17 -8 0 -0.9842 -4.1484
-17 -8 1 -1.6755 -2.0811
-17 -8 2 -0.7906 6.2241
-17 -8 3 -0.3749 8.3012
-17 -8 4 -2.8319 4.1315
-17 -8 5 -0.8815 0.4557
-17 -8 6 0.1112 0.7754
-17 -8 7 -0.4229 -1.9483
-17 -8 8 0.4120 0.3793
-17 -8 9 -1.3831 0.5994
-17 -8 10 -0.5726 -1.7411
-17 -7 -10 0.7849 -0.2079
-17 -7 -9 0.6835 7.0890
-17 -7 -8 0.5974 -1.0642
-17 -7 -7 1.4660 -1.4523
-17 -7 -6 0.3294 -3.5471
-17 -7 -5 -0.6857 8.9134
-17 -7 -4 -0.1457 1.1641
-17 -7 -3 -1.1490 -0.6352
-17 -7 -2 2.4199 3.9319
-17 -7 -1 1.0648 5.7159
-17 -7 0 -1.6124 -5.2901
-17 -7 1 -3.0017 -4.2123
-17 -7 2 -1.0342 8.0374
-17 -7 3 -0.5380 9.0387
-17 -7 4 -0.8251 3.0166
-17 -7 5 -0.9010 -1.3839
-17 -7 6 0.3252 1.3352
-17 -7 7 -0.0050 -2.5726
-17 -7 8 0.5351 2.0238
-17 -7 9 -0.7908 0.8599
-17 -7 10 -0.7579 -1.9606
-17 -6 -11 -0.6596 0.0685
-17 -6 -10 0.7259 -1.5803
-17 -6 -9 0.2170 4.8995
-17 -6 -8 0.0408 -1.1735
-17 -6 -7 1.0874 -0.8309
-17 -6 -6 -0.6158 -1.3068
-17 -6 -5 -0.6426 5.6956
-17 -6 -4 1.6332 2.0629
-17 -6 -3 -1.8087 -0.9745
-17 -6 -2 1.5985 2.7812
-17 -6 -1 3.1957 8.9247
-17 -6 0 0.2198 -5.7911
-17 -6 1 -4.1813 -6.6016
-17 -6 2 2.2579 7.0800
-17 -6 3 0.0216 4.8464
-17 -6 4 0.2188 2.1698
-17 -6 5 0.0122 0.1543
-17 -6 6 -0.2814 3.1195
-17 -6 7 0.4827 -1.1970
-17 -6 8 0.4048 2.0891
-17 -6 9 0.6890 0.6721
-17 -6 10 -0.5025 -1.4410
-17 -5 -11 -0.9713 -0.2601
-17 -5 -10 0.4026 -2.1492
-17 -5 -9 0.5679 4.3717
-17 -5 -8 0.4030 -0.4721
-17 -5 -7 -0.3251 -1.2837
-17 -5 -6 -0.5373 0.1697
-17 -5 -5 0.4677 -0.4788
-17 -5 -4 1.9877 2.0752
-17 -5 -3 -2.4032 -0.8512
-17 -5 -2 0.9998 1.0284
-17 -5 -1 4.9376 6.8680
-17 -5 0 1.6756 -6.0534
-17 -5 1 -3.1131 -6.8646
-17 -5 2 4.6084 5.1703
-17 -5 3 0.9002 -0.1729
-17 -5 4 -1.1207 4.9609
-17 -5 5 0.2597 0.9220
-17 -5 6 -0.6198 4.1927
-17 -5 7 -0.7548 -1.3596
-17 -5 8 1.4854 1.0025
-17 -5 9 0.4006 0.3252
-17 -5 10 -0.3228 0.1545
-17 -5 11 0.5048 1.1657
-17 -4 -11 -0.4935 -0.0209
-17 -4 -10 0.0852 0.4369
-17 -4 -9 0.7838 2.1308
-17 -4 -8 0.7761 -1.3435
-17 -4 -7 -0.8008 -2.2551
-17 -4 -6 0.3275 -1.6604
-17 -4 -5 0.0113 -1.7037
-17 -4 -4 0.7263 -0.4260
-17 -4 -3 -2.3153 -0.3842
-17 -4 -2 0.0889 -0.2951
-17 -4 -1 2.2806 2.7870
-17 -4 0 0.8032 -2.1884
-17 -4 1 -1.7140 -2.1773
-17 -4 2 2.9809 2.9971
-17 -4 3 0.0530 -1.4329
-17 -4 4 -2.4817 4.0027
-17 -4 5 -0.3131 -0.4422
-17 -4 6 -0.3350 1.7997
-17 -4 7 -0.5551 -1.0605
-17 -4 8 1.2744 -1.1545
-17 -4 9 -0.2916 0.4390
-17 -4 10 -0.3709 1.3297
-17 -4 11 0.6811 1.3886
-17 -3 -11 -0.9376 0.9764
-17 -3 -10 0.2615 1.5976
-17 -3 -9 0.2545 -1.8370
-17 -3 -8 0.0844 -0.6415
-17 -3 -7 -0.5450 -2.2679
-17 -3 -6 -0.7346 -0.9713
-17 -3 -5 -1.6584 -0.3586
-17 -3 -4 -0.5629 -3.9038
-17 -3 -3 -1.0903 -0.2389
-17 -3 -2 -1.4310 -1.1322
-17 -3 -1 -1.0942 1.7779
-17 -3 0 1.7783 3.5906
-17 -3 1 -0.5563 0.1650
-17 -3 2 0.4485 0.8363
-17 -3 3 -0.0872 0.2769
-17 -3 4 -2.5033 -0.7113
-17 -3 5 -0.2380 -0.4757
-17 -3 6 0.6565 1.6379
-17 -3 7 -0.4361 -0.9144
-17 -3 8 0.4615 -2.3389
-17 -3 9 -0.1913 0.2677
-17 -3 10 -0.2124 0.6321
-17 -3 11 0.3406 1.6362
-17 -2 -11 -0.2199 0.1107
-17 -2 -10 -0.1999 1.2250
-17 -2 -9 0.8191 -2.1326
-17 -2 -8 -0.0343 2.7794
-17 -2 -7 -0.6358 -0.2397
-17 -2 -6 -1.2887 0.5853
-17 -2 -5 -1.3660 -0.8901
-17 -2 -4 -0.6641 -4.9016
-17 -2 -3 -1.1918 -3.5194
-17 -2 -2 -0.6481 -1.4204
-17 -2 -1 -1.6850 2.6308
-17 -2 0 3.3591 1.1885
-17 -2 1 0.8297 -2.0303
-17 -2 2 -1.8885 1.5437
-17 -2 3 2.3847 1.2641
-17 -2 4 -2.4691 -1.7578
-17 -2 5 1.1068 1.7405
-17 -2 6 0.2703 1.9058
-17 -2 7 -0.8942 -1.5131
-17 -2 8 0.4271 -2.1568
-17 -2 9 -0.3490 -1.2219
-17 -2 10 0.1881 1.0415
-17 -2 11 -0.1485 1.8483
-17 -1 -12 -0.9415 0.0377
-17 -1 -11 0.1306 -0.2062
-17 -1 -10 -0.6013 1.1588
-17 -1 -9 0.8760 -0.3990
-17 -1 -8 0.4551 4.3938
-17 -1 -7 -0.6166 -0.2140
-17 -1 -6 -0.2664 -0.4286
-17 -1 -5 0.1310 -0.3903
-17 -1 -4 0.1029 -4.6651
-17 -1 -3 -1.7606 -4.9639
-17 -1 -2 -0.2979 -0.6298
-17 -1 -1 0.4828 1.3931
-17 -1 0 0.2954 -4.0192
-17 -1 1 0.4098 -1.6638
-17 -1 2 -2.7872 3.6351
-17 -1 3 1.1401 -0.1994
-17 -1 4 -1.4430 0.3532
-17 -1 5 0.6168 1.8449
-17 -1 6 -0.0350 -1.2616
-17 -1 7 -0.0822 0.1859
-17 -1 8 1.0002 -2.6532
-17 -1 9 -0.2512 -1.0024
-17 -1 10 0.3899 1.9356
-17 -1 11 0.3712 0.8887
-17 -1 12 0.0892 0.4388
-16 -16 -7 0.1711 -0.2940
-16 -16 -6 -0.0020 0.9220
-16 -16 -5 -0.3336 2.5521
-16 -16 -4 0.2142 0.0651
-16 -16 -3 -0.4096 -0.4835
-16 -16 -2 -1.0074 1.0038
-16 -16 -1 -0.2040 1.9813
-16 -16 0 0.0962 -2.1737
-16 -15 -7 0.1732 -1.4601
-16 -15 -6 -0.1282 -0.6729
-16 -15 -5 -1.2686 2.0200
-16 -15 -4 -0.0004 -0.7473
-16 -15 -3 -0.9409 -0.5616
-16 -15 -2 -1.4522 0.1806
-16 -15 -1 -0.2173 1.2426
-16 -15 0 -0.0851 -2.6529
-16 -15 1 -0.8222 2.9173
-16 -15 2 -0.6600 -0.3389
-16 -15 3 -0.4264 -1.2940
-16 -15 4 -0.4004 -0.1149
-16 -15 5 -0.8848 1.6504
-16 -15 6 -0.1736 0.1049
-16 -15 7 0.0083 -0.6540
-16 -14 -8 -0.1400 -0.0020
-16 -14 -7 0.3013 -2.0614
-16 -14 -6 -0.7658 -0.1107
-16 -14 -5 -0.2410 0.4051
-16 -14 -4 -0.5635 -0.1577
-16 -14 -3 -0.9354 0.0117
-16 -14 -2 -0.7206 -0.4090
-16 -14 -1 0.0932 -0.4314
-16 -14 0 0.4962 -1.5594
-16 -14 1 -0.9837 2.5608
-16 -14 2 0.4699 -0.0178
-16 -14 3 -1.2917 -1.2225
-16 -14 4 -0.2208 0.0973
-16 -14 5 -0.9127 -0.0526
-16 -14 6 -1.2163 0.1817
-16 -14 7 0.1453 -0.4504
-16 -14 8 -0.9051 -1.5945
-16 -13 -8 0.4550 0.8394
-16 -13 -7 -0.8670 -0.9871
-16 -13 -6 0.1168 0.8773
-16 -13 -5 -0.6515 -1.3626
-16 -13 -4 -0.8855 0.2559
-16 -13 -3 -0.2500 0.5741
-16 -13 -2 -0.3359 -1.0651
-16 -13 -1 0.3290 0.1948
-16 -13 0 1.1891 -1.5535
-16 -13 1 -0.7286 2.1362
-16 -13 2 0.7726 1.1353
-16 -13 3 -0.5554 -1.0642
-16 -13 4 0.4402 -0.4929
-16 -13 5 -0.2487 0.3111
-16 -13 6 -1.1555 0.0396
-16 -13 7 -0.5817 0.5987
-16 -13 8 -0.8269 -1.7115
-16 -12 -9 0.2299 -0.7499
-16 -12 -8 -0.4460 0.8649
-16 -12 -7 -0.6256 -0.0389
-16 -12 -6 0.3697 0.3600
-16 -12 -5 -1.5359 -0.8101
-16 -12 -4 0.1227 -1.8697
-16 -12 -3 -0.5746 0.9656
-16 -12 -2 0.7128 0.3443
-16 -12 -1 0.1128 -0.3800
-16 -12 0 0.9828 -0.5074
-16 -12 1 -1.2246 -0.3887
-16 -12 2 0.8942 3.4017
-16 -12 3 0.1034 -0.0475
-16 -12 4 1.2449 -1.5322
-16 -12 5 0.2016 0.7807
-16 -12 6 0.5253 -0.8644
-16 -12 7 -0.6776 0.8297
-16 -12 8 -0.0822 -0.7650
-16 -12 9 1.0770 -0.8985
-16 -11 -9 -0.1652 -0.8285
-16 -11 -8 -0.5481 0.0351
-16 -11 -7 0.0182 0.3023
-16 -11 -6 -0.5098 0.1356
-16 -11 -5 -0.4417 2.1839
-16 -11 -4 -0.5001 -4.8260
-16 -11 -3 -0.2297 0.2078
-16 -11 -2 1.5773 3.2254
-16 -11 -1 0.4724 -1.3878
-16 -11 0 -1.2511 0.3029
-16 -11 1 -0.4490 -0.8267
-16 -11 2 -0.0356 6.4587
-16 -11 3 0.0555 1.2522
-16 -11 4 0.9356 -1.2083
-16 -11 5 -0.2221 -0.4867
-16 -11 6 1.0165 -1.6321
-16 -11 7 0.8228 0.0211
-16 -11 8 -0.0744 0.5705
-16 -11 9 1.6268 -1.0016
-16 -10 -10 0.1600 1.4916
-16 -10 -9 0.2318 -0.5700
-16 -10 -8 0.4856 1.1470
-16 -10 -7 -0.4432 -0.0027
-16 -10 -6 -0.3731 -0.8369
-16 -10 -5 -0.6871 6.4175
-16 -10 -4 -1.5819 -6.7290
-16 -10 -3 -0.0636 -1.5080
-16 -10 -2 1.2442 5.2819
-16 -10 -1 0.0147 -0.8376
-16 -10 0 -1.6746 -0.8242
-16 -10 1 -0.0464 0.6680
-16 -10 2 -0.7701 7.2725
-16 -10 3 0.2539 3.9267
-16 -10 4 -0.5055 0.5153
-16 -10 5 -1.0702 1.4319
-16 -10 6 0.4169 -2.8751
-16 -10 7 1.2854 0.2599
-16 -10 8 -0.7449 0.9026
-16 -10 9 0.8711 -0.6367
-16 -10 10 1.1337 -0.5829
-16 -9 -10 0.4194 2.0012
-16 -9 -9 1.0636 2.3471
-16 -9 -8 0.6741 1.9807
-16 -9 -7 -0.0658 -1.9732
-16 -9 -6 -0.6299 -3.2395
-16 -9 -5 -0.7572 9.2397
-16 -9 -4 -1.5468 -5.2789
-16 -9 -3 -0.3021 -3.1314
-16 -9 -2 1.0034 4.6588
-16 -9 -1 -0.3422 0.1496
-16 -9 0 -0.9828 -2.6611
-16 -9 1 -1.2865 -1.9974
-16 -9 2 -1.5310 7.9095
-16 -9 3 -0.5121 8.9964
-16 -9 4 -1.4124 3.6991
-16 -9 5 -1.3050 3.4823
-16 -9 6 0.1380 -2.2190
-16 -9 7 0.4460 -1.5169
-16 -9 8 -0.5748 0.9852
-16 -9 9 -0.3720 0.7427
-16 -9 10 0.1859 -0.5840
-16 -8 -10 0.8280 1.4010
-16 -8 -9 0.6737 6.9512
-16 -8 -8 1.0970 -0.8421
-16 -8 -7 -0.3490 -2.9761
-16 -8 -6 0.1173 -4.8556
-16 -8 -5 -0.9699 9.5875
-16 -8 -4 -0.6847 0.0785
-16 -8 -3 0.3096 -4.6713
-16 -8 -2 1.2989 2.2122
-16 -8 -1 0.0750 3.3275
-16 -8 0 -1.7834 -5.4757
-16 -8 1 -2.5650 -4.2761
-16 -8 2 -2.6499 8.6621
-16 -8 3 -1.7548 13.7655
-16 -8 4 -1.3143 4.0021
-16 -8 5 -0.9194 1.2653
-16 -8 6 -0.3031 0.0068
-16 -8 7 0.4408 -4.9444
-16 -8 8 -0.2671 1.6935
-16 -8 9 -0.7351 1.4518
-16 -8 10 -0.4682 -0.4277
-16 -7 -11 0.1840 -0.0338
-16 -7 -10 0.0990 0.7611
-16 -7 -9 0.6641 8.2698
-16 -7 -8 0.6476 -2.2396
-16 -7 -7 0.0700 -1.3827
-16 -7 -6 0.6247 -3.7138
-16 -7 -5 -2.0124 7.8094
-16 -7 -4 1.1315 3.2655
-16 -7 -3 -0.1368 -3.2295
-16 -7 -2 0.6543 -0.4800
-16 -7 -1 0.7665 7.1017
-16 -7 0 -1.0855 -6.1746
-16 -7 1 -3.8879 -6.7480
-16 -7 2 0.5069 8.2299
-16 -7 3 -2.0765 11.4410
-16 -7 4 -0.0635 1.2534
-16 -7 5 -0.6896 0.2939
-16 -7 6 0.3041 1.5303
-16 -7 7 0.0891 -4.7872
-16 -7 8 -0.1133 1.4606
-16 -7 9 -0.0054 0.5702
-16 -7 10 -0.6489 0.1598
-16 -7 11 -0.2934 -0.4121
-16 -6 -11 -0.7976 -0.3621
-16 -6 -10 -0.0555 -0.4326
-16 -6 -9 0.0813 8.2458
-16 -6 -8 0.4178 -0.2620
-16 -6 -7 1.2589 -0.1089
-16 -6 -6 -0.6813 -1.0244
-16 -6 -5 0.2174 2.3584
-16 -6 -4 1.4635 2.8752
-16 -6 -3 -1.3036 0.1148
-16 -6 -2 -0.3190 -2.2110
-16 -6 -1 2.4863 6.7823
-16 -6 0 0.5198 -6.2821
-16 -6 1 -3.9980 -9.7947
-16 -6 2 4.1848 5.2263
-16 -6 3 -0.5004 3.8514
-16 -6 4 -0.9929 2.7631
-16 -6 5 0.1213 1.1768
-16 -6 6 0.5374 3.8344
-16 -6 7 -0.1121 -4.6104
-16 -6 8 0.7615 1.2155
-16 -6 9 0.8996 -1.4327
-16 -6 10 -0.7386 0.9250
-16 -6 11 -0.2727 0.5372
-16 -5 -11 -0.5234 -0.1218
-16 -5 -10 0.0685 -0.5156
-16 -5 -9 -0.4173 7.2242
-16 -5 -8 1.0260 0.0730
-16 -5 -7 0.2433 -1.3400
-16 -5 -6 -0.0455 -0.3121
-16 -5 -5 1.2842 -2.1559
-16 -5 -4 0.2702 1.2026
-16 -5 -3 -1.1790 1.4688
-16 -5 -2 -0.1293 -1.0151
-16 -5 -1 2.0144 2.5733
-16 -5 0 1.0671 -5.6409
-16 -5 1 -3.4525 -5.4625
-16 -5 2 2.9624 0.2361
-16 -5 3 0.3828 -0.5465
-16 -5 4 -3.8577 5.7705
-16 -5 5 -0.9376 -0.2179
-16 -5 6 -0.0029 3.7273
-16 -5 7 0.4895 -4.8819
-16 -5 8 1.2012 -0.1152
-16 -5 9 1.2595 -2.0432
-16 -5 10 -0.7379 1.4010
-16 -5 11 0.1864 1.5081
-16 -4 -11 -0.8320 0.3927
-16 -4 -10 0.2448 0.1975
-16 -4 -9 -0.0233 2.2385
-16 -4 -8 0.3315 -1.2206
-16 -4 -7 -0.4655 -3.5593
-16 -4 -6 0.2914 0.1746
-16 -4 -5 -1.2825 -1.6591
-16 -4 -4 -0.0125 -2.4644
-16 -4 -3 -0.6818 2.1441
-16 -4 -2 -0.2934 0.1664
-16 -4 -1 -0.9904 0.8810
-16 -4 0 1.6003 0.2302
-16 -4 1 -1.9817 0.7482
-16 -4 2 0.3361 -1.8125
-16 -4 3 -0.4454 -2.4695
-16 -4 4 -3.5291 3.6552
-16 -4 5 -2.9455 -2.3029
-16 -4 6 0.7923 2.5110
-16 -4 7 0.1227 -2.8189
-16 -4 8 0.6155 -2.3918
-16 -4 9 0.4009 0.0926
-16 -4 10 -0.5098 0.1695
-16 -4 11 0.1762 1.9447
-16 -3 -12 -0.4753 -0.3293
-16 -3 -11 -0.8491 0.3827
-16 -3 -10 -0.2103 -0.9330
-16 -3 -9 0.1744 -1.3701
-16 -3 -8 -0.2136 0.2698
-16 -3 -7 -0.1457 -4.0159
-16 -3 -6 -1.2178 1.5293
-16 -3 -5 -0.9368 -0.5236
-16 -3 -4 -0.2714 -6.1471
-16 -3 -3 -0.5468 -0.9324
-16 -3 -2 -0.4851 0.4695
-16 -3 -1 -2.1716 1.7366
-16 -3 0 3.2408 2.9467
-16 -3 1 -0.0515 0.6951
-16 -3 2 -1.3029 -0.7587
-16 -3 3 0.5250 -2.5223
-16 -3 4 -2.0662 -1.2596
-16 -3 5 -0.3572 0.0365
-16 -3 6 0.0347 2.8214
-16 -3 7 0.3127 -1.1716
-16 -3 8 -0.3550 -2.1718
-16 -3 9 -0.2143 0.6967
-16 -3 10 -0.0297 -0.1571
-16 -3 11 -0.6590 2.2217
-16 -3 12 0.4534 0.1280
-16 -2 -12 -1.6266 -0.6063
-16 -2 -11 0.3814 0.6162
-16 -2 -10 -1.5236 -1.2654
-16 -2 -9 1.2217 -0.5421
-16 -2 -8 -0.5239 3.9041
-16 -2 -7 -0.2783 -3.9857
-16 -2 -6 -0.7781 -0.0736
-16 -2 -5 0.2925 -0.0846
-16 -2 -4 -0.4367 -8.6673
-16 -2 -3 -1.0166 -6.3782
-16 -2 -2 0.0193 1.1639
-16 -2 -1 -0.5914 -0.0353
-16 -2 0 3.5722 -3.2482
-16 -2 1 -0.5311 -0.0663
-16 -2 2 -2.0390 3.5600
-16 -2 3 1.4694 -1.7062
-16 -2 4 -2.1919 -2.1820
-16 -2 5 1.6342 2.8783
-16 -2 6 -0.7017 -0.6439
-16 -2 7 -0.2004 0.7914
-16 -2 8 0.4295 -2.7285
-16 -2 9 0.2097 0.2980
-16 -2 10 0.2216 1.6284
-16 -2 11 -0.0827 1.8055
-16 -2 12 0.4066 -0.0169
-16 -1 -12 -0.7691 -0.6755
-16 -1 -11 -0.3640 0.9715
-16 -1 -10 -1.4886 -0.0448
-16 -1 -9 1.0128 0.3087
-16 -1 -8 -0.7743 3.2189
-16 -1 -7 -0.8215 -3.3193
-16 -1 -6 -0.1521 -2.2303
-16 -1 -5 -0.8758 0.1012
-16 -1 -4 0.4414 -7.0310
-16 -1 -3 -2.5228 -5.5621
-16 -1 -2 0.7817 0.4344
-16 -1 -1 0.6608 -1.6316
-16 -1 0 1.7423 -6.6776
-16 -1 1 -0.6877 2.6662
-16 -1 2 -2.0174 6.3353
-16 -1 3 -0.0074 -1.9258
-16 -1 4 -1.6931 0.1462
-16 -1 5 -0.1764 0.3307
-16 -1 6 0.9948 -2.9279
-16 -1 7 -1.0061 1.5008
-16 -1 8 1.8925 -3.0428
-16 -1 9 0.1764 0.9830
-16 -1 10 1.1194 1.4658
-16 -1 11 0.5980 1.1419
-16 -1 12 0.0019 -0.3005
-15 -15 -8 -0.9509 -0.9952
-15 -15 -7 -0.0877 -1.3052
-15 -15 -6 -1.2474 -0.1248
-15 -15 -5 -1.4047 1.1533
-15 -15 -4 -0.4025 0.5272
-15 -15 -3 -1.7555 -0.6015
-15 -15 -2 -0.5878 -0.5193
-15 -15 -1 0.2097 1.0201
-15 -15 0 -0.0263 -1.8205
-15 -14 -8 -0.4782 0.7720
-15 -14 -7 -0.2267 -1.0833
-15 -14 -6 -0.6900 0.6568
-15 -14 -5 -0.2852 -0.0802
-15 -14 -4 -1.0528 0.3558
-15 -14 -3 -1.1018 1.2809
-15 -14 -2 -0.6986 -1.2103
-15 -14 -1 0.1555 0.3257
-15 -14 0 0.7037 -0.9042
-15 -14 1 -0.0176 1.4847
-15 -14 2 0.5468 -0.3208
-15 -14 3 -1.3238 -0.1269
-15 -14 4 0.0230 -0.6104
-15 -14 5 -0.5655 0.7274
-15 -14 6 -0.9764 0.6224
-15 -14 7 -0.3453 0.3654
-15 -14 8 -1.6123 -0.9485
-15 -13 -9 0.3791 -0.0453
-15 -13 -8 -0.3999 2.1558
-15 -13 -7 -1.0264 -0.3193
-15 -13 -6 1.1188 0.2011
-15 -13 -5 -1.5907 -2.2940
-15 -13 -4 -0.0772 -0.5954
-15 -13 -3 -0.4641 1.8205
-15 -13 -2 -0.0848 -0.3688
-15 -13 -1 -0.1310 0.1435
-15 -13 0 0.8928 0.4703
-15 -13 1 -0.6653 0.6305
-15 -13 2 1.2453 1.2421
-15 -13 3 -0.8338 0.1241
-15 -13 4 0.9708 -2.8040
-15 -13 5 -0.3954 0.4724
-15 -13 6 0.8280 0.2445
-15 -13 7 -0.2070 1.5317
-15 -13 8 -0.8702 -0.0854
-15 -13 9 0.8401 -1.0156
-15 -12 -9 -0.1221 -0.8948
-15 -12 -8 -0.1662 1.3922
-15 -12 -7 -0.4506 0.7842
-15 -12 -6 0.2948 -2.3568
-15 -12 -5 -1.6135 -0.6281
-15 -12 -4 0.1143 -3.5498
-15 -12 -3 -0.5687 0.5603
-15 -12 -2 1.2645 2.2316
-15 -12 -1 1.3494 -1.2650
-15 -12 0 -1.2992 1.3672
-15 -12 1 0.3179 -0.1524
-15 -12 2 0.6316 4.9687
-15 -12 3 -0.4010 0.5290
-15 -12 4 1.0810 -2.2567
-15 -12 5 -0.0111 -1.3111
-15 -12 6 0.5891 -2.1469
-15 -12 7 1.3436 1.2957
-15 -12 8 0.0759 0.8611
-15 -12 9 0.9697 -0.5087
-15 -11 -10 1.3564 1.3276
-15 -11 -9 -0.7658 -1.9369
-15 -11 -8 1.0639 1.3137
-15 -11 -7 0.2940 0.7745
-15 -11 -6 -0.5714 -3.1991
-15 -11 -5 -0.1001 3.2731
-15 -11 -4 -1.3061 -6.8298
-15 -11 -3 -0.0818 -1.4089
-15 -11 -2 2.0349 3.5603
-15 -11 -1 0.9895 -1.7574
-15 -11 0 -1.3781 0.8506
-15 -11 1 -0.1449 1.3575
-15 -11 2 -0.5265 7.1514
-15 -11 3 0.3311 2.5051
-15 -11 4 0.3887 0.1809
-15 -11 5 -0.4275 -1.0280
-15 -11 6 -0.1746 -4.8007
-15 -11 7 2.0318 0.8745
-15 -11 8 0.1577 1.8140
-15 -11 9 0.7805 0.0546
-15 -11 10 1.2360 -0.2946
-15 -10 -10 0.0551 1.7599
-15 -10 -9 0.7750 -0.5183
-15 -10 -8 0.4003 1.4664
-15 -10 -7 0.4879 -0.3495
-15 -10 -6 -0.6769 -4.1733
-15 -10 -5 -0.6526 5.3388
-15 -10 -4 -0.7040 -6.6761
-15 -10 -3 -0.6734 -4.3467
-15 -10 -2 1.5210 3.4495
-15 -10 -1 0.2900 -1.4749
-15 -10 0 -0.4187 -0.1581
-15 -10 1 -0.5685 -0.5877
-15 -10 2 -2.3785 6.9074
-15 -10 3 0.0723 6.2975
-15 -10 4 0.4598 3.9373
-15 -10 5 -2.0547 2.5588
-15 -10 6 0.3213 -4.3470
-15 -10 7 0.6554 -0.5835
-15 -10 8 -0.0250 2.1293
-15 -10 9 0.8016 1.0748
-15 -10 10 0.7464 0.3900
-15 -9 -10 0.4739 2.0740
-15 -9 -9 0.9558 2.9911
-15 -9 -8 0.3101 -0.1718
-15 -9 -7 -0.3722 -2.4849
-15 -9 -6 -0.5813 -6.3589
-15 -9 -5 -1.1642 6.2243
-15 -9 -4 -0.1238 -3.4086
-15 -9 -3 -0.4055 -6.3696
-15 -9 -2 0.1287 2.1026
-15 -9 -1 0.4216 0.4078
-15 -9 0 -1.3804 -3.5617
-15 -9 1 -0.4444 -3.1597
-15 -9 2 -4.1392 5.9344
-15 -9 3 -0.6584 12.0645
-15 -9 4 0.0660 5.6005
-15 -9 5 -0.7446 3.9001
-15 -9 6 -1.0033 -1.7572
-15 -9 7 0.5624 -4.1360
-15 -9 8 -0.6095 1.9069
-15 -9 9 0.2352 1.9217
-15 -9 10 0.5379 0.9253
-15 -8 -11 -0.3554 0.1427
-15 -8 -10 0.1858 1.5210
-15 -8 -9 -0.0160 6.3613
-15 -8 -8 0.8484 -2.5015
-15 -8 -7 -1.0913 -2.8140
-15 -8 -6 1.0092 -5.7256
-15 -8 -5 -1.9051 5.9677
-15 -8 -4 0.9423 0.0042
-15 -8 -3 1.2576 -5.4444
-15 -8 -2 -1.0602 0.2097
-15 -8 -1 -0.7754 3.1688
-15 -8 0 -1.8281 -5.3179
-15 -8 1 -1.9715 -4.3100
-15 -8 2 -2.1342 6.2098
-15 -8 3 -1.3223 12.9910
-15 -8 4 0.0776 1.7048
-15 -8 5 0.6672 1.7618
-15 -8 6 -0.5304 0.3572
-15 -8 7 0.0463 -6.2222
-15 -8 8 -0.4933 1.5242
-15 -8 9 -0.3008 0.9685
-15 -8 10 0.0408 1.2862
-15 -8 11 -0.5788 0.2029
-15 -7 -11 -0.2899 -0.0299
-15 -7 -10 -0.9776 0.8680
-15 -7 -9 -0.3387 8.4539
-15 -7 -8 -0.1085 -2.1062
-15 -7 -7 0.7754 0.4339
-15 -7 -6 0.3527 -3.5332
-15 -7 -5 -1.4017 4.1173
-15 -7 -4 2.3909 0.7602
-15 -7 -3 0.8256 -2.4157
-15 -7 -2 -1.2952 -2.0917
-15 -7 -1 -0.4679 4.5792
-15 -7 0 -1.6930 -5.4591
-15 -7 1 -0.9190 -7.8486
-15 -7 2 0.8873 6.1018
-15 -7 3 -0.2028 4.8309
-15 -7 4 -0.1762 -1.0651
-15 -7 5 -0.1230 0.5105
-15 -7 6 1.5001 2.8281
-15 -7 7 -1.3412 -6.3266
-15 -7 8 0.3274 1.4268
-15 -7 9 0.4670 -1.5799
-15 -7 10 -0.4375 1.0208
-15 -7 11 -0.5366 0.0787
-15 -6 -11 -0.2254 0.1427
-15 -6 -10 -0.3250 0.7147
-15 -6 -9 -0.9871 9.1081
-15 -6 -8 0.4528 0.2107
-15 -6 -7 1.6586 1.4432
-15 -6 -6 -0.4449 -1.8692
-15 -6 -5 0.7670 1.2973
-15 -6 -4 0.2240 0.0905
-15 -6 -3 0.7513 -0.6031
-15 -6 -2 -1.8307 -2.5307
-15 -6 -1 1.0175 2.4085
-15 -6 0 -1.2042 -7.7498
-15 -6 1 -0.4117 -6.9795
-15 -6 2 1.8673 1.6935
-15 -6 3 0.5669 -1.1305
-15 -6 4 -1.9902 1.0400
-15 -6 5 -1.2189 0.5023
-15 -6 6 0.2849 3.1294
-15 -6 7 0.0242 -6.4963
-15 -6 8 -0.2415 0.4903
-15 -6 9 1.8825 -3.6554
-15 -6 10 -0.7113 0.7396
-15 -6 11 -0.2007 0.3044
-15 -5 -11 -0.3276 0.5091
-15 -5 -10 0.1100 0.6637
-15 -5 -9 -1.1741 6.5079
-15 -5 -8 0.8955 -0.3804
-15 -5 -7 0.0900 -1.2232
-15 -5 -6 1.2998 0.2968
-15 -5 -5 0.0275 -0.2102
-15 -5 -4 -0.6720 -0.1343
-15 -5 -3 1.9896 -0.0739
-15 -5 -2 -1.4013 -0.7279
-15 -5 -1 -0.0233 -1.1809
-15 -5 0 -0.6735 -4.7598
-15 -5 1 -1.4449 -0.4140
-15 -5 2 0.0639 -1.8665
-15 -5 3 -0.6903 -2.1074
-15 -5 4 -2.8605 3.1332
-15 -5 5 -3.2431 -2.6782
-15 -5 6 0.5206 2.0668
-15 -5 7 1.0604 -5.9873
-15 -5 8 -0.0324 -1.4673
-15 -5 9 1.2009 -2.1178
-15 -5 10 -0.7248 -0.1002
-15 -5 11 0.0291 0.7419
-15 -4 -12 0.3379 -0.1124
-15 -4 -11 -0.6739 0.0733
-15 -4 -10 -0.1219 -0.7786
-15 -4 -9 -1.4470 1.2084
-15 -4 -8 0.1201 -1.3876
-15 -4 -7 -1.0861 -2.8030
-15 -4 -6 0.3376 1.6836
-15 -4 -5 -0.3437 0.6461
-15 -4 -4 0.9438 -1.4390
-15 -4 -3 2.1648 -1.1485
-15 -4 -2 0.5203 0.1159
-15 -4 -1 -1.0202 -1.2200
-15 -4 0 0.6069 1.6456
-15 -4 1 1.1112 2.3101
-15 -4 2 -2.3329 -2.2884
-15 -4 3 -0.4175 -2.9033
-15 -4 4 -2.1314 0.0709
-15 -4 5 -2.0175 -2.9573
-15 -4 6 0.8733 2.5913
-15 -4 7 1.6465 -3.5349
-15 -4 8 -0.0136 -1.2371
-15 -4 9 -0.1830 0.5950
-15 -4 10 0.0929 -0.8352
-15 -4 11 -0.2109 1.4911
-15 -4 12 -0.8083 -0.1857
-15 -3 -12 -0.8720 -1.0659
-15 -3 -11 0.3743 0.3319
-15 -3 -10 -0.5475 -2.9659
-15 -3 -9 -0.0878 -0.6663
-15 -3 -8 -0.1921 0.6824
-15 -3 -7 -0.2312 -3.6633
-15 -3 -6 -1.0989 0.3868
-15 -3 -5 1.1303 0.7403
-15 -3 -4 -0.0321 -4.7685
-15 -3 -3 1.7575 -5.1649
-15 -3 -2 -0.4078 0.4990
-15 -3 -1 1.0561 -2.0584
-15 -3 0 2.1539 0.4769
-15 -3 1 1.5952 0.4326
-15 -3 2 -0.5681 -0.0366
-15 -3 3 0.3948 -1.7997
-15 -3 4 -0.5091 -4.4439
-15 -3 5 1.2021 2.9034
-15 -3 6 -0.7224 0.5732
-15 -3 7 1.5801 0.2051
-15 -3 8 -0.7559 -0.6880
-15 -3 9 0.2617 1.4196
-15 -3 10 -0.1639 0.3142
-15 -3 11 0.5266 2.0346
-15 -3 12 -0.5398 -0.5079
-15 -2 -12 -0.6075 -1.1486
-15 -2 -11 0.7374 0.5909
-15 -2 -10 -0.9028 -2.0571
-15 -2 -9 1.9591 0.5640
-15 -2 -8 -0.5600 1.1397
-15 -2 -7 1.2736 -4.7222
-15 -2 -6 -0.0185 -2.1678
-15 -2 -5 0.1792 -1.4590
-15 -2 -4 -0.8131 -6.5714
-15 -2 -3 -0.2578 -7.1810
-15 -2 -2 -0.7272 0.3965
-15 -2 -1 1.4303 -5.9100
-15 -2 0 1.9683 -5.1113
-15 -2 1 -0.9513 3.7209
-15 -2 2 0.7685 5.4744
-15 -2 3 0.8501 -0.5448
-15 -2 4 -0.9071 -2.8170
-15 -2 5 1.2866 1.4740
-15 -2 6 -0.1206 -1.5295
-15 -2 7 -0.8189 0.8922
-15 -2 8 1.2355 -1.6940
-15 -2 9 -0.0290 1.9199
-15 -2 10 -0.3254 1.0900
-15 -2 11 1.4105 2.0533
-15 -2 12 -0.4213 -0.9512
-15 -1 -12 -0.3976 -0.2718
-15 -1 -11 0.2173 0.0087
-15 -1 -10 -0.6350 0.0595
-15 -1 -9 0.2752 -0.1078
-15 -1 -8 0.2786 -0.4857
-15 -1 -7 -0.6771 -3.4733
-15 -1 -6 -0.0329 -2.4561
-15 -1 -5 -0.3036 -2.1971
-15 -1 -4 -1.1848 -4.0078
-15 -1 -3 -0.9443 -4.2260
-15 -1 -2 1.2494 -0.1598
-15 -1 -1 0.1465 -7.0213
-15 -1 0 2.4213 -3.8186
-15 -1 1 -0.6480 8.0836
-15 -1 2 -0.2304 5.6071
-15 -1 3 0.2755 -0.1772
-15 -1 4 -1.8494 0.0330
-15 -1 5 0.9163 -3.7536
-15 -1 6 -0.2252 -0.2019
-15 -1 7 -0.1063 -0.2182
-15 -1 8 1.6219 -1.6961
-15 -1 9 0.0303 1.8194
-15 -1 10 0.5804 0.5969
-15 -1 11 0.2954 0.9478
-15 -1 12 -0.1670 -0.5523
-14 -14 -9 0.4592 -0.0284
-14 -14 -8 -1.0914 1.1957
-14 -14 -7 -0.6456 0.2574
-14 -14 -6 0.4507 1.0233
-14 -14 -5 -0.6550 -0.7131
-14 -14 -4 -0.5164 -1.5975
-14 -14 -3 -0.8450 1.2823
-14 -14 -2 0.4728 -0.7180
-14 -14 -1 -0.4891 0.4332
-14 -14 0 1.2436 1.7123
-14 -13 -9 0.3052 0.4996
-14 -13 -8 -0.1247 1.2229
-14 -13 -7 -0.7643 0.1014
-14 -13 -6 0.8694 -1.9259
-14 -13 -5 -1.3999 -1.7189
-14 -13 -4 -0.5590 -0.9131
-14 -13 -3 -0.6726 0.1233
-14 -13 -2 0.0374 0.4527
-14 -13 -1 0.7518 -0.5502
-14 -13 0 -0.5410 2.0872
-14 -13 1 0.5772 0.1992
-14 -13 2 0.2062 1.4200
-14 -13 3 -0.4029 -0.2182
-14 -13 4 -0.2822 -1.5559
-14 -13 5 -0.2000 -1.5118
-14 -13 6 0.4485 -1.1013
-14 -13 7 0.1651 0.6903
-14 -13 8 -0.1741 0.7734
-14 -13 9 -0.1780 0.4934
-14 -12 -10 1.1549 2.0133
-14 -12 -9 -0.9190 -1.2975
-14 -12 -8 1.1543 1.3310
-14 -12 -7 -0.0923 0.2028
-14 -12 -6 -0.2091 -5.9897
-14 -12 -5 -0.3200 1.9610
-14 -12 -4 -0.5356 -2.9675
-14 -12 -3 -0.5216 -0.5172
-14 -12 -2 1.5821 0.8899
-14 -12 -1 1.1734 -2.1837
-14 -12 0 -0.5663 0.8698
-14 -12 1 0.6691 1.0067
-14 -12 2 -0.6328 4.1159
-14 -12 3 0.1651 -0.1660
-14 -12 4 -0.3264 0.3394
-14 -12 5 -0.0836 -1.5004
-14 -12 6 -0.9779 -4.7666
-14 -12 7 0.9966 0.6463
-14 -12 8 0.5992 0.7321
-14 -12 9 -0.8421 1.0017
-14 -12 10 0.8351 -0.2553
-14 -11 -10 0.4742 1.6374
-14 -11 -9 -0.5687 -0.7738
-14 -11 -8 1.9090 1.7590
-14 -11 -7 1.0479 0.3503
-14 -11 -6 -0.9097 -6.4827
-14 -11 -5 0.8030 2.5755
-14 -11 -4 -0.6125 -4.3384
-14 -11 -3 -0.9671 -1.7369
-14 -11 -2 2.1426 0.6850
-14 -11 -1 -0.2965 -3.3462
-14 -11 0 0.4621 1.2842
-14 -11 1 0.3421 -0.1610
-14 -11 2 -1.5396 4.5244
-14 -11 3 0.7392 1.5051
-14 -11 4 1.3971 3.5819
-14 -11 5 -1.3574 -0.3899
-14 -11 6 -0.5700 -4.0777
-14 -11 7 -0.1083 -0.3694
-14 -11 8 0.2340 1.1478
-14 -11 9 -0.2110 1.6637
-14 -11 10 -0.0185 0.1106
-14 -10 -10 -0.5497 1.2186
-14 -10 -9 0.5627 1.9522
-14 -10 -8 1.2064 0.9448
-14 -10 -7 1.0481 0.1635
-14 -10 -6 -0.5985 -7.1630
-14 -10 -5 0.8689 0.5381
-14 -10 -4 -0.1072 -3.6903
-14 -10 -3 -1.4502 -4.1069
-14 -10 -2 0.5940 0.9609
-14 -10 -1 -0.9975 -1.2697
-14 -10 0 -1.1028 -1.0391
-14 -10 1 0.8762 -1.9923
-14 -10 2 -3.9831 2.3881
-14 -10 3 1.2562 5.4728
-14 -10 4 2.2966 7.0828
-14 -10 5 -0.1857 1.5139
-14 -10 6 -0.0397 -1.3262
-14 -10 7 -0.2832 -2.1465
-14 -10 8 0.1715 0.5189
-14 -10 9 0.6083 2.2735
-14 -10 10 0.1405 0.8144
-14 -9 -11 -0.9896 -0.5382
-14 -9 -10 -0.0546 1.0558
-14 -9 -9 -0.3267 3.2104
-14 -9 -8 0.2255 -0.2189
-14 -9 -7 -0.0830 -1.6774
-14 -9 -6 0.2516 -6.4975
-14 -9 -5 0.3514 0.7570
-14 -9 -4 0.7408 -4.1818
-14 -9 -3 0.3260 -3.7625
-14 -9 -2 -0.1516 1.3715
-14 -9 -1 -1.5792 0.8667
-14 -9 0 -1.7009 -2.3647
-14 -9 1 -0.9300 -3.1060
-14 -9 2 -3.3010 2.9788
-14 -9 3 0.6935 9.1077
-14 -9 4 1.2494 4.8976
-14 -9 5 2.0747 2.0102
-14 -9 6 -0.3498 -0.8452
-14 -9 7 0.3522 -3.7364
-14 -9 8 0.3076 -0.0063
-14 -9 9 0.8440 1.5507
-14 -9 10 0.8668 1.6179
-14 -9 11 -0.1839 0.9851
-14 -8 -11 -0.6231 -0.1875
-14 -8 -10 -0.2368 -0.4565
-14 -8 -9 -1.2452 4.8133
-14 -8 -8 -0.1485 -2.0472
-14 -8 -7 0.4913 -0.2475
-14 -8 -6 0.3900 -3.7832
-14 -8 -5 -0.2424 1.8521
-14 -8 -4 2.1433 -3.8663
-14 -8 -3 1.2798 -2.6373
-14 -8 -2 -0.1685 1.1110
-14 -8 -1 -1.9143 1.3769
-14 -8 0 -2.0864 -1.0444
-14 -8 1 0.5527 -4.9337
-14 -8 2 -1.1121 5.5123
-14 -8 3 2.2336 4.0388
-14 -8 4 0.1534 -0.4239
-14 -8 5 1.9947 -0.2037
-14 -8 6 0.8336 1.8439
-14 -8 7 -1.2569 -4.9379
-14 -8 8 0.3604 1.1424
-14 -8 9 0.2860 -0.1503
-14 -8 10 0.5531 1.1002
-14 -8 11 -0.2403 0.7126
-14 -7 -11 -0.3430 0.2073
-14 -7 -10 -0.6127 -0.8233
-14 -7 -9 -1.1981 6.3411
-14 -7 -8 0.0658 -1.9444
-14 -7 -7 2.4355 2.8517
-14 -7 -6 -0.2603 -3.1614
-14 -7 -5 1.1225 3.4491
-14 -7 -4 1.5755 -3.1189
-14 -7 -3 0.4534 -2.6424
-14 -7 -2 -0.4917 -0.6798
-14 -7 -1 -1.7912 1.8721
-14 -7 0 -2.0941 -5.0027
-14 -7 1 2.9539 -4.4927
-14 -7 2 -0.6696 4.1245
-14 -7 3 3.4369 -3.9712
-14 -7 4 -0.5087 -2.0709
-14 -7 5 0.3323 0.2386
-14 -7 6 0.9136 3.3556
-14 -7 7 -1.6342 -4.2331
-14 -7 8 -0.3078 0.8095
-14 -7 9 0.5579 -1.9822
-14 -7 10 -0.2023 0.0076
-14 -7 11 -0.1735 -0.4003
-14 -6 -12 0.8613 -0.0586
-14 -6 -11 -0.3669 1.5249
-14 -6 -10 0.0240 0.1063
-14 -6 -9 -1.3894 6.2984
-14 -6 -8 0.1947 -1.2164
-14 -6 -7 2.2367 1.1293
-14 -6 -6 -0.0669 -1.6436
-14 -6 -5 1.6199 3.6839
-14 -6 -4 -0.0054 -1.7131
-14 -6 -3 1.2186 -2.3996
-14 -6 -2 -0.5965 -1.6803
-14 -6 -1 -0.3317 -0.6369
-14 -6 0 -1.5329 -7.1747
-14 -6 1 1.1498 -0.5370
-14 -6 2 -0.7604 3.0994
-14 -6 3 0.2207 -5.2124
-14 -6 4 -1.1531 0.1149
-14 -6 5 -2.6720 -0.6846
-14 -6 6 -0.0241 0.7849
-14 -6 7 -0.5549 -3.9306
-14 -6 8 -0.4355 -1.6732
-14 -6 9 0.9435 -2.0951
-14 -6 10 -0.9349 -0.5398
-14 -6 11 0.3422 -1.3724
-14 -6 12 -0.1369 -0.0048
-14 -5 -12 0.8193 0.8101
-14 -5 -11 -0.2134 2.0688
-14 -5 -10 0.1665 0.2858
-14 -5 -9 -2.0973 3.4321
-14 -5 -8 0.1197 -1.8455
-14 -5 -7 -0.1675 -1.0009
-14 -5 -6 0.1227 0.7420
-14 -5 -5 0.0750 2.8299
-14 -5 -4 1.7084 1.3008
-14 -5 -3 1.7337 -3.3590
-14 -5 -2 1.2922 -0.7494
-14 -5 -1 0.8782 -4.2418
-14 -5 0 -1.2588 -1.3167
-14 -5 1 2.5187 2.9977
-14 -5 2 -2.8398 2.1598
-14 -5 3 0.2900 -2.0957
-14 -5 4 -2.5871 -0.6830
-14 -5 5 -1.9713 -5.0142
-14 -5 6 0.1228 0.1241
-14 -5 7 0.3515 -5.0638
-14 -5 8 0.0633 -1.4465
-14 -5 9 -0.5706 -0.2580
-14 -5 10 -0.7112 -0.7465
-14 -5 11 0.4849 -0.8789
-14 -5 12 -0.5546 0.2032
-14 -4 -12 0.2395 0.0366
-14 -4 -11 -0.3619 1.8527
-14 -4 -10 -0.2006 -1.5563
-14 -4 -9 -1.8962 0.5928
-14 -4 -8 -0.0749 -0.5928
-14 -4 -7 -1.1574 -0.8088
-14 -4 -6 0.0002 0.0952
-14 -4 -5 0.2868 2.5309
-14 -4 -4 2.9609 1.0025
-14 -4 -3 1.7097 -5.0320
-14 -4 -2 1.3075 -1.2603
-14 -4 -1 1.5961 -5.3088
-14 -4 0 0.3666 2.4040
-14 -4 1 3.6934 -0.7000
-14 -4 2 -2.3057 0.1258
-14 -4 3 2.0582 -0.0893
-14 -4 4 -0.7110 -4.8896
-14 -4 5 1.0269 -1.5834
-14 -4 6 1.4531 -1.3558
-14 -4 7 1.2221 -1.8152
-14 -4 8 -0.4125 -0.4497
-14 -4 9 -0.3414 1.7648
-14 -4 10 -0.7299 -0.4328
-14 -4 11 0.6020 0.4881
-14 -4 12 -0.9560 -0.0233
-14 -3 -12 0.4080 -1.7727
-14 -3 -11 0.0636 1.4104
-14 -3 -10 0.1033 -3.0776
-14 -3 -9 0.3999 1.9309
-14 -3 -8 -0.5972 -0.5430
-14 -3 -7 1.3389 -1.6823
-14 -3 -6 0.0182 -1.4978
-14 -3 -5 0.4257 -0.7492
-14 -3 -4 1.0040 -1.5950
-14 -3 -3 0.4080 -5.6658
-14 -3 -2 -0.4347 -2.3625
-14 -3 -1 2.3247 -8.5748
-14 -3 0 0.4528 0.1072
-14 -3 1 0.7741 -4.0725
-14 -3 2 0.6064 2.9082
-14 -3 3 1.5934 0.3703
-14 -3 4 1.1731 -3.3360
-14 -3 5 0.5632 1.8035
-14 -3 6 2.0986 -2.9248
-14 -3 7 -0.4200 1.0505
-14 -3 8 0.6882 -1.2950
-14 -3 9 0.4768 2.8554
-14 -3 10 -0.7168 -0.1790
-14 -3 11 1.6402 1.6317
-14 -3 12 -0.7180 -0.5653
-14 -2 -12 0.5040 -1.6644
-14 -2 -11 0.5983 0.2114
-14 -2 -10 0.8036 -1.7752
-14 -2 -9 1.5212 1.4938
-14 -2 -8 0.0524 -2.1252
-14 -2 -7 2.8059 -3.4686
-14 -2 -6 -0.2937 -1.8191
-14 -2 -5 -0.3342 -3.8993
-14 -2 -4 -1.0360 -2.0455
-14 -2 -3 -1.9364 -5.5098
-14 -2 -2 0.7585 -0.7254
-14 -2 -1 0.4902 -15.1470
-14 -2 0 -0.0164 0.9618
-14 -2 1 -0.3775 4.2626
-14 -2 2 0.8552 4.7944
-14 -2 3 2.3594 1.5566
-14 -2 4 -1.6629 0.1881
-14 -2 5 0.9724 -2.9756
-14 -2 6 -0.2379 -1.0774
-14 -2 7 -1.3600 0.3175
-14 -2 8 1.6765 -2.2010
-14 -2 9 -0.6622 2.7939
-14 -2 10 0.2279 0.3817
-14 -2 11 1.3987 0.9351
-14 -2 12 -0.2622 -0.2067
-14 -1 -12 0.0421 -1.7516
-14 -1 -11 -0.0148 -0.1175
-14 -1 -10 1.3094 -0.9567
-14 -1 -9 0.1990 -1.2580
-14 -1 -8 0.5550 -0.7783
-14 -1 -7 0.7123 -3.4468
-14 -1 -6 0.8672 -0.6672
-14 -1 -5 -0.0864 -1.9369
-14 -1 -4 -0.8149 -2.0985
-14 -1 -3 -0.8848 -2.6144
-14 -1 -2 -0.8137 -0.7607
-14 -1 -1 1.8915 -12.8078
-14 -1 0 -1.1963 4.7772
-14 -1 1 0.9708 8.4696
-14 -1 2 -0.7441 1.7626
-14 -1 3 1.1416 0.5117
-14 -1 4 -0.7466 0.0487
-14 -1 5 0.9563 -3.9513
-14 -1 6 -0.0888 0.0874
-14 -1 7 -0.9792 1.5132
-14 -1 8 1.0452 -2.6628
-14 -1 9 -0.4219 2.3184
-14 -1 10 -0.8042 0.7951
-14 -1 11 0.5616 -0.3605
-14 -1 12 -0.4471 0.7875
-13 -13 -10 0.4384 1.2193
-13 -13 -9 -0.8334 0.3779
-13 -13 -8 0.2306 0.2552
-13 -13 -7 -0.4111 -0.0636
-13 -13 -6 -0.4316 -5.3753
-13 -13 -5 -1.0206 0.2662
-13 -13 -4 -0.2343 0.6562
-13 -13 -3 -0.5572 -1.2801
-13 -13 -2 0.0429 0.6798
-13 -13 -1 1.2342 -0.3502
-13 -13 0 0.2614 0.0658
-13 -12 -10 -0.0094 1.8855
-13 -12 -9 -1.0020 -0.5298
-13 -12 -8 0.8171 1.2737
-13 -12 -7 0.4843 -0.2496
-13 -12 -6 -0.5022 -6.8104
-13 -12 -5 -0.3945 2.2711
-13 -12 -4 1.6360 0.0134
-13 -12 -3 -1.7478 -1.1795
-13 -12 -2 1.1117 -1.0292
-13 -12 -1 0.0485 -2.7438
-13 -12 0 0.2087 0.6903
-13 -12 1 0.6859 -1.0869
-13 -12 2 0.1054 1.2696
-13 -12 3 -0.9156 -1.8840
-13 -12 4 2.7960 2.7715
-13 -12 5 -1.2607 0.4575
-13 -12 6 -0.7608 -4.8369
-13 -12 7 -0.1366 -0.3427
-13 -12 8 -0.7902 0.1764
-13 -12 9 -0.8946 0.8212
-13 -12 10 -0.8081 0.6636
-13 -11 -10 -0.6914 0.4055
-13 -11 -9 -0.7969 1.6942
-13 -11 -8 1.7624 1.8972
-13 -11 -7 0.6383 0.9858
-13 -11 -6 -0.5216 -5.9507
-13 -11 -5 1.5262 -0.7009
-13 -11 -4 0.9119 -0.7107
-13 -11 -3 -1.5194 -2.1010
-13 -11 -2 0.3788 -2.0894
-13 -11 -1 -1.3456 -1.2651
-13 -11 0 -1.5696 0.5926
-13 -11 1 0.4448 -0.9904
-13 -11 2 -1.2093 -0.8731
-13 -11 3 -0.5247 -0.6513
-13 -11 4 4.2019 5.4260
-13 -11 5 0.1488 -0.2628
-13 -11 6 -0.5361 -0.2822
-13 -11 7 -0.1095 -1.2313
-13 -11 8 -0.7173 0.0599
-13 -11 9 0.1908 1.2304
-13 -11 10 -0.6878 -0.1923
-13 -10 -11 -0.6482 -0.7836
-13 -10 -10 -0.7589 -0.0107
-13 -10 -9 0.4252 2.7307
-13 -10 -8 0.5612 1.7579
-13 -10 -7 0.0788 1.0328
-13 -10 -6 0.2438 -5.3979
-13 -10 -5 0.9360 -2.3721
-13 -10 -4 0.0121 -2.7542
-13 -10 -3 -0.9113 -2.4325
-13 -10 -2 0.1875 -0.6306
-13 -10 -1 -2.3039 1.1296
-13 -10 0 -1.1863 -0.0876
-13 -10 1 -1.7500 -1.3319
-13 -10 2 -1.2710 -0.8441
-13 -10 3 0.3000 3.4522
-13 -10 4 3.2024 6.1961
-13 -10 5 1.9592 0.1367
-13 -10 6 0.3010 0.4215
-13 -10 7 -0.1328 -1.8642
-13 -10 8 0.1820 -0.9991
-13 -10 9 1.3489 0.8613
-13 -10 10 0.7075 0.1997
-13 -10 11 0.3166 0.8600
-13 -9 -11 -1.4952 -1.1754
-13 -9 -10 -0.1881 -1.0566
-13 -9 -9 0.0136 1.8627
-13 -9 -8 -0.7943 0.7171
-13 -9 -7 1.0809 0.3004
-13 -9 -6 0.6944 -2.7100
-13 -9 -5 0.5664 -1.1216
-13 -9 -4 1.1314 -4.1667
-13 -9 -3 0.5715 -1.0762
-13 -9 -2 0.6701 1.0921
-13 -9 -1 -1.0356 0.4305
-13 -9 0 -1.7989 2.0849
-13 -9 1 -1.5398 -3.0118
-13 -9 2 -0.2526 3.8282
-13 -9 3 1.7452 3.2632
-13 -9 4 1.6777 2.7367
-13 -9 5 2.8418 -1.1605
-13 -9 6 1.0689 0.3399
-13 -9 7 0.4978 -2.2988
-13 -9 8 0.1134 -0.5565
-13 -9 9 1.2298 0.7520
-13 -9 10 1.1348 0.6328
-13 -9 11 -0.4374 1.0669
-13 -8 -11 -0.7760 -0.5852
-13 -8 -10 -0.6641 -2.8446
-13 -8 -9 -0.8573 2.1263
-13 -8 -8 0.0055 -0.9039
-13 -8 -7 1.8223 1.9432
-13 -8 -6 0.7408 -1.6311
-13 -8 -5 1.9925 1.6527
-13 -8 -4 1.2696 -2.9419
-13 -8 -3 1.4217 -1.0057
-13 -8 -2 0.6871 0.6384
-13 -8 -1 -1.1920 0.9427
-13 -8 0 -0.9286 -1.0868
-13 -8 1 1.4222 -1.2396
-13 -8 2 0.0274 3.8013
-13 -8 3 3.6597 -2.9183
-13 -8 4 -0.1720 -1.4412
-13 -8 5 2.9245 -0.7266
-13 -8 6 0.2486 2.7817
-13 -8 7 0.6680 -1.0547
-13 -8 8 -0.1361 0.5753
-13 -8 9 -0.0046 0.3225
-13 -8 10 1.2691 0.3709
-13 -8 11 -0.7193 0.2423
-13 -7 -12 1.1962 1.5276
-13 -7 -11 -0.2408 0.4928
-13 -7 -10 -0.8040 -2.3819
-13 -7 -9 0.0227 2.9044
-13 -7 -8 0.4151 -1.7507
-13 -7 -7 2.7348 1.9674
-13 -7 -6 0.5376 -2.7056
-13 -7 -5 2.5356 4.4862
-13 -7 -4 -0.1203 -2.1740
-13 -7 -3 -0.3826 -0.8537
-13 -7 -2 0.4772 -1.1424
-13 -7 -1 -2.6432 1.8352
-13 -7 0 1.5410 -7.5760
-13 -7 1 1.4994 2.2484
-13 -7 2 0.2348 4.0722
-13 -7 3 1.9575 -7.3633
-13 -7 4 0.0559 -0.5361
-13 -7 5 -0.9076 1.7483
-13 -7 6 0.0490 1.4485
-13 -7 7 -1.2862 1.0888
-13 -7 8 0.1935 -1.6311
-13 -7 9 -0.5857 -0.4181
-13 -7 10 0.0822 -0.0592
-13 -7 11 0.1289 -1.5868
-13 -7 12 0.0661 -0.2546
-13 -6 -12 1.3456 1.9322
-13 -6 -11 0.1681 2.6377
-13 -6 -10 -0.6748 -0.7463
-13 -6 -9 -0.3440 2.1661
-13 -6 -8 -0.0908 -2.3865
-13 -6 -7 2.5883 0.2353
-13 -6 -6 -0.2091 -1.5024
-13 -6 -5 1.8791 3.8490
-13 -6 -4 0.4635 0.0307
-13 -6 -3 -1.0032 -1.5082
-13 -6 -2 0.6804 -1.7627
-13 -6 -1 -0.1160 -0.0534
-13 -6 0 -0.5319 -7.4722
-13 -6 1 2.1247 6.3280
-13 -6 2 -1.5811 6.5645
-13 -6 3 0.3738 -4.1236
-13 -6 4 -1.0448 -0.0671
-13 -6 5 -2.3617 -1.5123
-13 -6 6 -0.4523 -1.9396
-13 -6 7 -1.4325 -1.0799
-13 -6 8 0.2600 -2.6736
-13 -6 9 -1.1161 -0.6861
-13 -6 10 -1.6743 -0.3612
-13 -6 11 0.7891 -2.1320
-13 -6 12 0.1354 0.7809
-13 -5 -12 0.3639 2.2395
-13 -5 -11 0.6639 3.6180
-13 -5 -10 -1.7245 -0.4566
-13 -5 -9 -1.1894 0.0288
-13 -5 -8 -0.9161 -0.7093
-13 -5 -7 -0.8151 0.4124
-13 -5 -6 0.4281 -0.0807
-13 -5 -5 0.4076 2.2631
-13 -5 -4 2.7215 1.7446
-13 -5 -3 0.5454 -3.2528
-13 -5 -2 1.3782 -2.7206
-13 -5 -1 1.9789 -3.0227
-13 -5 0 -0.0473 -2.0486
-13 -5 1 2.2005 3.5497
-13 -5 2 -1.9826 3.4502
-13 -5 3 1.2916 1.4940
-13 -5 4 -1.2270 -5.3823
-13 -5 5 0.2320 -3.5461
-13 -5 6 0.3318 -4.7119
-13 -5 7 0.2873 -2.4695
-13 -5 8 -0.6095 -0.8295
-13 -5 9 -0.3817 0.1278
-13 -5 10 -2.0777 -0.6150
-13 -5 11 0.7192 -1.0940
-13 -5 12 -0.1844 1.1415
-13 -4 -12 0.5389 0.2517
-13 -4 -11 0.1742 2.6976
-13 -4 -10 -1.4438 -1.8054
-13 -4 -9 -0.2241 1.3977
-13 -4 -8 -0.9685 0.3301
-13 -4 -7 -1.9750 0.9775
-13 -4 -6 1.7599 -0.3869
-13 -4 -5 -0.7285 0.5711
-13 -4 -4 2.3830 -0.0424
-13 -4 -3 -0.6754 -2.3568
-13 -4 -2 1.0387 -6.1136
-13 -4 -1 0.7200 -5.2173
-13 -4 0 2.3202 -0.0742
-13 -4 1 -0.3811 -8.5479
-13 -4 2 -0.4619 2.5353
-13 -4 3 2.2323 0.4358
-13 -4 4 2.3479 -3.3669
-13 -4 5 -0.4558 -1.0842
-13 -4 6 3.8352 -6.4491
-13 -4 7 -1.0405 -0.0345
-13 -4 8 -0.5035 -1.0942
-13 -4 9 1.1929 1.9449
-13 -4 10 -1.5506 -1.7487
-13 -4 11 0.9558 0.3996
-13 -4 12 0.0380 0.5039
-13 -3 -12 -0.1618 -1.9471
-13 -3 -11 0.3603 0.9314
-13 -3 -10 -0.3998 -1.8605
-13 -3 -9 0.9159 3.1336
-13 -3 -8 0.2791 -2.2032
-13 -3 -7 1.2061 -0.0226
-13 -3 -6 0.5464 -1.0957
-13 -3 -5 0.5481 -2.0905
-13 -3 -4 -0.5005 -0.4996
-13 -3 -3 -2.6470 -2.6267
-13 -3 -2 0.8710 -5.1226
-13 -3 -1 -0.5386 -11.5319
-13 -3 0 0.2625 0.4649
-13 -3 1 -1.8137 -8.5259
-13 -3 2 0.5923 3.4578
-13 -3 3 2.6082 0.1946
-13 -3 4 1.3196 3.0690
-13 -3 5 0.1446 -1.2829
-13 -3 6 1.9088 -5.4549
-13 -3 7 -0.6531 0.7772
-13 -3 8 -0.3252 -2.4073
-13 -3 9 0.7283 2.3916
-13 -3 10 -0.1022 -1.5410
-13 -3 11 0.6680 0.4811
-13 -3 12 0.3137 0.1456
-13 -2 -12 -0.5825 -3.1851
-13 -2 -11 0.3852 -0.4835
-13 -2 -10 -0.2207 -1.3935
-13 -2 -9 1.4225 0.0057
-13 -2 -8 0.0955 -2.1989
-13 -2 -7 2.5510 -1.9152
-13 -2 -6 -0.5629 -0.6219
-13 -2 -5 1.4984 -1.6519
-13 -2 -4 -0.7949 -1.2704
-13 -2 -3 -1.1228 -3.0635
-13 -2 -2 0.4663 -3.4957
-13 -2 -1 0.7410 -15.7896
-13 -2 0 -1.4395 7.0241
-13 -2 1 -0.7223 2.0969
-13 -2 2 1.9690 0.3950
-13 -2 3 0.7666 0.6889
-13 -2 4 -0.6588 1.3333
-13 -2 5 1.3987 -1.7678
-13 -2 6 -0.8308 -2.8558
-13 -2 7 0.8478 2.0799
-13 -2 8 -0.7258 -3.4238
-13 -2 9 0.0421 2.8892
-13 -2 10 0.1492 0.0842
-13 -2 11 0.6294 -0.3485
-13 -2 12 -0.1170 1.0692
-13 -1 -13 -1.8635 -0.3770
-13 -1 -12 0.1474 -2.9515
-13 -1 -11 -0.0163 -1.2456
-13 -1 -10 0.7614 -1.5075
-13 -1 -9 0.9707 -1.4921
-13 -1 -8 0.2770 -0.1617
-13 -1 -7 0.4474 -1.5817
-13 -1 -6 2.2055 0.8718
-13 -1 -5 0.0229 -0.3186
-13 -1 -4 1.9420 -2.1936
-13 -1 -3 -0.9950 -0.7040
-13 -1 -2 -1.1941 -6.0736
-13 -1 -1 2.3759 -5.8430
-13 -1 0 -2.5682 7.8234
-13 -1 1 0.4789 3.4884
-13 -1 2 -0.8382 -1.9925
-13 -1 3 0.0676 -2.9141
-13 -1 4 1.5096 -0.6298
-13 -1 5 -0.2626 -0.8917
-13 -1 6 0.9095 0.9303
-13 -1 7 0.0374 1.9137
-13 -1 8 -0.7438 -2.4092
-13 -1 9 0.0203 3.1712
-13 -1 10 -0.9760 0.1734
-13 -1 11 0.8606 0.4852
-13 -1 12 -0.0572 1.1696
-13 -1 13 0.4397 0.5672
-12 -12 -10 -0.5361 -0.1853
-12 -12 -9 -0.8963 0.3740
-12 -12 -8 -0.2157 1.6201
-12 -12 -7 0.0350 -0.3831
-12 -12 -6 -1.0785 -2.5989
-12 -12 -5 0.3452 0.6621
-12 -12 -4 3.7036 2.0939
-12 -12 -3 -2.1980 -2.2380
-12 -12 -2 0.1457 -3.0598
-12 -12 -1 0.0955 -0.7758
-12 -12 0 -2.5289 1.1738
-12 -11 -11 0.0332 0.1609
-12 -11 -10 -0.4625 -1.4410
-12 -11 -9 0.0953 1.0075
-12 -11 -8 0.9353 2.6389
-12 -11 -7 -1.0853 0.4122
-12 -11 -6 -0.1473 -1.9292
-12 -11 -5 0.7576 -0.2052
-12 -11 -4 0.9685 0.1098
-12 -11 -3 -1.9919 -2.0480
-12 -11 -2 -0.3617 -3.2996
-12 -11 -1 -2.2282 0.9146
-12 -11 0 -2.0255 2.3004
-12 -11 1 -2.2197 0.3892
-12 -11 2 0.1224 -3.9731
-12 -11 3 -1.8079 0.0024
-12 -11 4 3.2161 2.9680
-12 -11 5 1.4504 0.5358
-12 -11 6 -0.4188 1.3909
-12 -11 7 -0.9777 -1.7634
-12 -11 8 0.1215 1.3921
-12 -11 9 0.1689 -0.4940
-12 -11 10 0.2388 -1.6345
-12 -11 11 0.4171 0.7583
-12 -10 -11 -1.1586 -1.3261
-12 -10 -10 -0.4428 -1.1763
-12 -10 -9 1.2607 0.2519
-12 -10 -8 -0.8113 2.1344
-12 -10 -7 -0.5979 0.7040
-12 -10 -6 0.2605 -1.4248
-12 -10 -5 -0.9432 -0.1019
-12 -10 -4 0.4122 -0.4908
-12 -10 -3 -0.6047 -1.4374
-12 -10 -2 0.3989 0.1823
-12 -10 -1 0.0888 -0.5428
-12 -10 0 -1.3125 3.8960
-12 -10 1 -2.3150 -1.3155
-12 -10 2 -0.0752 0.8008
-12 -10 3 -0.5529 2.8228
-12 -10 4 1.5629 3.0934
-12 -10 5 0.7131 -1.2579
-12 -10 6 1.1821 1.6897
-12 -10 7 -0.9121 -2.5549
-12 -10 8 0.6384 -0.2268
-12 -10 9 1.3342 -0.0519
-12 -10 10 0.8857 -1.5441
-12 -10 11 0.1000 0.6839
-12 -9 -11 -1.4853 -0.9110
-12 -9 -10 -0.0141 -1.5201
-12 -9 -9 0.3316 -1.1137
-12 -9 -8 -0.5183 1.9723
-12 -9 -7 1.2167 0.9913
-12 -9 -6 -0.3785 -0.7722
-12 -9 -5 0.4690 0.9807
-12 -9 -4 0.0384 0.6970
-12 -9 -3 1.4886 -0.0051
-12 -9 -2 0.5641 0.7921
-12 -9 -1 2.2530 -0.4416
-12 -9 0 -0.9384 0.3756
-12 -9 1 0.4605 -0.1327
-12 -9 2 0.8991 2.8389
-12 -9 3 1.5038 1.1020
-12 -9 4 0.1011 -0.6675
-12 -9 5 2.1336 -1.8731
-12 -9 6 0.0498 1.4332
-12 -9 7 1.6177 -0.0636
-12 -9 8 -0.1555 -0.3268
-12 -9 9 0.4496 1.0692
-12 -9 10 1.4935 -0.1555
-12 -9 11 -0.6934 0.4237
-12 -8 -12 0.3553 1.8657
-12 -8 -11 -0.4243 -0.7928
-12 -8 -10 -0.9153 -1.9076
-12 -8 -9 0.2721 -0.4387
-12 -8 -8 0.9903 1.7080
-12 -8 -7 2.2384 0.8499
-12 -8 -6 1.1104 -1.8652
-12 -8 -5 2.1218 2.5856
-12 -8 -4 -0.4877 1.2250
-12 -8 -3 0.4258 0.5407
-12 -8 -2 -0.4251 0.3216
-12 -8 -1 -1.4147 1.3311
-12 -8 0 2.0652 -6.0908
-12 -8 1 0.4863 2.4658
-12 -8 2 2.2220 0.7076
-12 -8 3 1.2980 -2.8871
-12 -8 4 0.5536 -2.2986
-12 -8 5 1.9370 2.1549
-12 -8 6 -0.0936 1.8119
-12 -8 7 1.7124 3.3381
-12 -8 8 0.4692 -0.4485
-12 -8 9 -0.7372 0.3911
-12 -8 10 1.3895 1.0083
-12 -8 11 -0.6845 -1.0826
-12 -8 12 -0.1601 -0.5918
-12 -7 -12 1.5263 2.6748
-12 -7 -11 0.1735 -0.6246
-12 -7 -10 -1.0124 -0.6152
-12 -7 -9 0.4737 0.0698
-12 -7 -8 0.4133 -0.2130
-12 -7 -7 3.2548 1.0234
-12 -7 -6 1.1939 -2.8998
-12 -7 -5 2.1234 2.6104
-12 -7 -4 -0.4851 1.0130
-12 -7 -3 -2.0229 -0.0977
-12 -7 -2 -0.7919 -0.1553
-12 -7 -1 -1.7605 3.9093
-12 -7 0 1.0692 -11.0936
-12 -7 1 1.8939 7.6835
-12 -7 2 -0.5684 1.8619
-12 -7 3 0.8489 -2.4476
-12 -7 4 -0.5751 0.9742
-12 -7 5 -1.1254 2.9281
-12 -7 6 0.1669 0.1856
-12 -7 7 -0.7285 2.4085
-12 -7 8 1.7519 -1.8014
-12 -7 9 -1.0467 -0.7905
-12 -7 10 -0.1249 0.5664
-12 -7 11 0.5098 -2.1433
-12 -7 12 -0.1581 0.9476
-12 -6 -12 0.8753 2.9126
-12 -6 -11 1.0694 1.0836
-12 -6 -10 -1.3986 -0.1775
-12 -6 -9 0.3089 -1.8874
-12 -6 -8 -0.8395 -0.1794
-12 -6 -7 1.9930 2.2601
-12 -6 -6 0.2057 -1.5585
-12 -6 -5 1.8765 1.0915
-12 -6 -4 -0.7535 0.7441
-12 -6 -3 -0.6072 -1.0522
-12 -6 -2 -1.0393 -2.4510
-12 -6 -1 1.5541 4.2465
-12 -6 0 -0.7301 -9.4961
-12 -6 1 2.1104 10.7022
-12 -6 2 -0.7899 1.0263
-12 -6 3 0.2641 2.5093
-12 -6 4 -1.3482 -2.8344
-12 -6 5 -0.5758 0.8107
-12 -6 6 -1.5979 -4.3913
-12 -6 7 -0.0996 -0.4273
-12 -6 8 -0.1627 -0.8426
-12 -6 9 -0.7661 -1.4003
-12 -6 10 -1.9584 -0.0344
-12 -6 11 1.1560 -1.6973
-12 -6 12 -0.2625 2.5287
-12 -5 -12 0.3132 2.9329
-12 -5 -11 0.8106 0.7801
-12 -5 -10 -2.3314 -1.5866
-12 -5 -9 0.7424 -1.9694
-12 -5 -8 -1.6320 1.9098
-12 -5 -7 -1.2644 2.2817
-12 -5 -6 2.1728 1.2106
-12 -5 -5 0.3797 -0.4126
-12 -5 -4 0.8684 -0.4310
-12 -5 -3 -0.8891 -0.0211
-12 -5 -2 -0.4491 -6.0172
-12 -5 -1 0.6597 0.5022
-12 -5 0 0.8861 -2.4565
-12 -5 1 -1.3119 -1.8549
-12 -5 2 -0.5782 -0.4633
-12 -5 3 0.5761 0.9086
-12 -5 4 1.8155 -4.8854
-12 -5 5 -0.0269 -0.4815
-12 -5 6 1.2746 -6.2409
-12 -5 7 -0.5752 -1.2931
-12 -5 8 -0.9165 0.7346
-12 -5 9 0.0943 -0.6236
-12 -5 10 -2.4772 -1.7284
-12 -5 11 0.8792 -0.6806
-12 -5 12 -0.2452 2.4966
-12 -4 -12 0.0675 1.1840
-12 -4 -11 -0.1032 -1.1893
-12 -4 -10 -1.4937 -1.3772
-12 -4 -9 0.4090 0.3697
-12 -4 -8 -0.3777 0.1674
-12 -4 -7 -2.1254 1.5268
-12 -4 -6 2.5627 1.1214
-12 -4 -5 0.1582 -1.1487
-12 -4 -4 0.8637 0.0072
-12 -4 -3 -2.9484 0.6639
-12 -4 -2 0.4964 -6.4905
-12 -4 -1 -0.9000 -3.6447
-12 -4 0 1.0412 -2.0210
-12 -4 1 -3.3440 -11.7018
-12 -4 2 -3.0315 0.5081
-12 -4 3 3.2981 -2.5281
-12 -4 4 0.8235 2.9829
-12 -4 5 0.2091 -1.8026
-12 -4 6 2.6014 -5.5659
-12 -4 7 -1.7091 -1.0940
-12 -4 8 0.2725 -0.1687
-12 -4 9 0.4608 -0.0706
-12 -4 10 -1.0590 -3.0675
-12 -4 11 0.2297 -0.6788
-12 -4 12 0.2500 1.3847
-12 -3 -13 -0.1930 -0.5746
-12 -3 -12 -0.8953 -1.0211
-12 -3 -11 -0.1273 -2.0789
-12 -3 -10 -1.3010 0.0775
-12 -3 -9 1.1781 -0.0391
-12 -3 -8 0.1494 -3.0804
-12 -3 -7 0.5620 1.2557
-12 -3 -6 -0.6512 -1.3096
-12 -3 -5 2.0790 -0.0081
-12 -3 -4 -1.3797 0.3033
-12 -3 -3 0.5094 -0.9052
-12 -3 -2 -1.6409 -4.5813
-12 -3 -1 2.4411 -8.0824
-12 -3 0 -1.2184 -0.1011
-12 -3 1 -2.0240 -5.8192
-12 -3 2 1.5523 -0.1901
-12 -3 3 0.9929 -0.8605
-12 -3 4 -0.4947 3.9511
-12 -3 5 0.9417 -1.3552
-12 -3 6 -0.3332 -5.6860
-12 -3 7 0.1534 0.5144
-12 -3 8 -0.9844 -2.2681
-12 -3 9 0.4855 0.6265
-12 -3 10 -0.3933 -1.6555
-12 -3 11 0.2875 -1.3033
-12 -3 12 0.3887 0.9172
-12 -3 13 -0.0392 0.8636
-12 -2 -13 -1.4090 -1.5106
-12 -2 -12 -0.5674 -1.6480
-12 -2 -11 -0.5293 -3.5500
-12 -2 -10 -1.4490 -0.2787
-12 -2 -9 1.6623 -0.9961
-12 -2 -8 -0.7288 -2.7079
-12 -2 -7 2.3212 1.0068
-12 -2 -6 -1.5077 -0.1305
-12 -2 -5 2.5403 -0.0136
-12 -2 -4 0.4639 -1.5061
-12 -2 -3 2.0903 -1.3723
-12 -2 -2 -1.6304 -7.0847
-12 -2 -1 2.8556 -3.9924
-12 -2 0 -2.7507 6.7514
-12 -2 1 1.5277 -1.7469
-12 -2 2 2.8631 -3.6128
-12 -2 3 -0.7345 -3.0849
-12 -2 4 1.0269 -0.9069
-12 -2 5 0.6698 -1.3860
-12 -2 6 0.4577 -0.1014
-12 -2 7 0.8932 0.1166
-12 -2 8 -1.3331 -2.2478
-12 -2 9 0.1868 3.0757
-12 -2 10 -0.4264 -0.5747
-12 -2 11 0.7101 0.4799
-12 -2 12 0.0876 0.7471
-12 -2 13 0.3803 1.0550
-12 -1 -13 -1.2780 -1.8455
-12 -1 -12 0.1716 -1.2649
-12 -1 -11 1.0999 -4.0963
-12 -1 -10 -0.6290 -0.2437
-12 -1 -9 0.2713 -0.4028
-12 -1 -8 1.3198 -0.3899
-12 -1 -7 0.0566 0.5212
-12 -1 -6 1.5626 2.4533
-12 -1 -5 0.6029 -1.9636
-12 -1 -4 1.9248 -0.7227
-12 -1 -3 0.2135 -1.5475
-12 -1 -2 -0.1766 -5.8056
-12 -1 -1 0.6225 4.8262
-12 -1 0 -2.7577 4.5291
-12 -1 1 -0.5892 -2.8513
-12 -1 2 -1.7132 -6.1597
-12 -1 3 1.2066 -3.8099
-12 -1 4 0.4560 -1.5530
-12 -1 5 1.5741 -0.9721
-12 -1 6 -0.5085 4.1837
-12 -1 7 1.9662 -1.5198
-12 -1 8 -1.2781 -0.8823
-12 -1 9 -0.0481 3.2368
-12 -1 10 0.3877 -0.0027
-12 -1 11 0.4363 1.5775
-12 -1 12 0.8981 0.1338
-12 -1 13 0.7678 0.3547
-11 -11 -11 0.1862 -0.2789
-11 -11 -10 0.1993 -2.3274
-11 -11 -9 0.9982 -0.6640
-11 -11 -8 0.5113 1.4698
-11 -11 -7 -2.6226 -1.6982
-11 -11 -6 0.0226 1.4561
-11 -11 -5 -1.2776 0.4622
-11 -11 -4 0.1706 1.7053
-11 -11 -3 -1.3270 0.3512
-11 -11 -2 -0.1884 -0.2260
-11 -11 -1 -0.8408 -1.4581
-11 -11 0 -0.6895 5.5752
-11 -10 -11 -1.1836 -0.7951
-11 -10 -10 0.5195 -0.6110
-11 -10 -9 0.4264 -1.9544
-11 -10 -8 0.2637 1.8078
-11 -10 -7 -1.0169 -0.0738
-11 -10 -6 -1.1953 0.1601
-11 -10 -5 -1.4668 0.8853
-11 -10 -4 -1.1948 1.9348
-11 -10 -3 0.7386 0.6035
-11 -10 -2 0.2501 2.0157
-11 -10 -1 2.0924 -1.6490
-11 -10 0 -0.1378 1.1866
-11 -10 1 0.9190 -1.1417
-11 -10 2 -0.0025 2.8306
-11 -10 3 0.9580 2.1795
-11 -10 4 -0.9865 0.4437
-11 -10 5 -0.8318 -1.2917
-11 -10 6 0.1250 1.3373
-11 -10 7 -1.4942 -0.7087
-11 -10 8 0.7336 -0.0888
-11 -10 9 0.3409 -0.2126
-11 -10 10 0.5825 -1.1282
-11 -10 11 -0.3158 -0.3231
-11 -9 -12 0.3056 1.3033
-11 -9 -11 -0.9267 -0.3743
-11 -9 -10 0.5278 0.0625
-11 -9 -9 -0.8445 -2.0991
-11 -9 -8 0.7955 4.0033
-11 -9 -7 0.7365 0.1423
-11 -9 -6 -1.1417 -0.8640
-11 -9 -5 0.4970 1.5771
-11 -9 -4 -0.7585 2.0273
-11 -9 -3 1.3693 0.2899
-11 -9 -2 0.3870 1.4677
-11 -9 -1 0.1257 0.2087
-11 -9 0 1.0730 -4.9525
-11 -9 1 0.2377 -0.0422
-11 -9 2 1.7253 1.1095
-11 -9 3 0.4531 0.5441
-11 -9 4 0.2376 -3.8393
-11 -9 5 0.4291 1.1365
-11 -9 6 0.3930 0.2384
-11 -9 7 1.1664 3.4243
-11 -9 8 0.6378 0.3972
-11 -9 9 0.3580 -0.4090
-11 -9 10 1.4081 1.1226
-11 -9 11 -0.7177 -1.6211
-11 -9 12 0.3747 0.5690
-11 -8 -12 0.4369 2.2901
-11 -8 -11 0.5281 -2.0892
-11 -8 -10 0.2304 0.5772
-11 -8 -9 -0.7826 -0.2730
-11 -8 -8 0.9177 3.6046
-11 -8 -7 1.8572 -0.2767
-11 -8 -6 0.5467 -0.4852
-11 -8 -5 0.6814 0.7564
-11 -8 -4 -0.5897 2.7359
-11 -8 -3 -0.7777 -1.7003
-11 -8 -2 -1.5948 1.4150
-11 -8 -1 -1.4556 4.2357
-11 -8 0 0.2395 -9.0352
-11 -8 1 1.8175 3.0628
-11 -8 2 0.0578 -2.5521
-11 -8 3 0.7619 1.0057
-11 -8 4 0.3325 -1.3507
-11 -8 5 -0.0346 4.1448
-11 -8 6 0.6809 1.8688
-11 -8 7 0.6346 2.9302
-11 -8 8 1.2983 0.9563
-11 -8 9 0.4581 -1.5425
-11 -8 10 1.7800 1.2274
-11 -8 11 -0.2110 -3.3981
-11 -8 12 0.4973 1.4411
-11 -7 -12 0.5806 2.4572
-11 -7 -11 0.5237 -2.6486
-11 -7 -10 0.2148 0.9057
-11 -7 -9 -0.6343 -1.2299
-11 -7 -8 0.5285 1.7970
-11 -7 -7 2.2722 2.2143
-11 -7 -6 1.1969 -0.3527
-11 -7 -5 1.7684 0.8145
-11 -7 -4 -1.9835 1.5983
-11 -7 -3 -0.5325 -1.6020
-11 -7 -2 -1.3517 -1.2653
-11 -7 -1 -1.2403 9.2533
-11 -7 0 0.4765 -10.7978
-11 -7 1 2.0120 10.3980
-11 -7 2 -1.2996 -5.5797
-11 -7 3 1.3659 4.8216
-11 -7 4 -1.5474 0.2329
-11 -7 5 -0.0296 4.5614
-11 -7 6 -0.3272 0.1102
-11 -7 7 -0.1735 -0.0552
-11 -7 8 0.9540 0.8426
-11 -7 9 -0.2512 -1.5591
-11 -7 10 0.3995 0.4630
-11 -7 11 0.3165 -3.2813
-11 -7 12 -0.2840 3.1684
-11 -6 -12 0.6598 2.8426
-11 -6 -11 0.1400 -1.7577
-11 -6 -10 -0.2886 -2.2875
-11 -6 -9 -0.0106 -2.7033
-11 -6 -8 -0.6306 2.9103
-11 -6 -7 0.9195 3.6740
-11 -6 -6 1.2727 1.7572
-11 -6 -5 2.4424 0.8080
-11 -6 -4 -1.3193 -0.4734
-11 -6 -3 0.3787 1.3938
-11 -6 -2 0.2042 -5.0176
-11 -6 -1 -0.4898 6.7763
-11 -6 0 1.2106 -2.6840
-11 -6 1 0.1608 5.4428
-11 -6 2 -0.5745 -5.7413
-11 -6 3 -0.9799 0.1990
-11 -6 4 1.1179 -2.6901
-11 -6 5 -0.7976 3.2349
-11 -6 6 0.3236 -2.6395
-11 -6 7 -0.0178 -0.7274
-11 -6 8 -0.3834 1.6139
-11 -6 9 -0.3986 -0.5231
-11 -6 10 -1.2053 -0.1207
-11 -6 11 0.7179 -1.8366
-11 -6 12 -0.8889 4.2263
-11 -5 -12 0.9904 3.1701
-11 -5 -11 -0.1792 -3.4471
-11 -5 -10 0.1171 -4.0628
-11 -5 -9 0.3272 -2.0201
-11 -5 -8 -0.1136 3.6555
-11 -5 -7 -0.7134 1.1965
-11 -5 -6 1.8278 4.6637
-11 -5 -5 1.2149 -1.1870
-11 -5 -4 0.6462 1.4786
-11 -5 -3 -2.5348 2.9663
-11 -5 -2 0.7520 -4.6281
-11 -5 -1 -1.3271 0.6720
-11 -5 0 0.9554 3.0067
-11 -5 1 -0.9928 -5.6545
-11 -5 2 -5.0025 -4.3036
-11 -5 3 2.6478 -6.8681
-11 -5 4 0.5122 0.5665
-11 -5 5 0.0645 -0.2600
-11 -5 6 1.1390 -0.7273
-11 -5 7 -1.5250 -1.7883
-11 -5 8 0.4881 2.1084
-11 -5 9 -1.1257 -0.7675
-11 -5 10 -1.0614 -1.4116
-11 -5 11 0.3419 -1.3062
-11 -5 12 -0.5189 3.7066
-11 -4 -13 0.7923 2.2549
-11 -4 -12 0.9008 1.7229
-11 -4 -11 -0.7057 -4.0807
-11 -4 -10 0.0813 -1.5589
-11 -4 -9 0.5471 -2.0374
-11 -4 -8 1.0156 0.3487
-11 -4 -7 -0.6969 -0.1539
-11 -4 -6 1.5977 2.0537
-11 -4 -5 0.8157 -0.5461
-11 -4 -4 0.0555 2.5633
-11 -4 -3 -0.3851 3.1783
-11 -4 -2 -1.3504 -3.3470
-11 -4 -1 -0.4185 -2.7733
-11 -4 0 1.1748 -0.0222
-11 -4 1 -4.0686 -5.3363
-11 -4 2 -3.4976 -0.1720
-11 -4 3 4.0648 -5.5555
-11 -4 4 -2.4625 4.1373
-11 -4 5 0.8386 -2.5240
-11 -4 6 0.3585 -2.7411
-11 -4 7 -2.1329 -0.4644
-11 -4 8 1.0114 -0.9523
-11 -4 9 -1.0493 -1.2596
-11 -4 10 -1.5992 -1.7802
-11 -4 11 -0.0452 -2.1956
-11 -4 12 0.0299 2.6142
-11 -4 13 -0.8050 0.1415
-11 -3 -13 -0.0587 0.9594
-11 -3 -12 0.5267 1.1165
-11 -3 -11 -1.2374 -3.5966
-11 -3 -10 -0.5290 -0.0498
-11 -3 -9 0.3177 -1.9298
-11 -3 -8 -0.4140 -2.9722
-11 -3 -7 1.0956 1.3163
-11 -3 -6 -1.2965 -1.5474
-11 -3 -5 1.5738 1.1106
-11 -3 -4 0.4306 -0.9279
-11 -3 -3 3.6932 2.0723
-11 -3 -2 -2.3255 -4.6940
-11 -3 -1 2.7311 -3.1021
-11 -3 0 -2.4946 2.1473
-11 -3 1 0.7225 -3.3240
-11 -3 2 0.6811 2.0539
-11 -3 3 -0.0741 -4.4853
-11 -3 4 -0.5232 1.0422
-11 -3 5 -1.2457 -4.9810
-11 -3 6 1.0310 -3.1014
-11 -3 7 -1.0645 0.6544
-11 -3 8 0.1258 -3.7061
-11 -3 9 0.2139 0.9998
-11 -3 10 -1.3746 -1.6160
-11 -3 11 0.3499 -1.1703
-11 -3 12 0.3196 1.1929
-11 -3 13 -0.1396 1.0920
-11 -2 -13 -0.7835 -1.0733
-11 -2 -12 0.3448 0.4778
-11 -2 -11 -0.4073 -4.9495
-11 -2 -10 -0.1465 0.0150
-11 -2 -9 -0.9385 -1.0235
-11 -2 -8 -0.7211 -1.1590
-11 -2 -7 2.2052 1.1595
-11 -2 -6 -3.4184 0.9430
-11 -2 -5 2.5428 -1.3340
-11 -2 -4 0.0936 -1.6082
-11 -2 -3 1.4004 -1.8006
-11 -2 -2 0.5139 -1.4772
-11 -2 -1 -0.9205 2.2928
-11 -2 0 -2.7698 4.1210
-11 -2 1 4.5813 -7.1455
-11 -2 2 -2.2991 -5.0192
-11 -2 3 1.6873 -2.9445
-11 -2 4 -1.1240 -3.2374
-11 -2 5 0.7769 -3.9347
-11 -2 6 0.0825 1.4696
-11 -2 7 0.2458 -1.6158
-11 -2 8 -0.2685 -2.7570
-11 -2 9 0.5072 2.7596
-11 -2 10 1.0125 -0.3947
-11 -2 11 0.3819 0.6897
-11 -2 12 0.9046 -0.7520
-11 -2 13 1.0587 1.1044
-11 -1 -13 -1.1120 -1.2819
-11 -1 -12 1.2782 -1.0266
-11 -1 -11 1.0693 -3.8234
-11 -1 -10 -0.0171 0.2807
-11 -1 -9 -0.1932 -0.8191
-11 -1 -8 -0.3085 1.8668
-11 -1 -7 1.5653 -0.8766
-11 -1 -6 -0.8104 3.8319
-11 -1 -5 0.2304 -3.3821
-11 -1 -4 -0.4082 0.8713
-11 -1 -3 0.5452 -2.2603
-11 -1 -2 0.3298 3.4951
-11 -1 -1 -0.1757 6.4407
-11 -1 0 -0.5269 -1.8700
-11 -1 1 -0.4992 -8.7561
-11 -1 2 -1.9223 -6.1142
-11 -1 3 2.8512 -0.2884
-11 -1 4 -0.4684 -2.0504
-11 -1 5 1.7907 0.5457
-11 -1 6 0.1456 0.0722
-11 -1 7 -0.6325 -1.0857
-11 -1 8 -0.0258 -2.1218
-11 -1 9 0.3435 1.9175
-11 -1 10 0.7962 0.9900
-11 -1 11 0.7817 -0.0429
-11 -1 12 0.7080 -1.7641
-11 -1 13 1.0870 0.2609
-10 -10 -12 0.8904 1.3922
-10 -10 -11 -0.7305 -0.9950
-10 -10 -10 1.2611 0.7413
-10 -10 -9 -0.3210 -1.8895
-10 -10 -8 0.8590 2.2745
-10 -10 -7 -1.0221 1.7744
-10 -10 -6 -0.7580 -0.6279
-10 -10 -5 -1.3363 1.0124
-10 -10 -4 -0.7382 -1.3733
-10 -10 -3 1.1771 0.2343
-10 -10 -2 1.2006 2.3683
-10 -10 -1 -0.1528 -0.2195
-10 -10 0 1.4532 -5.3183
-10 -9 -12 0.5203 1.9284
-10 -9 -11 0.3678 -2.1676
-10 -9 -10 1.4573 0.4958
-10 -9 -9 -0.9517 -0.8134
-10 -9 -8 0.5584 3.9473
-10 -9 -7 -0.0912 0.8931
-10 -9 -6 -0.5304 0.6542
-10 -9 -5 -0.7543 1.4673
-10 -9 -4 0.0208 0.6175
-10 -9 -3 0.7601 -2.9084
-10 -9 -2 -1.6935 1.0748
-10 -9 -1 -0.3561 4.3837
-10 -9 0 -2.7573 -8.5768
-10 -9 1 0.8246 2.1061
-10 -9 2 -0.5864 -0.7896
-10 -9 3 0.6175 -0.6723
-10 -9 4 1.3725 -2.5057
-10 -9 5 -1.1543 3.5576
-10 -9 6 0.4593 0.4604
-10 -9 7 -0.2310 3.1173
-10 -9 8 0.1192 2.6085
-10 -9 9 0.6408 -2.0239
-10 -9 10 1.9620 0.8601
-10 -9 11 -0.3301 -3.7165
-10 -9 12 1.3146 2.0217
-10 -8 -12 -0.4557 2.4490
-10 -8 -11 1.4012 -3.8555
-10 -8 -10 0.4221 0.9149
-10 -8 -9 -1.3624 -0.0175
-10 -8 -8 0.0561 2.3482
-10 -8 -7 -0.0118 0.9846
-10 -8 -6 0.0150 2.5832
-10 -8 -5 0.4178 1.7988
-10 -8 -4 -1.2877 2.6032
-10 -8 -3 1.3518 -3.3767
-10 -8 -2 -1.7269 -0.6699
-10 -8 -1 -0.5428 11.6473
-10 -8 0 -1.8035 -8.6024
-10 -8 1 1.2287 7.5276
-10 -8 2 -1.9948 -6.1574
-10 -8 3 1.0048 4.6252
-10 -8 4 -0.7487 -0.7491
-10 -8 5 0.1084 6.5916
-10 -8 6 -0.6835 1.6754
-10 -8 7 -0.0638 0.1672
-10 -8 8 0.1391 2.6025
-10 -8 9 0.8051 -2.0794
-10 -8 10 2.1956 0.0337
-10 -8 11 -0.3446 -5.1826
-10 -8 12 0.6890 2.9250
-10 -7 -12 0.0411 3.3222
-10 -7 -11 0.3083 -2.5763
-10 -7 -10 0.2124 -0.8484
-10 -7 -9 -0.9897 -1.1850
-10 -7 -8 0.6088 1.9065
-10 -7 -7 -0.5514 3.5229
-10 -7 -6 1.4994 2.5168
-10 -7 -5 0.6370 3.5189
-10 -7 -4 -1.3214 1.1391
-10 -7 -3 1.6279 0.4942
-10 -7 -2 1.7055 -2.6343
-10 -7 -1 -1.7866 12.2294
-10 -7 0 2.8350 -0.9352
-10 -7 1 0.0436 7.1382
-10 -7 2 -0.2386 -7.1435
-10 -7 3 -0.6334 1.9625
-10 -7 4 0.5296 -2.0525
-10 -7 5 -1.1876 6.6870
-10 -7 6 0.7828 -0.5050
-10 -7 7 -1.1781 -0.8835
-10 -7 8 0.0541 2.4070
-10 -7 9 0.0184 -0.0967
-10 -7 10 0.6226 0.5206
-10 -7 11 -0.0148 -3.3433
-10 -7 12 -0.2053 4.4203
-10 -6 -13 1.5865 3.5370
-10 -6 -12 0.6940 4.0900
-10 -6 -11 -0.2594 -2.1218
-10 -6 -10 0.8902 -4.6611
-10 -6 -9 -0.8434 -1.1111
-10 -6 -8 1.4599 3.8494
-10 -6 -7 0.2776 3.0707
-10 -6 -6 1.7576 4.1067
-10 -6 -5 1.5725 1.8381
-10 -6 -4 0.1373 2.9267
-10 -6 -3 0.5441 3.7598
-10 -6 -2 0.8083 -2.8167
-10 -6 -1 -0.6610 7.9553
-10 -6 0 0.6527 6.6856
-10 -6 1 1.8118 1.5576
-10 -6 2 -4.0343 -6.7071
-10 -6 3 0.2830 -9.0333
-10 -6 4 2.9637 -1.8222
-10 -6 5 -1.2210 3.2280
-10 -6 6 2.3231 0.3455
-10 -6 7 -0.6786 -0.6877
-10 -6 8 -0.0875 2.9080
-10 -6 9 -0.5480 0.4596
-10 -6 10 -0.3834 1.7324
-10 -6 11 0.0593 -1.2321
-10 -6 12 -0.6922 5.2260
-10 -6 13 -1.0541 -1.0866
-10 -5 -13 2.4086 4.8445
-10 -5 -12 1.6050 3.0588
-10 -5 -11 0.7518 -3.6428
-10 -5 -10 0.8674 -4.2869
-10 -5 -9 -0.1123 -0.9281
-10 -5 -8 1.6849 3.4650
-10 -5 -7 0.2673 -0.2446
-10 -5 -6 1.5918 5.4721
-10 -5 -5 1.5130 -1.0810
-10 -5 -4 -0.2330 6.1038
-10 -5 -3 1.6656 5.4276
-10 -5 -2 -0.6903 -2.4195
-10 -5 -1 -0.6643 2.8143
-10 -5 0 2.6778 7.1179
-10 -5 1 -2.6906 0.1695
-10 -5 2 -5.3079 -2.7844
-10 -5 3 2.9837 -8.4206
-10 -5 4 -0.0555 -0.2942
-10 -5 5 0.1058 0.9891
-10 -5 6 0.4585 0.5599
-10 -5 7 -0.3010 -1.2279
-10 -5 8 0.2823 1.9078
-10 -5 9 -0.4484 -1.7742
-10 -5 10 -1.1511 1.7968
-10 -5 11 -0.0627 -1.1095
-10 -5 12 -0.4400 4.8180
-10 -5 13 -0.7400 -0.9923
-10 -4 -13 1.6583 4.2978
-10 -4 -12 1.9589 2.1938
-10 -4 -11 0.7346 -3.0562
-10 -4 -10 1.1602 -1.7442
-10 -4 -9 0.3800 -1.2494
-10 -4 -8 1.1609 -0.3649
-10 -4 -7 -0.7052 -0.5102
-10 -4 -6 1.8469 2.1624
-10 -4 -5 -1.4949 -0.5399
-10 -4 -4 0.8282 2.6042
-10 -4 -3 3.5480 6.4392
-10 -4 -2 -0.3675 -6.1610
-10 -4 -1 0.9520 -1.3914
-10 -4 0 2.2466 4.9031
-10 -4 1 -2.9267 1.4446
-10 -4 2 -0.9760 6.6646
-10 -4 3 1.6436 -4.7660
-10 -4 4 -0.5889 1.2041
-10 -4 5 -2.4382 -4.4879
-10 -4 6 0.4830 -1.8723
-10 -4 7 -1.6679 -0.1513
-10 -4 8 -0.0285 -2.1210
-10 -4 9 -0.2629 -1.3208
-10 -4 10 -2.2203 -0.3141
-10 -4 11 0.2886 -0.7212
-10 -4 12 0.2385 3.4094
-10 -4 13 0.2119 0.0823
-10 -3 -13 0.5957 2.7190
-10 -3 -12 0.2781 1.9861
-10 -3 -11 0.1160 -3.0590
-10 -3 -10 1.8412 -0.5270
-10 -3 -9 -2.0320 -1.4784
-10 -3 -8 0.7765 -1.2501
-10 -3 -7 0.1451 0.9479
-10 -3 -6 -0.6775 -0.9864
-10 -3 -5 -0.3696 0.3891
-10 -3 -4 0.7843 -1.8251
-10 -3 -3 1.9137 2.6919
-10 -3 -2 -0.9656 -3.7106
-10 -3 -1 0.6721 -2.2115
-10 -3 0 -3.8532 2.1875
-10 -3 1 4.5695 -0.6439
-10 -3 2 -2.3330 2.7441
-10 -3 3 0.2741 -1.5960
-10 -3 4 -0.1694 -1.6117
-10 -3 5 -1.6232 -7.8793
-10 -3 6 -0.2331 -1.0100
-10 -3 7 0.2874 -0.7293
-10 -3 8 -1.1445 -3.4008
-10 -3 9 0.4482 0.0705
-10 -3 10 -0.1542 -1.1973
-10 -3 11 -0.0466 0.0545
-10 -3 12 0.8720 0.3738
-10 -3 13 1.2945 1.0162
-10 -2 -13 -0.1990 1.3387
-10 -2 -12 -0.1560 -0.3750
-10 -2 -11 0.3438 -3.9103
-10 -2 -10 0.7786 -0.3126
-10 -2 -9 -2.2286 -1.1712
-10 -2 -8 -0.5782 1.2262
-10 -2 -7 1.9626 0.0024
-10 -2 -6 -3.2440 1.3606
-10 -2 -5 3.3219 -1.6218
-10 -2 -4 -3.3757 -0.4660
-10 -2 -3 1.1412 0.7218
-10 -2 -2 -2.5137 5.8491
-10 -2 -1 -2.9655 1.4088
-10 -2 0 0.5718 -4.8595
-10 -2 1 1.3363 -10.5260
-10 -2 2 -2.5162 -3.7672
-10 -2 3 -0.1429 3.0179
-10 -2 4 -1.2911 -4.2760
-10 -2 5 0.8501 -1.2609
-10 -2 6 -0.8844 -2.0459
-10 -2 7 1.0707 -2.2493
-10 -2 8 -0.7180 -2.1477
-10 -2 9 2.0864 0.0048
-10 -2 10 1.3483 0.0225
-10 -2 11 0.3777 -0.9542
-10 -2 12 0.3581 -3.3891
-10 -2 13 1.7899 0.8292
-10 -1 -13 -0.8011 0.4938
-10 -1 -12 1.6018 -1.5823
-10 -1 -11 -0.2387 -2.6439
-10 -1 -10 0.6053 -0.2267
-10 -1 -9 -0.2412 -0.4400
-10 -1 -8 -1.6628 1.2361
-10 -1 -7 1.3541 -0.7831
-10 -1 -6 -0.9451 3.6191
-10 -1 -5 0.6126 -4.6321
-10 -1 -4 -0.1995 3.9176
-10 -1 -3 0.1293 1.3177
-10 -1 -2 0.4376 6.3251
-10 -1 -1 -2.1999 4.7090
-10 -1 0 6.9676 -15.0198
-10 -1 1 0.9430 -10.2905
-10 -1 2 0.2518 0.0194
-10 -1 3 2.7626 1.4309
-10 -1 4 0.3372 0.4807
-10 -1 5 0.1001 0.5314
-10 -1 6 1.3044 -2.6324
-10 -1 7 -1.1997 -2.7322
-10 -1 8 0.0044 -0.9533
-10 -1 9 1.6696 0.5386
-10 -1 10 0.2281 -0.4435
-10 -1 11 0.6034 -1.6140
-10 -1 12 -1.0914 -4.3156
-10 -1 13 0.6885 0.2484
-9 -9 -12 0.2242 2.7082
-9 -9 -11 1.0922 -4.8908
-9 -9 -10 1.3429 -0.0318
-9 -9 -9 -0.0752 -1.3127
-9 -9 -8 -0.8682 2.1767
-9 -9 -7 -0.6239 1.2491
-9 -9 -6 -2.0167 1.8072
-9 -9 -5 -0.2346 5.4397
-9 -9 -4 -0.4406 0.1532
-9 -9 -3 1.1902 -0.5361
-9 -9 -2 -2.4606 -2.2462
-9 -9 -1 1.6334 10.0247
-9 -9 0 -5.3581 -7.9746
-9 -8 -12 -0.6140 4.7100
-9 -8 -11 0.9585 -3.0835
-9 -8 -10 -0.7257 0.1984
-9 -8 -9 -0.6353 -1.2072
-9 -8 -8 -0.5084 0.5593
-9 -8 -7 -0.8929 1.7710
-9 -8 -6 -0.9740 1.9139
-9 -8 -5 -0.4249 5.9597
-9 -8 -4 -0.3024 0.5624
-9 -8 -3 0.8423 -0.1085
-9 -8 -2 0.4472 1.4599
-9 -8 -1 -0.4347 11.1476
-9 -8 0 -1.8783 2.6761
-9 -8 1 -0.0040 7.5566
-9 -8 2 -0.4426 -1.4330
-9 -8 3 0.0875 2.5711
-9 -8 4 -0.3086 -2.7466
-9 -8 5 0.2975 8.1411
-9 -8 6 -1.8680 -0.0228
-9 -8 7 -0.9057 -0.3100
-9 -8 8 -0.6525 1.7340
-9 -8 9 -0.3313 -1.1832
-9 -8 10 0.3499 0.0557
-9 -8 11 0.0821 -3.7981
-9 -8 12 0.1269 4.6611
-9 -7 -13 0.7538 4.0381
-9 -7 -12 0.1590 6.9506
-9 -7 -11 -0.3212 0.0014
-9 -7 -10 -0.2660 -1.3672
-9 -7 -9 -1.7065 -1.6241
-9 -7 -8 0.8540 1.8720
-9 -7 -7 -0.4653 3.0941
-9 -7 -6 1.4966 1.2745
-9 -7 -5 -1.0810 3.9885
-9 -7 -4 1.5309 2.0209
-9 -7 -3 1.0377 1.1831
-9 -7 -2 0.2963 4.1679
-9 -7 -1 -0.2110 10.7821
-9 -7 0 -2.2769 9.5468
-9 -7 1 0.6443 4.4538
-9 -7 2 -3.5994 -0.7114
-9 -7 3 -0.0903 -5.5192
-9 -7 4 1.0043 -4.1931
-9 -7 5 -0.1809 4.2708
-9 -7 6 1.5625 -1.5549
-9 -7 7 -1.1323 -0.5977
-9 -7 8 1.0360 2.4930
-9 -7 9 -0.3376 -0.0860
-9 -7 10 -0.1046 1.9668
-9 -7 11 0.0611 -0.7365
-9 -7 12 -0.1378 6.6136
-9 -7 13 -0.8305 0.1123
-9 -6 -13 2.3746 6.1384
-9 -6 -12 0.9146 5.5821
-9 -6 -11 0.8807 -0.0251
-9 -6 -10 0.6853 -2.9238
-9 -6 -9 -1.2598 -0.7196
-9 -6 -8 1.0941 3.2974
-9 -6 -7 1.2984 2.2930
-9 -6 -6 0.8315 2.3231
-9 -6 -5 0.6479 2.0565
-9 -6 -4 -0.4258 5.4495
-9 -6 -3 2.7749 4.1692
-9 -6 -2 -2.2736 2.9694
-9 -6 -1 1.4207 10.1125
-9 -6 0 -0.7541 9.7387
-9 -6 1 -0.4467 4.9031
-9 -6 2 -6.1269 -1.4832
-9 -6 3 1.5363 -7.2276
-9 -6 4 1.4047 -3.8019
-9 -6 5 1.0022 3.2310
-9 -6 6 1.0331 -2.2167
-9 -6 7 0.6958 -0.7878
-9 -6 8 0.2894 2.7513
-9 -6 9 0.7834 -1.5123
-9 -6 10 -0.4276 4.1795
-9 -6 11 0.4571 0.0258
-9 -6 12 -0.0894 6.6583
-9 -6 13 -0.2301 -0.4956
-9 -5 -13 2.2357 5.2538
-9 -5 -12 1.6108 2.8212
-9 -5 -11 1.7610 -1.0351
-9 -5 -10 1.1595 -1.9122
-9 -5 -9 0.4811 0.8186
-9 -5 -8 0.0242 0.9513
-9 -5 -7 0.9639 0.8872
-9 -5 -6 1.2396 4.1783
-9 -5 -5 -0.5433 0.5545
-9 -5 -4 0.1236 6.2520
-9 -5 -3 4.5071 5.7152
-9 -5 -2 0.2307 -1.8395
-9 -5 -1 4.2904 1.8886
-9 -5 0 2.1595 12.4680
-9 -5 1 -1.5879 2.8019
-9 -5 2 -2.9981 6.7226
-9 -5 3 2.5184 -0.1425
-9 -5 4 1.8005 -1.5226
-9 -5 5 -0.2422 2.0223
-9 -5 6 0.6161 -2.4693
-9 -5 7 0.3957 -2.3011
-9 -5 8 -0.4754 1.4659
-9 -5 9 0.1042 -2.3946
-9 -5 10 -1.7913 2.8717
-9 -5 11 0.1837 0.3878
-9 -5 12 0.0036 5.0785
-9 -5 13 0.8431 -0.4624
-9 -4 -13 1.2323 4.1855
-9 -4 -12 0.9959 2.0148
-9 -4 -11 0.8644 -1.3930
-9 -4 -10 2.7975 0.4049
-9 -4 -9 -0.1136 -0.0142
-9 -4 -8 -0.6627 -0.4979
-9 -4 -7 -0.9014 1.0798
-9 -4 -6 1.8802 2.0053
-9 -4 -5 -3.6041 0.2514
-9 -4 -4 3.7724 3.6294
-9 -4 -3 3.4886 2.2829
-9 -4 -2 1.5658 -5.5453
-9 -4 -1 6.9292 -3.4422
-9 -4 0 -1.5842 7.8816
-9 -4 1 3.5587 5.5095
-9 -4 2 -1.3488 6.2723
-9 -4 3 2.8195 3.4624
-9 -4 4 -0.1902 0.3283
-9 -4 5 -0.6501 -4.4732
-9 -4 6 0.4734 -0.2506
-9 -4 7 -0.5165 -2.5420
-9 -4 8 -0.0931 -0.0880
-9 -4 9 -1.5301 -1.5771
-9 -4 10 -1.0538 0.2331
-9 -4 11 0.0496 1.2297
-9 -4 12 0.2927 2.2746
-9 -4 13 1.5932 -0.1895
-9 -3 -13 0.1505 4.1152
-9 -3 -12 -0.3633 0.4339
-9 -3 -11 0.3181 -2.5121
-9 -3 -10 2.3039 0.7963
-9 -3 -9 -0.7586 -0.8654
-9 -3 -8 -0.3709 0.6183
-9 -3 -7 0.2523 1.4851
-9 -3 -6 -0.0836 -1.7102
-9 -3 -5 -1.2749 2.2823
-9 -3 -4 0.3315 0.0541
-9 -3 -3 1.7317 2.0384
-9 -3 -2 -5.9849 1.3556
-9 -3 -1 5.1984 -4.4355
-9 -3 0 -3.4943 -0.5132
-9 -3 1 3.3599 -0.2300
-9 -3 2 -0.0443 -3.3767
-9 -3 3 -1.4216 7.2934
-9 -3 4 -0.1944 -3.7374
-9 -3 5 -1.0457 -2.0933
-9 -3 6 -0.3456 0.0854
-9 -3 7 0.3546 -2.3157
-9 -3 8 -0.9880 -0.0257
-9 -3 9 0.7160 -1.9593
-9 -3 10 0.1376 -0.3223
-9 -3 11 0.8452 0.0669
-9 -3 12 0.2855 -2.2688
-9 -3 13 2.0828 0.0582
-9 -2 -13 -0.3878 3.0325
-9 -2 -12 -0.0661 -1.6585
-9 -2 -11 -0.4081 -3.4700
-9 -2 -10 -0.3542 -0.5348
-9 -2 -9 0.5078 1.0970
-9 -2 -8 -0.4271 -0.9669
-9 -2 -7 2.6718 2.0116
-9 -2 -6 -1.3859 -0.8126
-9 -2 -5 3.0157 -1.1626
-9 -2 -4 -3.9992 3.1601
-9 -2 -3 1.5919 4.1740
-9 -2 -2 -8.8582 8.4800
-9 -2 -1 -0.1018 -4.5840
-9 -2 0 2.3836 -16.1239
-9 -2 1 -1.2037 -9.7553
-9 -2 2 0.0376 -1.5083
-9 -2 3 -1.6101 7.5567
-9 -2 4 0.1523 -3.0451
-9 -2 5 -2.1610 1.3426
-9 -2 6 0.9847 -1.1320
-9 -2 7 -0.4989 -4.4795
-9 -2 8 -0.1571 0.9456
-9 -2 9 2.4278 -0.9685
-9 -2 10 -0.3926 -1.5612
-9 -2 11 0.8903 -2.0546
-9 -2 12 -1.0642 -6.3112
-9 -2 13 1.7491 0.5894
-9 -1 -13 0.1635 1.5956
-9 -1 -12 0.8882 -1.6004
-9 -1 -11 -0.4526 -2.8041
-9 -1 -10 -0.7264 0.0242
-9 -1 -9 -0.4711 0.8902
-9 -1 -8 -0.1796 -1.6695
-9 -1 -7 0.6163 1.5280
-9 -1 -6 0.8128 1.2070
-9 -1 -5 1.8655 -7.2264
-9 -1 -4 -0.3468 9.4352
-9 -1 -3 2.8519 -3.2102
-9 -1 -2 -3.7792 7.7358
-9 -1 -1 -4.7929 -6.4450
-9 -1 0 9.4857 -27.2612
-9 -1 1 -1.3224 0.5567
-9 -1 2 2.8651 -1.6231
-9 -1 3 0.9237 5.3456
-9 -1 4 0.5060 0.0916
-9 -1 5 -0.2248 -2.1736
-9 -1 6 0.1554 -0.9117
-9 -1 7 0.9270 -3.9814
-9 -1 8 0.3501 1.0844
-9 -1 9 1.5591 0.6253
-9 -1 10 -0.0790 -2.0214
-9 -1 11 -0.2882 -2.9333
-9 -1 12 -2.2654 -4.8101
-9 -1 13 0.0228 1.1443
-8 -8 -13 -0.4884 2.7374
-8 -8 -12 0.1382 8.1722
-8 -8 -11 0.0378 0.1990
-8 -8 -10 -0.5923 0.6450
-8 -8 -9 -1.2193 -1.9064
-8 -8 -8 0.5289 1.4594
-8 -8 -7 -0.6342 0.2068
-8 -8 -6 -0.4826 -0.7481
-8 -8 -5 -0.4474 3.5768
-8 -8 -4 0.2256 -2.1157
-8 -8 -3 0.0003 -1.8331
-8 -8 -2 -1.6863 7.3469
-8 -8 -1 -1.0679 6.4138
-8 -8 0 -4.4312 12.5157
-8 -7 -13 0.7060 5.7878
-8 -7 -12 0.3396 8.5516
-8 -7 -11 0.0641 2.4467
-8 -7 -10 -0.1306 -0.5005
-8 -7 -9 -1.5695 -2.7634
-8 -7 -8 0.9240 2.5229
-8 -7 -7 1.1558 0.7608
-8 -7 -6 0.8456 -1.3655
-8 -7 -5 0.1335 1.6083
-8 -7 -4 -0.6547 1.2614
-8 -7 -3 0.1812 0.5191
-8 -7 -2 -3.1728 9.7411
-8 -7 -1 -4.7761 11.4028
-8 -7 0 -2.0905 8.9576
-8 -7 1 -5.5492 8.0339
-8 -7 2 -5.4189 6.9958
-8 -7 3 0.7831 -4.2502
-8 -7 4 -1.0919 -1.9892
-8 -7 5 2.0758 0.3618
-8 -7 6 0.9966 -3.3261
-8 -7 7 0.2773 -0.7019
-8 -7 8 1.4317 1.8666
-8 -7 9 -0.2068 -2.2234
-8 -7 10 -0.7172 1.9130
-8 -7 11 0.5129 1.5336
-8 -7 12 0.1826 8.5271
-8 -7 13 -0.0987 2.8642
-8 -6 -13 1.3734 5.3450
-8 -6 -12 0.4906 4.4692
-8 -6 -11 0.5837 2.2017
-8 -6 -10 0.3014 -1.8582
-8 -6 -9 -1.1324 -0.4605
-8 -6 -8 -0.6096 1.1773
-8 -6 -7 1.4221 1.1191
-8 -6 -6 0.1056 0.9957
-8 -6 -5 0.5848 3.4291
-8 -6 -4 -0.4437 4.6157
-8 -6 -3 1.4176 4.8166
-8 -6 -2 0.5804 6.5194
-8 -6 -1 0.3693 8.3944
-8 -6 0 0.7304 8.6660
-8 -6 1 -3.5334 4.4286
-8 -6 2 -5.3087 9.7009
-8 -6 3 0.5883 1.2036
-8 -6 4 1.6579 1.6118
-8 -6 5 0.9996 2.1476
-8 -6 6 1.4311 -5.0156
-8 -6 7 1.6820 -1.4864
-8 -6 8 0.1245 0.3961
-8 -6 9 1.3514 -1.5497
-8 -6 10 -1.6773 2.0477
-8 -6 11 0.3617 0.2226
-8 -6 12 0.0006 6.0336
-8 -6 13 0.6288 1.5233
-8 -5 -13 0.5536 3.2247
-8 -5 -12 0.4713 1.7906
-8 -5 -11 0.0313 1.5694
-8 -5 -10 2.2196 0.0881
-8 -5 -9 -0.0501 1.1231
-8 -5 -8 -1.9696 -0.2804
-8 -5 -7 -0.0733 1.3265
-8 -5 -6 -0.7710 4.0498
-8 -5 -5 -0.7492 1.5879
-8 -5 -4 2.1175 6.9122
-8 -5 -3 3.3412 1.4175
-8 -5 -2 5.5712 -0.2501
-8 -5 -1 7.1738 1.3924
-8 -5 0 1.2732 9.4837
-8 -5 1 3.1757 1.3427
-8 -5 2 -2.5735 10.0752
-8 -5 3 5.0778 5.3089
-8 -5 4 0.7376 4.5130
-8 -5 5 1.4686 0.1826
-8 -5 6 0.9609 -2.4170
-8 -5 7 0.7992 -3.1419
-8 -5 8 -0.1946 1.0664
-8 -5 9 -1.2759 -0.4767
-8 -5 10 -1.5149 1.2683
-8 -5 11 -0.5972 0.4115
-8 -5 12 0.2515 2.7195
-8 -5 13 1.4998 -0.1044
-8 -4 -13 -0.7061 3.3716
-8 -4 -12 0.1506 0.4976
-8 -4 -11 -0.7172 0.7554
-8 -4 -10 2.5469 2.3398
-8 -4 -9 1.4075 -0.1460
-8 -4 -8 -2.6445 1.6643
-8 -4 -7 0.2699 0.8226
-8 -4 -6 -0.2808 1.5988
-8 -4 -5 -1.9976 1.4791
-8 -4 -4 4.4219 4.1038
-8 -4 -3 1.9380 -0.6044
-8 -4 -2 1.9169 -1.4793
-8 -4 -1 4.8013 0.6291
-8 -4 0 2.1271 6.7892
-8 -4 1 0.4232 0.8267
-8 -4 2 2.5516 -1.0726
-8 -4 3 4.6971 5.5963
-8 -4 4 -1.7873 1.3226
-8 -4 5 2.7430 -0.5556
-8 -4 6 0.9285 0.8369
-8 -4 7 -0.3195 -1.3639
-8 -4 8 -0.0726 1.5431
-8 -4 9 -1.7935 -0.7094
-8 -4 10 -1.1458 1.1603
-8 -4 11 0.4313 1.0545
-8 -4 12 0.0614 -1.1937
-8 -4 13 2.0088 -1.2443
-8 -3 -13 -0.8055 3.5893
-8 -3 -12 0.1501 -2.1028
-8 -3 -11 -1.0683 -0.8074
-8 -3 -10 0.4061 0.7970
-8 -3 -9 1.4467 1.0544
-8 -3 -8 -0.7621 0.8889
-8 -3 -7 1.7775 1.3038
-8 -3 -6 -0.1711 -2.4091
-8 -3 -5 -1.0952 3.5499
-8 -3 -4 3.6036 -0.2120
-8 -3 -3 -2.5570 6.3427
-8 -3 -2 -3.7502 3.9440
-8 -3 -1 3.2731 -1.8398
-8 -3 0 -2.2912 -1.1399
-8 -3 1 -0.2920 -6.2293
-8 -3 2 -0.9655 -3.7661
-8 -3 3 0.6018 6.3055
-8 -3 4 -0.4366 -1.6079
-8 -3 5 -2.6087 2.6269
-8 -3 6 1.8996 1.6326
-8 -3 7 -0.9377 -0.5086
-8 -3 8 -0.5389 0.8537
-8 -3 9 1.3633 -0.7601
-8 -3 10 -1.1398 0.0014
-8 -3 11 1.3623 -0.1220
-8 -3 12 -0.4484 -5.7868
-8 -3 13 2.1760 -0.3193
-8 -2 -13 0.2247 2.3421
-8 -2 -12 -0.0477 -3.9182
-8 -2 -11 -0.4859 -2.3492
-8 -2 -10 -1.4927 0.0223
-8 -2 -9 1.1474 2.0341
-8 -2 -8 0.8805 -2.1227
-8 -2 -7 2.5578 2.9351
-8 -2 -6 -1.7422 -3.3408
-8 -2 -5 2.9825 -1.6508
-8 -2 -4 -2.3976 4.3519
-8 -2 -3 0.1438 1.4222
-8 -2 -2 -2.6076 7.1906
-8 -2 -1 -0.8751 -13.6584
-8 -2 0 1.9911 -22.3792
-8 -2 1 -3.2260 0.7325
-8 -2 2 -3.0739 -0.9067
-8 -2 3 2.2437 8.0540
-8 -2 4 -2.5842 -1.9811
-8 -2 5 -2.1616 1.1959
-8 -2 6 -0.7835 -0.8238
-8 -2 7 -0.4981 -1.3307
-8 -2 8 -0.2705 1.5011
-8 -2 9 0.9743 -0.2543
-8 -2 10 -0.6672 -1.2685
-8 -2 11 0.1674 -2.8388
-8 -2 12 -0.7873 -6.9539
-8 -2 13 1.5621 2.5733
-8 -1 -13 0.3649 0.8632
-8 -1 -12 -0.1263 -3.4386
-8 -1 -11 0.7785 -1.7258
-8 -1 -10 -1.6886 1.0726
-8 -1 -9 0.1279 -0.1094
-8 -1 -8 -0.3153 -0.8057
-8 -1 -7 2.1496 1.4292
-8 -1 -6 -0.0344 -2.1427
-8 -1 -5 1.2883 -5.9144
-8 -1 -4 -1.5305 7.3920
-8 -1 -3 2.4019 -10.1179
-8 -1 0 7.6099 -24.1319
-8 -1 1 -5.3116 11.5143
-8 -1 2 0.1553 -0.8868
-8 -1 3 -0.5856 5.3342
-8 -1 4 -0.7984 -1.4960
-8 -1 5 0.2053 -1.6572
-8 -1 6 -0.5624 -3.3231
-8 -1 7 0.7000 1.3095
-8 -1 8 0.1729 0.8153
-8 -1 9 0.9750 0.1756
-8 -1 10 -0.7649 -1.2031
-8 -1 11 0.1443 -3.1555
-8 -1 12 -1.2211 -3.0900
-8 -1 13 0.3133 3.3609
-7 -7 -13 0.5763 4.2891
-7 -7 -12 -0.0498 6.1138
-7 -7 -11 0.3098 1.7844
-7 -7 -10 -1.0910 -1.1649
-7 -7 -9 -0.1220 -1.6975
-7 -7 -8 0.4279 0.1692
-7 -7 -7 0.7572 -0.6426
-7 -7 -6 1.4078 -2.9547
-7 -7 -5 0.0606 1.1508
-7 -7 -4 -0.0246 4.2739
-7 -7 -3 -1.5939 2.6073
-7 -7 -2 -2.2492 10.9306
-7 -7 -1 -6.7921 10.4810
-7 -6 -13 -0.0613 2.2595
-7 -6 -12 -0.7344 2.6789
-7 -6 -11 -0.9334 1.7849
-7 -6 -10 -0.3097 -1.8784
-7 -6 -9 -1.0542 0.6615
-7 -6 -8 -0.1517 -0.9811
-7 -6 -7 -0.2887 0.1966
-7 -6 -6 0.5126 1.0502
-7 -6 -5 -0.2228 0.7733
-7 -6 -4 1.2752 7.7372
-7 -6 -3 0.3125 3.5871
-7 -6 -2 2.1697 4.0646
-7 -6 -1 1.4614 10.4743
-7 -6 0 -0.9265 -6.3702
-7 -6 1 0.2964 6.0881
-7 -6 2 -2.4424 9.5838
-7 -6 3 0.6247 3.5083
-7 -6 4 3.3649 8.9439
-7 -6 5 -0.8487 -0.6369
-7 -6 6 2.1948 -2.9174
-7 -6 7 1.3332 -1.5727
-7 -6 8 -0.6865 -0.7119
-7 -6 9 -0.0071 0.4185
-7 -6 10 -2.2562 -0.8332
-7 -6 11 -1.1404 -0.4792
-7 -6 12 -0.3305 3.0705
-7 -6 13 0.6143 1.2353
-7 -5 -13 -1.1538 0.7815
-7 -5 -12 -0.3989 1.7721
-7 -5 -11 -0.7412 2.6352
-7 -5 -10 0.4625 0.1673
-7 -5 -9 0.3816 1.3870
-7 -5 -8 -2.1835 0.2029
-7 -5 -7 -0.8546 1.0646
-7 -5 -6 -1.2054 2.5276
-7 -5 -5 1.0700 -2.1859
-7 -5 -4 1.0660 4.4605
-7 -5 -3 4.5362 0.0526
-7 -5 -2 2.7555 -3.9644
-7 -5 -1 -1.1075 11.5954
-7 -5 0 4.2907 -2.7941
-7 -5 1 -5.1852 -1.7457
-7 -5 2 1.7246 2.4293
-7 -5 3 3.8742 0.3203
-7 -5 4 0.2775 4.0779
-7 -5 5 2.2137 -1.5268
-7 -5 6 1.4948 -1.5825
-7 -5 7 1.7901 -1.7402
-7 -5 8 -0.8604 2.6146
-7 -5 9 -0.4521 0.2805
-7 -5 10 -1.5871 0.9228
-7 -5 11 -0.8766 -0.2144
-7 -5 12 0.2450 -0.1082
-7 -5 13 1.0814 -1.4977
-7 -4 -13 -1.2904 0.5133
-7 -4 -12 0.6222 -0.1709
-7 -4 -11 -0.3736 2.5861
-7 -4 -10 0.6716 0.1119
-7 -4 -9 1.6583 1.4044
-7 -4 -8 -2.2680 1.5842
-7 -4 -7 0.2370 -0.0130
-7 -4 -6 -0.7924 1.3471
-7 -4 -5 -1.3993 -1.7471
-7 -4 -4 4.6817 -0.6214
-7 -4 -3 -1.1275 4.8045
-7 -4 -2 0.3379 -2.7838
-7 -4 -1 -3.0487 15.8749
-7 -4 0 4.0034 2.9640
-7 -4 1 -9.0697 -7.6257
-7 -4 2 3.5557 -2.7978
-7 -4 3 0.8610 -2.4364
-7 -4 4 0.5421 1.1657
-7 -4 5 0.2120 -0.7464
-7 -4 6 1.6141 1.7740
-7 -4 7 0.0492 0.0624
-7 -4 8 -0.8096 2.1900
-7 -4 9 0.2666 0.0806
-7 -4 10 -0.4526 1.1267
-7 -4 11 1.2275 0.9768
-7 -4 12 0.3887 -4.5996
-7 -4 13 2.3210 -2.0265
-7 -3 -13 0.1040 -0.5854
-7 -3 -12 -0.3196 -4.4720
-7 -3 -11 -0.8160 0.9925
-7 -3 -10 0.0317 -0.6282
-7 -3 -9 0.0122 1.5593
-7 -3 -8 1.6741 0.0342
-7 -3 -7 0.1889 0.3251
-7 -3 -6 -0.3575 -0.9025
-7 -3 -5 -0.7077 1.2875
-7 -3 -4 4.4391 -3.0761
-7 -3 -3 -5.5515 11.1640
-7 -3 -2 4.4429 -1.8786
-7 -3 -1 0.7064 8.6541
-7 -3 0 -1.5271 -8.8361
-7 -3 1 -3.7657 -1.2991
-7 -3 2 -2.1725 0.4973
-7 -3 3 1.3794 1.9766
-7 -3 4 1.0621 2.3970
-7 -3 5 -2.2322 0.8184
-7 -3 6 -0.3193 2.1160
-7 -3 7 0.0061 0.7785
-7 -3 8 -1.6848 0.9005
-7 -3 9 -0.4556 -0.4051
-7 -3 10 -0.2470 0.9782
-7 -3 11 0.2199 -0.7968
-7 -3 12 0.3507 -7.3437
-7 -3 13 2.5318 1.4265
-7 -2 -13 0.7995 -2.0729
-7 -2 -12 -1.5376 -6.8742
-7 -2 -11 -0.2199 -0.1395
-7 -2 -10 -1.5870 0.5759
-7 -2 -9 0.6200 0.7887
-7 -2 -8 0.8195 -1.8049
-7 -2 -7 0.8020 2.4592
-7 -2 -6 -2.1840 -4.9324
-7 -2 -5 3.9329 2.1856
-7 -2 -4 -4.1905 -3.8710
-7 -2 -3 4.1668 3.4073
-7 -2 -2 3.4267 -5.5395
-7 -2 -1 2.3350 -16.5082
-7 -2 0 4.4451 -16.7320
-7 -2 1 -7.8288 8.1608
-7 -2 2 2.0235 9.3942
-7 -2 3 0.4290 3.3232
-7 -2 4 -1.0270 1.3626
-7 -2 5 0.6692 1.5017
-7 -2 6 -2.5162 -2.9031
-7 -2 7 0.7655 2.8313
-7 -2 8 -1.5912 1.5755
-7 -2 9 -1.3647 -0.8508
-7 -2 10 -1.2393 -0.1694
-7 -2 11 -0.4582 -2.2173
-7 -2 12 -0.0751 -5.1387
-7 -2 13 1.3755 5.4162
-7 -2 14 -0.3861 0.0629
-7 -1 -13 0.0513 -2.3629
-7 -1 -12 -1.1720 -5.1726
-7 -1 -11 0.2316 0.0303
-7 -1 -10 -1.0923 1.5394
-7 -1 -9 0.5436 -0.6090
-7 -1 -8 0.0211 -0.8153
-7 -1 -7 2.1071 1.3037
-7 -1 -6 -0.2015 -4.4014
-7 -1 -5 -0.6147 -0.1366
-7 -1 -4 0.9541 -0.3711
-7 -1 -3 -1.8211 -7.0007
-7 -1 -2 1.6587 -4.2171
-7 -1 -1 5.0398 -21.4539
-7 -1 0 6.3131 -7.0119
-7 -1 1 -0.8158 12.2310
-7 -1 2 -4.6241 9.1033
-7 -1 4 -1.4683 3.1039
-7 -1 5 1.2749 -1.6705
-7 -1 6 0.6967 -1.4844
-7 -1 7 -0.0136 3.2162
-7 -1 8 0.2715 0.7056
-7 -1 9 -0.1066 0.1491
-7 -1 10 -0.5866 -2.4207
-7 -1 11 0.2544 0.0168
-7 -1 12 -0.1749 -1.4945
-7 -1 13 1.0199 4.7769
-7 -1 14 0.4104 0.4642
-6 -6 -13 -0.6280 -0.9084
-6 -6 -12 -0.0462 1.9171
-6 -6 -11 -0.8795 0.5265
-6 -6 -10 -1.3571 -1.0852
-6 -6 -9 0.2076 1.2216
-6 -6 -8 -0.9828 0.5977
-6 -6 -7 -0.0028 0.0703
-6 -6 -6 1.3019 -1.3915
-6 -6 -5 -0.4109 -3.4512
-6 -6 -4 1.0678 3.3119
-6 -6 -3 3.0172 -0.0789
-6 -6 -2 -1.5005 -1.6410
-6 -6 -1 -3.8145 8.4558
-6 -6 0 -0.5042 -14.1982
-6 -5 -13 -1.2498 -2.3636
-6 -5 -12 1.3529 1.8128
-6 -5 -11 0.5246 2.1671
-6 -5 -10 -0.2531 -2.1723
-6 -5 -9 1.6649 1.7268
-6 -5 -8 -1.9533 0.4124
-6 -5 -7 -0.0212 1.4326
-6 -5 -6 0.8143 -1.4269
-6 -5 -5 -0.2107 -5.6673
-6 -5 -4 -0.0020 -4.2588
-6 -5 -3 2.9598 -0.6547
-6 -5 -2 -7.5575 -4.2216
-6 -5 -1 -8.2436 13.5975
-6 -5 0 1.5070 -3.6716
-6 -5 1 -13.2862 -2.7968
-6 -5 2 -1.7899 -3.1397
-6 -5 3 -0.1698 -4.1254
-6 -5 4 1.3300 -5.1050
-6 -5 5 -0.0602 -3.4461
-6 -5 6 2.3105 -2.3417
-6 -5 7 0.4270 -0.4775
-6 -5 8 -0.7183 3.0866
-6 -5 9 0.6799 0.1531
-6 -5 10 -0.1267 -0.8873
-6 -5 11 0.6634 0.6318
-6 -5 12 1.4849 -0.9198
-6 -5 13 0.5958 -2.9899
-6 -4 -13 -0.1458 -3.8392
-6 -4 -12 1.6755 -1.6079
-6 -4 -11 -0.1785 1.6064
-6 -4 -10 0.6113 -2.3487
-6 -4 -9 0.3625 0.0753
-6 -4 -8 -0.9671 0.3114
-6 -4 -7 0.0900 0.0348
-6 -4 -6 -0.0001 0.7410
-6 -4 -5 -0.5807 -4.1285
-6 -4 -4 3.0705 -2.5987
-6 -4 -3 -2.7406 4.4376
-6 -4 -2 -3.7845 -0.0586
-6 -4 -1 -2.0436 20.4633
-6 -4 0 1.0937 -9.1989
-6 -4 1 -9.8120 -0.0207
-6 -4 2 -0.5913 -3.6267
-6 -4 3 -3.8011 -0.7610
-6 -4 4 2.5455 -1.0875
-6 -4 5 -0.2266 -2.7314
-6 -4 6 1.1871 0.9824
-6 -4 7 -0.1453 -0.7129
-6 -4 8 1.0336 1.3430
-6 -4 9 -1.1193 -0.4442
-6 -4 10 1.5563 -0.0215
-6 -4 11 0.5731 -0.6440
-6 -4 12 1.7797 -5.4668
-6 -4 13 1.9409 -1.2383
-6 -3 -13 0.7489 -5.8714
-6 -3 -12 -0.4694 -6.3685
-6 -3 -11 -1.0839 1.3136
-6 -3 -10 -0.2381 -1.0186
-6 -3 -9 0.1519 -0.2994
-6 -3 -8 0.7493 -1.2657
-6 -3 -7 -1.6635 1.4560
-6 -3 -6 -0.2560 -1.6128
-6 -3 -5 0.4039 4.2184
-6 -3 -4 0.8454 -5.9829
-6 -3 -3 -0.6873 9.1678
-6 -3 -2 3.8769 -5.8072
-6 -3 -1 3.2239 3.3109
-6 -3 0 0.0264 -15.7993
-6 -3 1 -2.0498 3.7600
-6 -3 2 4.7425 4.6565
-6 -3 3 -1.2170 5.5235
-6 -3 4 3.5865 1.4160
-6 -3 5 -0.8030 2.4431
-6 -3 6 0.2053 -0.9249
-6 -3 7 -0.3637 1.1002
-6 -3 8 -0.6644 0.3521
-6 -3 9 -2.1946 -0.1133
-6 -3 10 -0.7623 1.0835
-6 -3 11 -0.4974 -2.7931
-6 -3 12 1.1628 -5.5909
-6 -3 13 1.4450 3.4869
-6 -3 14 0.0113 -0.7834
-6 -2 -13 -0.0135 -6.7353
-6 -2 -12 -1.4266 -7.0210
-6 -2 -11 -1.1334 1.3778
-6 -2 -10 -1.7195 0.6529
-6 -2 -9 1.7508 0.8284
-6 -2 -8 -0.3210 -3.7733
-6 -2 -7 -0.6738 4.2015
-6 -2 -6 -0.1743 -6.6822
-6 -2 -5 1.9823 8.2206
-6 -2 -4 -4.3071 -8.0044
-6 -2 -3 8.2088 3.3026
-6 -2 -2 -5.3401 -12.7428
-6 -2 0 -4.3216 -3.9908
-6 -2 1 1.7265 7.9748
-6 -2 2 8.4884 13.0612
-6 -2 3 -1.0535 4.7451
-6 -2 4 2.8681 3.5261
-6 -2 5 0.0483 2.6226
-6 -2 6 1.6988 -1.1246
-6 -2 7 -0.9231 3.2241
-6 -2 8 -0.7396 0.4609
-6 -2 9 -2.0531 0.6892
-6 -2 10 -1.8002 -1.5485
-6 -2 11 -0.4962 -0.4377
-6 -2 12 0.0296 -2.4586
-6 -2 13 0.4615 6.6213
-6 -2 14 -0.2570 -0.8750
-6 -1 -13 -0.8159 -4.1297
-6 -1 -12 0.0621 -4.3036
-6 -1 -11 -0.2625 1.0369
-6 -1 -10 -2.6151 1.4273
-6 -1 -9 1.3107 -0.7824
-6 -1 -8 2.1738 -2.0136
-6 -1 -7 0.5635 1.5050
-6 -1 -6 0.6856 -3.4947
-6 -1 -5 1.6359 1.6904
-6 -1 -4 -0.6009 4.2129
-6 -1 -3 2.1301 -9.4619
-6 -1 -1 4.0040 -9.1484
-6 -1 0 4.3610 5.9243
-6 -1 1 -6.7882 19.1990
-6 -1 2 1.0076 1.1798
-6 -1 3 -7.1390 9.3693
-6 -1 4 -0.4150 4.2218
-6 -1 5 1.4014 -1.0046
-6 -1 6 1.3598 3.8589
-6 -1 7 -0.3406 1.8044
-6 -1 8 1.4925 -0.3372
-6 -1 9 0.1115 0.0549
-6 -1 10 -0.0606 -2.3029
-6 -1 11 0.1665 1.4997
-6 -1 12 -0.1113 -0.3391
-6 -1 13 -0.1042 4.8830
-6 -1 14 0.1616 -1.0846
-5 -5 -13 0.4232 -3.4278
-5 -5 -12 3.1156 -1.8322
-5 -5 -11 0.7173 -0.3200
-5 -5 -10 1.3830 -2.4554
-5 -5 -9 0.5060 -0.9332
-5 -5 -8 -0.1375 0.7515
-5 -5 -7 0.8585 0.3842
-5 -5 -6 0.0148 -2.4492
-5 -5 -5 1.3715 -4.4116
-5 -5 -4 -0.4731 -5.1688
-5 -5 -3 -2.5870 -1.9819
-5 -5 -2 -7.8066 -0.0265
-5 -5 -1 -8.5086 7.0031
-5 -5 0 2.3124 -10.4606
-5 -4 -14 1.0650 -0.2487
-5 -4 -13 0.5823 -4.5484
-5 -4 -12 2.1039 -4.4346
-5 -4 -11 -1.4562 -1.1352
-5 -4 -10 0.4647 -1.3772
-5 -4 -9 0.2973 -2.1987
-5 -4 -8 0.0638 0.3363
-5 -4 -7 1.7620 0.2798
-5 -4 -6 -1.4210 -0.9744
-5 -4 -5 2.6755 -0.2388
-5 -4 -4 0.3527 -0.8714
-5 -4 -3 -5.3032 -1.2456
-5 -4 -2 -0.7779 4.0578
-5 -4 -1 -3.2430 -0.2683
-5 -4 0 1.7360 -23.4804
-5 -4 1 -2.1069 -2.1311
-5 -4 2 -0.8210 -0.0740
-5 -4 3 -1.9287 2.5281
-5 -4 4 -0.6682 -1.4733
-5 -4 5 3.8299 0.1486
-5 -4 6 -0.3645 -2.0160
-5 -4 7 0.9608 0.2408
-5 -4 8 1.5103 -0.4427
-5 -4 9 -1.3190 -0.3619
-5 -4 10 0.4416 -0.2388
-5 -4 11 -1.2015 -3.6685
-5 -4 12 2.8282 -4.7023
-5 -4 13 0.8805 -0.1432
-5 -4 14 0.8363 -1.2784
-5 -3 -14 0.2277 1.5512
-5 -3 -13 0.4679 -6.2120
-5 -3 -12 0.1680 -5.1096
-5 -3 -11 -1.8824 0.6576
-5 -3 -10 -0.6126 -0.4584
-5 -3 -9 -0.2108 0.3580
-5 -3 -8 0.1716 -1.6610
-5 -3 -7 -1.1181 2.7972
-5 -3 -6 0.8942 -3.2560
-5 -3 -5 -1.5220 6.3530
-5 -3 -4 2.9576 -5.3832
-5 -3 -3 -4.2919 0.4469
-5 -3 -2 -0.7859 -8.4901
-5 -3 -1 -0.7779 -14.3962
-5 -3 1 14.1823 -9.8558
-5 -3 2 0.7620 3.6328
-5 -3 3 4.2031 2.8839
-5 -3 4 0.5552 0.3913
-5 -3 5 -0.6394 2.9938
-5 -3 6 3.3985 -2.3271
-5 -3 7 -0.0350 2.0265
-5 -3 8 0.3350 -0.8248
-5 -3 9 -0.5809 2.8058
-5 -3 10 -0.9575 -0.2172
-5 -3 11 -1.5370 -3.0844
-5 -3 12 1.0777 -2.9479
-5 -3 13 0.1453 4.7372
-5 -3 14 0.0281 -2.0133
-5 -2 -14 -1.7558 2.1619
-5 -2 -13 -0.4522 -5.8010
-5 -2 -12 0.6363 -2.7417
-5 -2 -11 0.1553 1.4295
-5 -2 -10 -2.0339 0.3422
-5 -2 -9 0.3577 0.2046
-5 -2 -8 -0.1510 -2.9485
-5 -2 -7 -0.8411 3.2437
-5 -2 -6 -0.2511 -4.5655
-5 -2 -5 0.0730 6.6005
-5 -2 -4 -2.5196 -0.7693
-5 -2 -3 4.4119 -3.2877
-5 -2 -2 -11.5221 -8.9534
-5 -2 -1 0.8283 -4.0262
-5 -2 0 -18.7847 3.5499
-5 -2 1 10.2387 5.1072
-5 -2 2 4.7864 2.1230
-5 -2 3 1.7167 5.7935
-5 -2 4 -2.2555 4.9847
-5 -2 5 0.1180 0.7739
-5 -2 6 1.4896 2.1328
-5 -2 7 -0.5577 2.2883
-5 -2 8 0.3112 -0.1705
-5 -2 9 0.2604 0.7609
-5 -2 10 0.9067 -0.8382
-5 -2 11 -0.5553 0.5168
-5 -2 12 0.3920 -1.2931
-5 -2 13 -0.9350 7.0844
-5 -2 14 -0.0689 -2.9683
-5 -1 -13 -0.5493 -2.8021
-5 -1 -12 2.1704 -0.9839
-5 -1 -11 1.8312 1.8649
-5 -1 -10 -3.5302 -0.8045
-5 -1 -9 1.1530 -2.0943
-5 -1 -8 1.7768 -0.6511
-5 -1 -7 0.3635 -0.4748
-5 -1 -6 -2.2877 -0.3101
-5 -1 -5 4.2437 2.1877
-5 -1 -1 0.1854 0.4880
-5 -1 0 -1.5845 22.0068
-5 -1 1 -14.6330 10.6571
-5 -1 2 0.1779 -0.7655
-5 -1 3 -6.1358 11.0743
-5 -1 4 -2.8172 4.1001
-5 -1 5 0.6555 1.1280
-5 -1 6 -1.8068 4.3289
-5 -1 7 -0.1121 0.8935
-5 -1 8 -0.1778 -0.5566
-5 -1 9 2.0046 -1.8172
-5 -1 10 -0.4404 -0.0176
-5 -1 11 0.9759 1.3148
-5 -1 12 0.4828 -1.0576
-5 -1 13 -2.0129 4.3217
-5 -1 14 0.7461 -2.4442
-4 -4 -14 0.3379 -0.9734
-4 -4 -13 0.7002 -0.4307
-4 -4 -12 1.6619 -3.2973
-4 -4 -11 -2.1658 -2.5942
-4 -4 -10 0.6284 -0.5006
-4 -4 -9 -0.7998 1.7401
-4 -4 -8 1.3243 0.0956
-4 -4 -7 1.3083 0.6509
-4 -4 -6 0.3394 -1.3871
-4 -4 -5 0.2406 0.2615
-4 -4 -4 0.5582 -0.5118
-4 -4 -3 -4.0795 -5.2737
-4 -4 -2 -0.7896 -2.3811
-4 -4 0 -17.5544 -27.8683
-4 -3 -14 -0.4453 0.0671
-4 -3 -13 0.3601 -1.5837
-4 -3 -12 0.5398 0.1239
-4 -3 -11 -0.0572 0.2094
-4 -3 -10 0.5460 -1.3303
-4 -3 -9 -1.9137 2.4631
-4 -3 -8 1.9353 0.1046
-4 -3 -7 -1.0132 0.8995
-4 -3 -6 1.8197 -0.7681
-4 -3 -5 -3.9427 0.3037
-4 -3 -4 1.9533 -2.5378
-4 -3 -3 -7.9789 -4.8005
-4 -3 -2 -2.8323 -16.7781
-4 -3 -1 -3.4848 -12.0603
-4 -3 1 12.9265 -18.8763
-4 -3 3 0.6602 -9.5335
-4 -3 4 -1.8555 4.0875
-4 -3 5 -2.3368 -3.8895
-4 -3 6 2.3942 0.8928
-4 -3 7 0.3690 0.4868
-4 -3 8 0.8855 1.0521
-4 -3 9 -0.0999 3.1582
-4 -3 10 1.6044 -1.1388
-4 -3 11 -0.6759 -0.4667
-4 -3 12 0.3103 -0.6859
-4 -3 13 0.2041 4.6425
-4 -3 14 -0.0918 -2.3142
-4 -2 -14 -1.0130 0.8290
-4 -2 -13 -0.0439 -1.9336
-4 -2 -12 1.6143 2.8426
-4 -2 -11 1.7033 1.4671
-4 -2 -10 -1.8658 -3.1795
-4 -2 -9 -1.0482 -0.5216
-4 -2 -8 -0.2326 -0.6632
-4 -2 -7 0.3767 0.4734
-4 -2 -6 -1.9270 -0.5395
-4 -2 -5 1.8745 4.9092
-4 -2 -4 -4.1612 0.6404
-4 -2 -3 3.7884 0.1952
-4 -2 1 6.7866 -10.4654
-4 -2 2 8.0120 6.8734
-4 -2 3 -3.6979 -5.5634
-4 -2 4 -3.3626 8.2839
-4 -2 5 1.0438 -1.7256
-4 -2 6 -1.7192 3.1109
-4 -2 7 1.2268 0.1156
-4 -2 8 0.5593 1.3032
-4 -2 9 1.7011 -1.1285
-4 -2 10 1.0247 -0.7138
-4 -2 11 0.7793 1.6524
-4 -2 12 -0.2003 -1.1737
-4 -2 13 -1.5282 5.7597
-4 -2 14 0.4747 -3.3047
-4 -1 -14 -1.4319 0.9132
-4 -1 -13 1.0373 -0.7447
-4 -1 -12 2.1140 2.0714
-4 -1 -11 0.8323 1.9050
-4 -1 -10 -1.4689 -3.9215
-4 -1 -9 -0.6192 -2.2675
-4 -1 -8 0.3871 0.1518
-4 -1 -7 -0.3922 -0.6639
-4 -1 -6 -2.9140 1.7175
-4 -1 -5 1.9594 4.5759
-4 -1 -4 0.7554 6.2433
-4 -1 -3 3.7976 -3.3567
-4 -1 -1 12.1664 0.9125
-4 -1 0 -3.4046 26.9653
-4 -1 1 5.5539 -9.4151
-4 -1 2 -1.6027 9.1861
-4 -1 3 0.8572 1.0683
-4 -1 4 -0.1499 4.7851
-4 -1 5 -1.0981 1.1398
-4 -1 6 -2.3650 3.4404
-4 -1 7 0.1812 -0.5303
-4 -1 8 -0.3714 -0.0841
-4 -1 9 0.6728 -1.1861
-4 -1 10 -1.5674 -0.5822
-4 -1 11 0.8867 1.4200
-4 -1 12 -0.0263 -1.9517
-4 -1 13 -1.7641 2.9726
-4 -1 14 0.9717 -2.4793
-3 -3 -14 -0.0603 -1.4735
-3 -3 -13 -0.2346 2.5426
-3 -3 -12 0.2817 2.4608
-3 -3 -11 1.5299 1.2403
-3 -3 -10 -0.0622 -3.3598
-3 -3 -9 0.2310 1.1021
-3 -3 -8 1.1815 1.2862
-3 -3 -7 0.1363 -0.1464
-3 -3 -6 0.4218 1.2857
-3 -3 -5 -1.1345 -1.6548
-3 -3 -4 -2.0367 1.7954
-3 -3 -3 -4.7421 -6.4617
-3 -3 -2 4.2977 -7.7778
-3 -3 -1 8.8994 -5.5716
-3 -2 -14 -0.4873 -0.4350
-3 -2 -13 0.0257 1.3749
-3 -2 -12 0.7317 3.9801
-3 -2 -11 -0.6519 0.3045
-3 -2 -10 -2.1445 -4.1089
-3 -2 -9 0.3402 -1.4422
-3 -2 -8 0.3990 -0.2478
-3 -2 -7 2.1239 1.6675
-3 -2 -6 -0.4780 1.2588
-3 -2 -5 2.3220 4.3617
-3 -2 -4 -1.6578 0.8998
-3 -2 -3 5.7959 1.4909
-3 -2 1 29.3383 -4.8887
-3 -2 2 9.4294 2.1700
-3 -2 3 -3.9353 -3.4686
-3 -2 4 4.0255 3.4438
-3 -2 5 0.4166 0.7362
-3 -2 6 -0.1956 2.4939
-3 -2 7 1.7038 0.4539
-3 -2 8 1.7044 0.5826
-3 -2 9 0.6265 -0.8414
-3 -2 10 -2.0465 -1.8658
-3 -2 11 0.0524 0.2027
-3 -2 12 -0.7573 0.7544
-3 -2 13 -0.8968 3.5749
-3 -2 14 0.8122 -2.8955
-3 -1 -14 -0.0680 -0.2424
-3 -1 -13 0.5567 1.5480
-3 -1 -12 0.5216 2.2303
-3 -1 -11 -1.8561 -0.1953
-3 -1 -10 -2.5663 -2.0902
-3 -1 -9 -0.1566 -2.0041
-3 -1 -8 0.5930 1.1636
-3 -1 -7 0.0250 0.9572
-3 -1 -6 0.5755 3.3356
-3 -1 -5 0.1532 0.5992
-3 -1 -4 1.8645 5.1815
-3 -1 -3 -0.2682 -6.6903
-3 -1 -2 -5.7828 7.6482
-3 -1 0 1.3683 -13.8886
-3 -1 3 3.5293 2.9238
-3 -1 4 5.3206 -1.5596
-3 -1 5 -1.1624 -0.3339
-3 -1 6 0.8191 3.4876
-3 -1 7 0.3343 0.1564
-3 -1 8 2.1804 0.1721
-3 -1 9 -0.1713 0.2764
-3 -1 10 -2.5913 0.8122
-3 -1 11 -0.2280 -1.7766
-3 -1 12 -1.0158 -0.1910
-3 -1 13 -0.3496 2.6000
-3 -1 14 1.8553 -2.9336
-2 -2 -14 0.7215 -2.1031
-2 -2 -13 0.3016 3.0759
-2 -2 -12 -0.6954 2.3409
-2 -2 -11 -1.9240 -3.1727
-2 -2 -10 -2.7399 1.1443
-2 -2 -9 0.6175 -1.8728
-2 -2 -8 2.1927 1.4928
-2 -2 -7 2.0946 2.5898
-2 -2 -6 1.7377 2.7277
-2 -2 -5 -0.4941 0.0817
-2 -2 -4 4.2815 -0.5411
-2 -2 -3 2.4851 -2.0785
-2 -2 -2 -4.3845 -11.7502
-2 -1 -14 1.1735 -0.9000
-2 -1 -13 0.1465 1.9252
-2 -1 -12 -0.5973 1.5016
-2 -1 -11 -1.0901 -1.5500
-2 -1 -10 -2.2069 0.4630
-2 -1 -9 -0.1007 0.2040
-2 -1 -8 1.2152 2.6976
-2 -1 -7 1.1616 1.0133
-2 -1 -6 1.7840 2.9828
-2 -1 -5 -2.8012 -2.3552
-2 -1 -4 -0.3886 -0.0014
-2 -1 1 18.1336 -15.9921
-2 -1 3 6.2202 -3.6655
-2 -1 5 -1.0717 -1.5088
-2 -1 6 1.4766 2.5754
-2 -1 7 0.1391 1.1528
-2 -1 8 1.8324 1.6558
-2 -1 9 1.0198 1.3841
-2 -1 10 -0.5050 1.6124
-2 -1 11 -0.6525 -2.6372
-2 -1 12 -0.3251 1.0478
-2 -1 13 0.9600 2.2852
-2 -1 14 2.0393 -2.0042
-1 -1 -13 0.9686 0.5913
-1 -1 -12 0.1709 0.5950
-1 -1 -11 -0.8070 -0.0078
-1 -1 -10 1.4178 -0.8255
-1 -1 -9 -1.4759 2.6813
-1 -1 -8 1.3972 1.1047
-1 -1 -7 -0.5338 0.9493
-1 -1 -6 0.3426 0.3580
-1 -1 -5 -1.9018 -0.1985
-1 -1 -4 -4.5970 -4.1311
-1 -1 -3 -0.7093 -10.6885
0 0 4 -4.6571 -4.4127
0 0 5 11.7876 3.2847
0 0 6 -3.4820 -0.8508
0 0 7 -1.3059 -1.3059
0 0 8 1.5258 2.2150
0 0 9 -0.3190 -1.9932
0 0 10 -5.6479 1.7451
0 0 11 -0.8032 -1.8930
0 0 12 0.4829 2.0063
0 0 13 -2.2107 -1.4642
1 0 -13 -0.1657 0.8256
1 0 -12 0.5455 -1.1032
1 0 -11 -1.1517 0.9425
1 0 -10 -1.0445 -0.8115
1 0 -9 -1.0240 1.0369
1 0 -8 1.3280 -1.3513
1 0 -7 -1.4656 1.0016
1 0 -6 -1.3070 0.2171
1 0 -5 5.2383 -1.7276
1 0 -3 0.8391 -2.1289
1 0 -2 24.1582 1.3880
1 0 2 20.4614 -1.2611
1 0 4 -2.9267 -2.5357
1 0 5 3.3442 1.9982
1 0 6 -1.0087 -0.5379
1 0 7 -0.7197 -0.8029
1 0 8 1.5401 1.3349
1 0 9 -1.9335 -1.0998
1 0 10 -2.0439 0.8330
1 0 11 -0.6778 -0.9501
1 0 12 -0.1248 1.1614
1 0 13 -0.5958 -0.9662
1 1 3 -0.7093 10.6885
1 1 4 -4.5970 4.1311
1 1 5 -1.9018 0.1985
1 1 6 0.3426 -0.3580
1 1 7 -0.5338 -0.9493
1 1 8 1.3972 -1.1047
1 1 9 -1.4759 -2.6813
1 1 10 1.4178 0.8255
1 1 11 -0.8070 0.0078
1 1 12 0.1709 -0.5950
1 1 13 0.9686 -0.5913
1 1 14 0.3644 0.0888
2 0 -14 1.2484 0.1714
2 0 -13 1.5816 -0.2472
2 0 -12 0.3980 -0.0530
2 0 -11 -0.0601 0.2977
2 0 -10 1.8180 -0.2674
2 0 -9 1.7536 0.1005
2 0 -8 1.3773 -0.0998
2 0 -7 -1.6750 0.3669
2 0 -6 0.9865 -0.6158
2 0 -5 -0.2145 0.4464
2 0 -4 -7.6996 0.1124
2 0 -3 11.5951 -0.6348
2 0 -1 25.3228 -0.6473
2 0 2 -15.0039 -0.0680
2 0 3 -16.1949 -0.0552
2 0 4 0.0999 -0.2916
2 0 5 -5.1072 0.7877
2 0 6 1.3912 -0.8801
2 0 7 0.2908 0.3981
2 0 8 0.4674 0.2465
2 0 9 -2.1004 -0.5320
2 0 10 -1.8919 0.3334
2 0 11 0.4308 -0.0931
2 0 12 -0.9903 0.1228
2 0 13 0.1787 -0.3273
2 1 -14 2.0393 2.0042
2 1 -13 0.9600 -2.2852
2 1 -12 -0.3251 -1.0478
2 1 -11 -0.6525 2.6372
2 1 -10 -0.5050 -1.6124
2 1 -9 1.0198 -1.3841
2 1 -8 1.8324 -1.6558
2 1 -7 0.1391 -1.1528
2 1 -6 1.4766 -2.5754
2 1 -5 -1.0717 1.5088
2 1 -4 -0.6745 5.7771
2 1 -3 6.2202 3.6655
2 1 4 -0.3886 0.0014
2 1 5 -2.8012 2.3552
2 1 6 1.7840 -2.9828
2 1 7 1.1616 -1.0133
2 1 8 1.2152 -2.6976
2 1 9 -0.1007 -0.2040
2 1 10 -2.2069 -0.4630
2 1 11 -1.0901 1.5500
2 1 12 -0.5973 -1.5016
2 1 13 0.1465 -1.9252
2 1 14 1.1735 0.9000
2 2 0 -1.2057 42.3328
2 2 2 -4.3845 11.7502
2 2 3 2.4851 2.0785
2 2 4 4.2815 0.5411
2 2 5 -0.4941 -0.0817
2 2 6 1.7377 -2.7277
2 2 7 2.0946 -2.5898
2 2 8 2.1927 -1.4928
2 2 9 0.6175 1.8728
2 2 10 -2.7399 -1.1443
2 2 11 -1.9240 3.1727
2 2 12 -0.6954 -2.3409
2 2 13 0.3016 -3.0759
2 2 14 0.7215 2.1031
3 0 -14 2.8977 0.3045
3 0 -13 0.6739 -0.3928
3 0 -12 -0.5261 0.0384
3 0 -11 1.4030 0.3670
3 0 -10 -2.1774 -0.4024
3 0 -9 1.7701 0.0904
3 0 -8 1.5599 0.0879
3 0 -7 -2.0989 0.1909
3 0 -6 1.2922 -0.6788
3 0 -5 -0.7506 0.7718
3 0 -4 -0.3412 -0.1743
3 0 -3 9.9736 -0.6348
3 0 -1 8.7211 -0.6708
3 0 2 -5.7629 -0.0417
3 0 3 -15.0314 -0.2617
3 0 4 2.0763 0.0376
3 0 5 -3.4709 0.6154
3 0 6 1.5290 -1.0351
3 0 7 -1.2485 0.7323
3 0 8 0.4671 -0.0186
3 0 9 0.0499 -0.4692
3 0 10 -3.8042 0.3981
3 0 11 0.0252 -0.0816
3 0 12 -0.5496 -0.0429
3 0 13 0.0593 -0.1813
3 1 -14 1.8553 2.9336
3 1 -13 -0.3496 -2.6000
3 1 -12 -1.0158 0.1910
3 1 -11 -0.2280 1.7766
3 1 -10 -2.5913 -0.8122
3 1 -9 -0.1713 -0.2764
3 1 -8 2.1804 -0.1721
3 1 -7 0.3343 -0.1564
3 1 -6 0.8191 -3.4876
3 1 -5 -1.1624 0.3339
3 1 -4 5.3206 1.5596
3 1 -3 3.5293 -2.9238
3 1 0 1.3683 13.8886
3 1 1 -0.6927 0.7810
3 1 2 -5.7828 -7.6482
3 1 3 -0.2682 6.6903
3 1 4 1.8645 -5.1815
3 1 5 0.1532 -0.5992
3 1 6 0.5755 -3.3356
3 1 7 0.0250 -0.9572
3 1 8 0.5930 -1.1636
3 1 9 -0.1566 2.0041
3 1 10 -2.5663 2.0902
3 1 11 -1.8561 0.1953
3 1 12 0.5216 -2.2303
3 1 13 0.5567 -1.5480
3 1 14 -0.0680 0.2424
3 2 -14 0.8122 2.8955
3 2 -13 -0.8968 -3.5749
3 2 -12 -0.7573 -0.7544
3 2 -11 0.0524 -0.2027
3 2 -10 -2.0465 1.8658
3 2 -9 0.6265 0.8414
3 2 -8 1.7044 -0.5826
3 2 -7 1.7038 -0.4539
3 2 -6 -0.1956 -2.4939
3 2 -5 0.4166 -0.7362
3 2 -4 4.0255 -3.4438
3 2 -3 -3.9353 3.4686
3 2 -2 9.4294 -2.1700
3 2 -1 29.3383 4.8887
3 2 3 5.7959 -1.4909
3 2 4 -1.6578 -0.8998
3 2 5 2.3220 -4.3617
3 2 6 -0.4780 -1.2588
3 2 7 2.1239 -1.6675
3 2 8 0.3990 0.2478
3 2 9 0.3402 1.4422
3 2 10 -2.1445 4.1089
3 2 11 -0.6519 -0.3045
3 2 12 0.7317 -3.9801
3 2 13 0.0257 -1.3749
3 2 14 -0.4873 0.4350
3 3 1 8.8994 5.5716
3 3 3 -4.7421 6.4617
3 3 4 -2.0367 -1.7954
3 3 5 -1.1345 1.6548
3 3 6 0.4218 -1.2857
3 3 7 0.1363 0.1464
3 3 8 1.1815 -1.2862
3 3 9 0.2310 -1.1021
3 3 10 -0.0622 3.3598
3 3 11 1.5299 -1.2403
3 3 12 0.2817 -2.4608
3 3 13 -0.2346 -2.5426
3 3 14 -0.0603 1.4735
4 0 -14 1.6173 -0.1460
4 0 -13 -1.0510 0.0894
4 0 -12 0.1510 0.1537
4 0 -11 0.1981 -0.2106
4 0 -10 -2.6550 0.0119
4 0 -9 -1.0334 0.2692
4 0 -8 -0.2895 -0.3699
4 0 -7 -1.5167 0.2280
4 0 -6 -0.2097 -0.0015
4 0 -5 -1.9389 -0.0336
4 0 -4 -0.1292 -0.1134
4 0 -3 11.8611 0.1983
4 0 -2 -1.9617 0.0029
4 0 0 -4.4944 0.6145
4 0 2 17.2503 -0.0142
4 0 3 -9.2172 0.3362
4 0 4 8.7376 -0.2649
4 0 5 -2.9780 0.0777
4 0 6 0.4045 -0.0675
4 0 7 -3.2342 0.2292
4 0 8 1.6150 -0.3529
4 0 9 -0.7134 0.2180
4 0 10 -1.6996 0.0829
4 0 11 0.4523 -0.2782
4 0 12 0.5186 0.2391
4 0 13 1.8875 -0.1233
4 1 -14 0.9717 2.4793
4 1 -13 -1.7641 -2.9726
4 1 -12 -0.0263 1.9517
4 1 -11 0.8867 -1.4200
4 1 -10 -1.5674 0.5822
4 1 -9 0.6728 1.1861
4 1 -8 -0.3714 0.0841
4 1 -7 0.1812 0.5303
4 1 -6 -2.3650 -3.4404
4 1 -5 -1.0981 -1.1398
4 1 -4 -0.1499 -4.7851
4 1 -3 0.8572 -1.0683
4 1 -2 -1.6027 -9.1861
4 1 -1 5.5539 9.4151
4 1 0 -3.4046 -26.9653
4 1 1 12.1664 -0.9125
4 1 2 5.2918 -16.8867
4 1 3 3.7976 3.3567
4 1 4 0.7554 -6.2433
4 1 5 1.9594 -4.5759
4 1 6 -2.9140 -1.7175
4 1 7 -0.3922 0.6639
4 1 8 0.3871 -0.1518
4 1 9 -0.6192 2.2675
4 1 10 -1.4689 3.9215
4 1 11 0.8323 -1.9050
4 1 12 2.1140 -2.0714
4 1 13 1.0373 0.7447
4 2 -14 0.4747 3.3047
4 2 -13 -1.5282 -5.7597
4 2 -12 -0.2003 1.1737
4 2 -11 0.7793 -1.6524
4 2 -10 1.0247 0.7138
4 2 -9 1.7011 1.1285
4 2 -8 0.5593 -1.3032
4 2 -7 1.2268 -0.1156
4 2 -6 -1.7192 -3.1109
4 2 -5 1.0438 1.7256
4 2 -4 -3.3626 -8.2839
4 2 -3 -3.6979 5.5634
4 2 -2 8.0120 -6.8734
4 2 -1 6.7866 10.4654
4 2 3 3.7884 -0.1952
4 2 4 -4.1612 -0.6404
4 2 5 1.8745 -4.9092
4 2 6 -1.9270 0.5395
4 2 7 0.3767 -0.4734
4 2 8 -0.2326 0.6632
4 2 9 -1.0482 0.5216
4 2 10 -1.8658 3.1795
4 2 11 1.7033 -1.4671
4 2 12 1.6143 -2.8426
4 2 13 -0.0439 1.9336
4 2 14 -1.0130 -0.8290
4 3 -14 -0.0918 2.3142
4 3 -13 0.2041 -4.6425
4 3 -12 0.3103 0.6859
4 3 -11 -0.6759 0.4667
4 3 -10 1.6044 1.1388
4 3 -9 -0.0999 -3.1582
4 3 -8 0.8855 -1.0521
4 3 -7 0.3690 -0.4868
4 3 -6 2.3942 -0.8928
4 3 -5 -2.3368 3.8895
4 3 -4 -1.8555 -4.0875
4 3 -3 0.6602 9.5335
4 3 -1 12.9265 18.8763
4 3 1 -3.4848 12.0603
4 3 2 -2.8323 16.7781
4 3 3 -7.9789 4.8005
4 3 4 1.9533 2.5378
4 3 5 -3.9427 -0.3037
4 3 6 1.8197 0.7681
4 3 7 -1.0132 -0.8995
4 3 8 1.9353 -0.1046
4 3 9 -1.9137 -2.4631
4 3 10 0.5460 1.3303
4 3 11 -0.0572 -0.2094
4 3 12 0.5398 -0.1239
4 3 13 0.3601 1.5837
4 3 14 -0.4453 -0.0671
4 4 0 -17.5544 27.8683
4 4 2 -0.7896 2.3811
4 4 3 -4.0795 5.2737
4 4 4 0.5582 0.5118
4 4 5 0.2406 -0.2615
4 4 6 0.3394 1.3871
4 4 7 1.3083 -0.6509
4 4 8 1.3243 -0.0956
4 4 9 -0.7998 -1.7401
4 4 10 0.6284 0.5006
4 4 11 -2.1658 2.5942
4 4 12 1.6619 3.2973
4 4 13 0.7002 0.4307
4 4 14 0.3379 0.9734
5 0 -14 0.9324 -0.3710
5 0 -13 -2.4744 0.3451
5 0 -12 0.9998 -0.1746
5 0 -11 0.9910 0.2050
5 0 -10 -1.9411 -0.3561
5 0 -9 1.7914 0.4131
5 0 -8 -1.2252 -0.1113
5 0 -7 -0.9325 -0.3922
5 0 -6 -1.4556 0.7685
5 0 -5 -2.2949 -0.7320
5 0 -4 -3.8352 0.4111
5 0 -3 1.3016 -0.1993
5 0 -2 -16.1283 0.2888
5 0 0 -4.2122 0.1271
5 0 3 -2.7551 0.9766
5 0 4 5.6516 -0.5822
5 0 5 0.9652 0.1687
5 0 6 -1.5271 -0.0535
5 0 7 -2.1528 0.1258
5 0 8 3.0644 -0.0722
5 0 9 0.1999 -0.2456
5 0 10 -2.9631 0.5841
5 0 11 2.7294 -0.6359
5 0 12 1.9679 0.3946
5 0 13 1.2427 -0.0546
5 1 -14 0.7461 2.4442
5 1 -13 -2.0129 -4.3217
5 1 -12 0.4828 1.0576
5 1 -11 0.9759 -1.3148
5 1 -10 -0.4404 0.0176
5 1 -9 2.0046 1.8172
5 1 -8 -0.1778 0.5566
5 1 -7 -0.1121 -0.8935
5 1 -6 -1.8068 -4.3289
5 1 -5 0.6555 -1.1280
5 1 -4 -2.8172 -4.1001
5 1 -3 -6.1358 -11.0743
5 1 -2 0.1779 0.7655
5 1 -1 -14.6330 -10.6571
5 1 1 0.1854 -0.4880
5 1 5 4.2437 -2.1877
5 1 6 -2.2877 0.3101
5 1 7 0.3635 0.4748
5 1 8 1.7768 0.6511
5 1 9 1.1530 2.0943
5 1 10 -3.5302 0.8045
5 1 11 1.8312 -1.8649
5 1 12 2.1704 0.9839
5 1 13 -0.5493 2.8021
5 2 -14 -0.0689 2.9683
5 2 -13 -0.9350 -7.0844
5 2 -12 0.3920 1.2931
5 2 -11 -0.5553 -0.5168
5 2 -10 0.9067 0.8382
5 2 -9 0.2604 -0.7609
5 2 -8 0.3112 0.1705
5 2 -7 -0.5577 -2.2883
5 2 -6 1.4896 -2.1328
5 2 -5 0.1180 -0.7739
5 2 -4 -2.2555 -4.9847
5 2 -3 1.7167 -5.7935
5 2 -2 4.7864 -2.1230
5 2 -1 10.2387 -5.1072
5 2 0 -18.7847 -3.5499
5 2 1 0.8283 4.0262
5 2 2 -11.5221 8.9534
5 2 3 4.4119 3.2877
5 2 4 -2.5196 0.7693
5 2 5 0.0730 -6.6005
5 2 6 -0.2511 4.5655
5 2 7 -0.8411 -3.2437
5 2 8 -0.1510 2.9485
5 2 9 0.3577 -0.2046
5 2 10 -2.0339 -0.3422
5 2 11 0.1553 -1.4295
5 2 12 0.6363 2.7417
5 2 13 -0.4522 5.8010
5 2 14 -1.7558 -2.1619
5 3 -14 0.0281 2.0133
5 3 -13 0.1453 -4.7372
5 3 -12 1.0777 2.9479
5 3 -11 -1.5370 3.0844
5 3 -10 -0.9575 0.2172
5 3 -9 -0.5809 -2.8058
5 3 -8 0.3350 0.8248
5 3 -7 -0.0350 -2.0265
5 3 -6 3.3985 2.3271
5 3 -5 -0.6394 -2.9938
5 3 -4 0.5552 -0.3913
5 3 -3 4.2031 -2.8839
5 3 -2 0.7620 -3.6328
5 3 -1 14.1823 9.8558
5 3 1 -0.7779 14.3962
5 3 2 -0.7859 8.4901
5 3 3 -4.2919 -0.4469
5 3 4 2.9576 5.3832
5 3 5 -1.5220 -6.3530
5 3 6 0.8942 3.2560
5 3 7 -1.1181 -2.7972
5 3 8 0.1716 1.6610
5 3 9 -0.2108 -0.3580
5 3 10 -0.6126 0.4584
5 3 11 -1.8824 -0.6576
5 3 12 0.1680 5.1096
5 3 13 0.4679 6.2120
5 3 14 0.2277 -1.5512
5 4 -14 0.8363 1.2784
5 4 -13 0.8805 0.1432
5 4 -12 2.8282 4.7023
5 4 -11 -1.2015 3.6685
5 4 -10 0.4416 0.2388
5 4 -9 -1.3190 0.3619
5 4 -8 1.5103 0.4427
5 4 -7 0.9608 -0.2408
5 4 -6 -0.3645 2.0160
5 4 -5 3.8299 -0.1486
5 4 -4 -0.6682 1.4733
5 4 -3 -1.9287 -2.5281
5 4 -2 -0.8210 0.0740
5 4 -1 -2.1069 2.1311
5 4 0 1.7360 23.4804
5 4 1 -3.2430 0.2683
5 4 2 -0.7779 -4.0578
5 4 3 -5.3032 1.2456
5 4 4 0.3527 0.8714
5 4 5 2.6755 0.2388
5 4 6 -1.4210 0.9744
5 4 7 1.7620 -0.2798
5 4 8 0.0638 -0.3363
5 4 9 0.2973 2.1987
5 4 10 0.4647 1.3772
5 4 11 -1.4562 1.1352
5 4 12 2.1039 4.4346
5 4 13 0.5823 4.5484
5 4 14 1.0650 0.2487
5 5 0 2.3124 10.4606
5 5 1 -8.5086 -7.0031
5 5 2 -7.8066 0.0265
5 5 3 -2.5870 1.9819
5 5 4 -0.4731 5.1688
5 5 5 1.3715 4.4116
5 5 6 0.0148 2.4492
5 5 7 0.8585 -0.3842
5 5 8 -0.1375 -0.7515
5 5 9 0.5060 0.9332
5 5 10 1.3830 2.4554
5 5 11 0.7173 0.3200
5 5 12 3.1156 1.8322
5 5 13 0.4232 3.4278
6 0 -14 0.9902 0.0441
6 0 -13 -1.1423 0.1433
6 0 -12 0.3975 -0.3464
6 0 -11 1.3903 0.4168
6 0 -10 -0.8571 -0.2665
6 0 -9 2.2506 0.0405
6 0 -8 1.2386 0.0552
6 0 -7 -0.5524 0.0057
6 0 -6 -0.0284 -0.0156
6 0 -5 -0.0165 -0.1920
6 0 -4 -1.3940 0.5222
6 0 -3 -11.5756 -0.6772
6 0 -2 -4.3325 0.4798
6 0 -1 -23.3629 -0.0665
6 0 0 13.4115 -0.2852
6 0 1 -3.8734 0.2667
6 0 2 11.1919 -0.1061
6 0 3 -3.6345 0.1541
6 0 4 2.4373 -0.3901
6 0 6 0.8872 -0.4045
6 0 7 -0.7243 0.0385
6 0 9 1.3284 -0.3192
6 0 10 -3.7853 0.2069
6 0 11 1.6876 -0.1608
6 0 12 1.2308 0.2294
6 0 13 -0.6927 -0.1973
6 1 -14 0.1616 1.0846
6 1 -13 -0.1042 -4.8830
6 1 -12 -0.1113 0.3391
6 1 -11 0.1665 -1.4997
6 1 -10 -0.0606 2.3029
6 1 -9 0.1115 -0.0549
6 1 -8 1.4925 0.3372
6 1 -7 -0.3406 -1.8044
6 1 -6 1.3598 -3.8589
6 1 -5 1.4014 1.0046
6 1 -4 -0.4150 -4.2218
6 1 -3 -7.1390 -9.3693
6 1 -2 1.0076 -1.1798
6 1 -1 -6.7882 -19.1990
6 1 0 4.3610 -5.9243
6 1 1 4.0040 9.1484
6 1 3 2.1301 9.4619
6 1 4 -0.6009 -4.2129
6 1 5 1.6359 -1.6904
6 1 6 0.6856 3.4947
6 1 7 0.5635 -1.5050
6 1 8 2.1738 2.0136
6 1 9 1.3107 0.7824
6 1 10 -2.6151 -1.4273
6 1 11 -0.2625 -1.0369
6 1 12 0.0621 4.3036
6 1 13 -0.8159 4.1297
6 2 -14 -0.2570 0.8750
6 2 -13 0.4615 -6.6213
6 2 -12 0.0296 2.4586
6 2 -11 -0.4962 0.4377
6 2 -10 -1.8002 1.5485
6 2 -9 -2.0531 -0.6892
6 2 -8 -0.7396 -0.4609
6 2 -7 -0.9231 -3.2241
6 2 -6 1.6988 1.1246
6 2 -5 0.0483 -2.6226
6 2 -4 2.8681 -3.5261
6 2 -3 -1.0535 -4.7451
6 2 -2 8.4884 -13.0612
6 2 -1 1.7265 -7.9748
6 2 0 -4.3216 3.9908
6 2 1 7.6939 15.3409
6 2 2 -5.3401 12.7428
6 2 3 8.2088 -3.3026
6 2 4 -4.3071 8.0044
6 2 5 1.9823 -8.2206
6 2 6 -0.1743 6.6822
6 2 7 -0.6738 -4.2015
6 2 8 -0.3210 3.7733
6 2 9 1.7508 -0.8284
6 2 10 -1.7195 -0.6529
6 2 11 -1.1334 -1.3778
6 2 12 -1.4266 7.0210
6 2 13 -0.0135 6.7353
6 2 14 -1.1181 -2.9760
6 3 -14 0.0113 0.7834
6 3 -13 1.4450 -3.4869
6 3 -12 1.1628 5.5909
6 3 -11 -0.4974 2.7931
6 3 -10 -0.7623 -1.0835
6 3 -9 -2.1946 0.1133
6 3 -8 -0.6644 -0.3521
6 3 -7 -0.3637 -1.1002
6 3 -6 0.2053 0.9249
6 3 -5 -0.8030 -2.4431
6 3 -4 3.5865 -1.4160
6 3 -3 -1.2170 -5.5235
6 3 -2 4.7425 -4.6565
6 3 -1 -2.0498 -3.7600
6 3 0 0.0264 15.7993
6 3 1 3.2239 -3.3109
6 3 2 3.8769 5.8072
6 3 3 -0.6873 -9.1678
6 3 4 0.8454 5.9829
6 3 5 0.4039 -4.2184
6 3 6 -0.2560 1.6128
6 3 7 -1.6635 -1.4560
6 3 8 0.7493 1.2657
6 3 9 0.1519 0.2994
6 3 10 -0.2381 1.0186
6 3 11 -1.0839 -1.3136
6 3 12 -0.4694 6.3685
6 3 13 0.7489 5.8714
6 3 14 0.9442 -1.5615
6 4 -13 1.9409 1.2383
6 4 -12 1.7797 5.4668
6 4 -11 0.5731 0.6440
6 4 -10 1.5563 0.0215
6 4 -9 -1.1193 0.4442
6 4 -8 1.0336 -1.3430
6 4 -7 -0.1453 0.7129
6 4 -6 1.1871 -0.9824
6 4 -5 -0.2266 2.7314
6 4 -4 2.5455 1.0875
6 4 -3 -3.8011 0.7610
6 4 -2 -0.5913 3.6267
6 4 -1 -9.8120 0.0207
6 4 0 1.0937 9.1989
6 4 1 -2.0436 -20.4633
6 4 2 -3.7845 0.0586
6 4 3 -2.7406 -4.4376
6 4 4 3.0705 2.5987
6 4 5 -0.5807 4.1285
6 4 6 -0.0001 -0.7410
6 4 7 0.0900 -0.0348
6 4 8 -0.9671 -0.3114
6 4 9 0.3625 -0.0753
6 4 10 0.6113 2.3487
6 4 11 -0.1785 -1.6064
6 4 12 1.6755 1.6079
6 4 13 -0.1458 3.8392
6 5 -13 0.5958 2.9899
6 5 -12 1.4849 0.9198
6 5 -11 0.6634 -0.6318
6 5 -10 -0.1267 0.8873
6 5 -9 0.6799 -0.1531
6 5 -8 -0.7183 -3.0866
6 5 -7 0.4270 0.4775
6 5 -6 2.3105 2.3417
6 5 -5 -0.0602 3.4461
6 5 -4 1.3300 5.1050
6 5 -3 -0.1698 4.1254
6 5 -2 -1.7899 3.1397
6 5 -1 -13.2862 2.7968
6 5 0 1.5070 3.6716
6 5 1 -8.2436 -13.5975
6 5 2 -7.5575 4.2216
6 5 3 2.9598 0.6547
6 5 4 -0.0020 4.2588
6 5 5 -0.2107 5.6673
6 5 6 0.8143 1.4269
6 5 7 -0.0212 -1.4326
6 5 8 -1.9533 -0.4124
6 5 9 1.6649 -1.7268
6 5 10 -0.2531 2.1723
6 5 11 0.5246 -2.1671
6 5 12 1.3529 -1.8128
6 5 13 -1.2498 2.3636
6 6 0 -0.5042 14.1982
6 6 1 -3.8145 -8.4558
6 6 2 -1.5005 1.6410
6 6 3 3.0172 0.0789
6 6 4 1.0678 -3.3119
6 6 5 -0.4109 3.4512
6 6 6 1.3019 1.3915
6 6 7 -0.0028 -0.0703
6 6 8 -0.9828 -0.5977
6 6 9 0.2076 -1.2216
6 6 10 -1.3571 1.0852
6 6 11 -0.8795 -0.5265
6 6 12 -0.0462 -1.9171
6 6 13 -0.6280 0.9084
7 0 -14 0.7920 0.1055
7 0 -13 0.8438 -0.0996
7 0 -12 0.3377 0.2177
7 0 -11 -0.2244 -0.4040
7 0 -10 0.6334 0.3724
7 0 -9 0.6726 -0.0604
7 0 -8 1.6989 -0.3364
7 0 -7 0.2475 0.5012
7 0 -6 2.3859 -0.3722
7 0 -5 1.7975 0.1664
7 0 -4 -2.5047 -0.1726
7 0 -3 -3.0291 0.3679
7 0 -2 -14.3072 -0.4254
7 0 -1 1.5282 0.1627
7 0 0 9.7563 0.3056
7 0 1 2.7028 -0.6526
7 0 3 -14.2850 -0.2140
7 0 4 9.7249 -0.0230
7 0 5 -4.6720 -0.0771
7 0 6 3.4210 0.2874
7 0 7 1.2626 -0.2112
7 0 8 3.8580 -0.1241
7 0 9 -0.4026 0.4306
7 0 10 -1.1940 -0.4220
7 0 11 0.2502 0.1424
7 0 12 -1.0514 0.0851
7 0 13 -0.3471 -0.0279
7 1 -14 0.4104 -0.4642
7 1 -13 1.0199 -4.7769
7 1 -12 -0.1749 1.4945
7 1 -11 0.2544 -0.0168
7 1 -10 -0.5866 2.4207
7 1 -9 -0.1066 -0.1491
7 1 -8 0.2715 -0.7056
7 1 -7 -0.0136 -3.2162
7 1 -6 0.6967 1.4844
7 1 -5 1.2749 1.6705
7 1 -4 -1.4683 -3.1039
7 1 -3 -1.5716 -0.6391
7 1 -2 -4.6241 -9.1033
7 1 -1 -0.8158 -12.2310
7 1 0 6.3131 7.0119
7 1 1 5.0398 21.4539
7 1 2 1.6587 4.2171
7 1 3 -1.8211 7.0007
7 1 4 0.9541 0.3711
7 1 5 -0.6147 0.1366
7 1 6 -0.2015 4.4014
7 1 7 2.1071 -1.3037
7 1 8 0.0211 0.8153
7 1 9 0.5436 0.6090
7 1 10 -1.0923 -1.5394
7 1 11 0.2316 -0.0303
7 1 12 -1.1720 5.1726
7 1 13 0.0513 2.3629
7 2 -13 1.3755 -5.4162
7 2 -12 -0.0751 5.1387
7 2 -11 -0.4582 2.2173
7 2 -10 -1.2393 0.1694
7 2 -9 -1.3647 0.8508
7 2 -8 -1.5912 -1.5755
7 2 -7 0.7655 -2.8313
7 2 -6 -2.5162 2.9031
7 2 -5 0.6692 -1.5017
7 2 -4 -1.0270 -1.3626
7 2 -3 0.4290 -3.3232
7 2 -2 2.0235 -9.3942
7 2 -1 -7.8288 -8.1608
7 2 0 4.4451 16.7320
7 2 1 2.3350 16.5082
7 2 2 3.4267 5.5395
7 2 3 4.1668 -3.4073
7 2 4 -4.1905 3.8710
7 2 5 3.9329 -2.1856
7 2 6 -2.1840 4.9324
7 2 7 0.8020 -2.4592
7 2 8 0.8195 1.8049
7 2 9 0.6200 -0.7887
7 2 10 -1.5870 -0.5759
7 2 11 -0.2199 0.1395
7 2 12 -1.5376 6.8742
7 2 13 0.7995 2.0729
7 3 -13 2.5318 -1.4265
7 3 -12 0.3507 7.3437
7 3 -11 0.2199 0.7968
7 3 -10 -0.2470 -0.9782
7 3 -9 -0.4556 0.4051
7 3 -8 -1.6848 -0.9005
7 3 -7 0.0061 -0.7785
7 3 -6 -0.3193 -2.1160
7 3 -5 -2.2322 -0.8184
7 3 -4 1.0621 -2.3970
7 3 -3 1.3794 -1.9766
7 3 -2 -2.1725 -0.4973
7 3 -1 -3.7657 1.2991
7 3 0 -1.5271 8.8361
7 3 1 0.7064 -8.6541
7 3 2 4.4429 1.8786
7 3 3 -5.5515 -11.1640
7 3 4 4.4391 3.0761
7 3 5 -0.7077 -1.2875
7 3 6 -0.3575 0.9025
7 3 7 0.1889 -0.3251
7 3 8 1.6741 -0.0342
7 3 9 0.0122 -1.5593
7 3 10 0.0317 0.6282
7 3 11 -0.8160 -0.9925
7 3 12 -0.3196 4.4720
7 3 13 0.1040 0.5854
7 4 -13 2.3210 2.0265
7 4 -12 0.3887 4.5996
7 4 -11 1.2275 -0.9768
7 4 -10 -0.4526 -1.1267
7 4 -9 0.2666 -0.0806
7 4 -8 -0.8096 -2.1900
7 4 -7 0.0492 -0.0624
7 4 -6 1.6141 -1.7740
7 4 -5 0.2120 0.7464
7 4 -4 0.5421 -1.1657
7 4 -3 0.8610 2.4364
7 4 -2 3.5557 2.7978
7 4 -1 -9.0697 7.6257
7 4 0 4.0034 -2.9640
7 4 1 -3.0487 -15.8749
7 4 2 0.3379 2.7838
7 4 3 -1.1275 -4.8045
7 4 4 4.6817 0.6214
7 4 5 -1.3993 1.7471
7 4 6 -0.7924 -1.3471
7 4 7 0.2370 0.0130
7 4 8 -2.2680 -1.5842
7 4 9 1.6583 -1.4044
7 4 10 0.6716 -0.1119
7 4 11 -0.3736 -2.5861
7 4 12 0.6222 0.1709
7 4 13 -1.2904 -0.5133
7 5 -13 1.0814 1.4977
7 5 -12 0.2450 0.1082
7 5 -11 -0.8766 0.2144
7 5 -10 -1.5871 -0.9228
7 5 -9 -0.4521 -0.2805
7 5 -8 -0.8604 -2.6146
7 5 -7 1.7901 1.7402
7 5 -6 1.4948 1.5825
7 5 -5 2.2137 1.5268
7 5 -4 0.2775 -4.0779
7 5 -3 3.8742 -0.3203
7 5 -2 1.7246 -2.4293
7 5 -1 -5.1852 1.7457
7 5 0 4.2907 2.7941
7 5 1 -1.1075 -11.5954
7 5 2 2.7555 3.9644
7 5 3 4.5362 -0.0526
7 5 4 1.0660 -4.4605
7 5 5 1.0700 2.1859
7 5 6 -1.2054 -2.5276
7 5 7 -0.8546 -1.0646
7 5 8 -2.1835 -0.2029
7 5 9 0.3816 -1.3870
7 5 10 0.4625 -0.1673
7 5 11 -0.7412 -2.6352
7 5 12 -0.3989 -1.7721
7 5 13 -1.1538 -0.7815
7 6 -13 0.6143 -1.2353
7 6 -12 -0.3305 -3.0705
7 6 -11 -1.1404 0.4792
7 6 -10 -2.2562 0.8332
7 6 -9 -0.0071 -0.4185
7 6 -8 -0.6865 0.7119
7 6 -7 1.3332 1.5727
7 6 -6 2.1948 2.9174
7 6 -5 -0.8487 0.6369
7 6 -4 3.3649 -8.9439
7 6 -3 0.6247 -3.5083
7 6 -2 -2.4424 -9.5838
7 6 -1 0.2964 -6.0881
7 6 0 -0.9265 6.3702
7 6 1 1.4614 -10.4743
7 6 2 2.1697 -4.0646
7 6 3 0.3125 -3.5871
7 6 4 1.2752 -7.7372
7 6 5 -0.2228 -0.7733
7 6 6 0.5126 -1.0502
7 6 7 -0.2887 -0.1966
7 6 8 -0.1517 0.9811
7 6 9 -1.0542 -0.6615
7 6 10 -0.3097 1.8784
7 6 11 -0.9334 -1.7849
7 6 12 -0.7344 -2.6789
7 6 13 -0.0613 -2.2595
7 7 0 1.7053 -1.3405
7 7 1 -6.7921 -10.4810
7 7 2 -2.2492 -10.9306
7 7 3 -1.5939 -2.6073
7 7 4 -0.0246 -4.2739
7 7 5 0.0606 -1.1508
7 7 6 1.4078 2.9547
7 7 7 0.7572 0.6426
7 7 8 0.4279 -0.1692
7 7 9 -0.1220 1.6975
7 7 10 -1.0910 1.1649
7 7 11 0.3098 -1.7844
7 7 12 -0.0498 -6.1138
7 7 13 0.5763 -4.2891
8 0 -14 1.4876 -0.3121
8 0 -13 0.3241 0.0244
8 0 -12 -0.7567 0.0266
8 0 -11 0.6235 0.0269
8 0 -10 -0.2860 -0.1146
8 0 -9 2.1907 0.1049
8 0 -8 1.1727 0.1357
8 0 -7 0.0745 -0.4088
8 0 -6 3.1551 0.4321
8 0 -5 -1.1064 -0.1953
8 0 -4 -0.1140 -0.0784
8 0 -3 -1.2411 0.1279
8 0 -2 -9.7948 0.0399
8 0 -1 3.6817 -0.0774
8 0 0 4.4651 -0.1187
8 0 1 0.8328 0.4369
8 0 2 1.0883 -0.5588
8 0 3 -7.3674 0.3154
8 0 4 7.3857 0.0576
8 0 5 -5.2134 -0.2311
8 0 6 2.9021 0.1184
8 0 7 1.5994 0.0366
8 0 8 -0.1828 0.0022
8 0 9 -1.5292 -0.2137
8 0 10 -0.7550 0.3197
8 0 11 1.2444 -0.1965
8 0 12 -0.4358 -0.0597
8 0 13 0.2957 0.1844
8 1 -13 0.3133 -3.3609
8 1 -12 -1.2211 3.0900
8 1 -11 0.1443 3.1555
8 1 -10 -0.7649 1.2031
8 1 -9 0.9750 -0.1756
8 1 -8 0.1729 -0.8153
8 1 -7 0.7000 -1.3095
8 1 -6 -0.5624 3.3231
8 1 -5 0.2053 1.6572
8 1 -4 -0.7984 1.4960
8 1 -3 -0.5856 -5.3342
8 1 -2 0.1553 0.8868
8 1 -1 -5.3116 -11.5143
8 1 0 7.6099 24.1319
8 1 2 -2.7570 -5.5306
8 1 3 2.4019 10.1179
8 1 4 -1.5305 -7.3920
8 1 5 1.2883 5.9144
8 1 6 -0.0344 2.1427
8 1 7 2.1496 -1.4292
8 1 8 -0.3153 0.8057
8 1 9 0.1279 0.1094
8 1 10 -1.6886 -1.0726
8 1 11 0.7785 1.7258
8 1 12 -0.1263 3.4386
8 1 13 0.3649 -0.8632
8 2 -13 1.5621 -2.5733
8 2 -12 -0.7873 6.9539
8 2 -11 0.1674 2.8388
8 2 -10 -0.6672 1.2685
8 2 -9 0.9743 0.2543
8 2 -8 -0.2705 -1.5011
8 2 -7 -0.4981 1.3307
8 2 -6 -0.7835 0.8238
8 2 -5 -2.1616 -1.1959
8 2 -4 -2.5842 1.9811
8 2 -3 2.2437 -8.0540
8 2 -2 -3.0739 0.9067
8 2 -1 -3.2260 -0.7325
8 2 0 1.9911 22.3792
8 2 1 -0.8751 13.6584
8 2 2 -2.6076 -7.1906
8 2 3 0.1438 -1.4222
8 2 4 -2.3976 -4.3519
8 2 5 2.9825 1.6508
8 2 6 -1.7422 3.3408
8 2 7 2.5578 -2.9351
8 2 8 0.8805 2.1227
8 2 9 1.1474 -2.0341
8 2 10 -1.4927 -0.0223
8 2 11 -0.4859 2.3492
8 2 12 -0.0477 3.9182
8 2 13 0.2247 -2.3421
8 3 -13 2.1760 0.3193
8 3 -12 -0.4484 5.7868
8 3 -11 1.3623 0.1220
8 3 -10 -1.1398 -0.0014
8 3 -9 1.3633 0.7601
8 3 -8 -0.5389 -0.8537
8 3 -7 -0.9377 0.5086
8 3 -6 1.8996 -1.6326
8 3 -5 -2.6087 -2.6269
8 3 -4 -0.4366 1.6079
8 3 -3 0.6018 -6.3055
8 3 -2 -0.9655 3.7661
8 3 -1 -0.2920 6.2293
8 3 0 -2.2912 1.1399
8 3 1 3.2731 1.8398
8 3 2 -3.7502 -3.9440
8 3 3 -2.5570 -6.3427
8 3 4 3.6036 0.2120
8 3 5 -1.0952 -3.5499
8 3 6 -0.1711 2.4091
8 3 7 1.7775 -1.3038
8 3 8 -0.7621 -0.8889
8 3 9 1.4467 -1.0544
8 3 10 0.4061 -0.7970
8 3 11 -1.0683 0.8074
8 3 12 0.1501 2.1028
8 3 13 -0.8055 -3.5893
8 4 -13 2.0088 1.2443
8 4 -12 0.0614 1.1937
8 4 -11 0.4313 -1.0545
8 4 -10 -1.1458 -1.1603
8 4 -9 -1.7935 0.7094
8 4 -8 -0.0726 -1.5431
8 4 -7 -0.3195 1.3639
8 4 -6 0.9285 -0.8369
8 4 -5 2.7430 0.5556
8 4 -4 -1.7873 -1.3226
8 4 -3 4.6971 -5.5963
8 4 -2 2.5516 1.0726
8 4 -1 0.4232 -0.8267
8 4 0 2.1271 -6.7892
8 4 1 4.8013 -0.6291
8 4 2 1.9169 1.4793
8 4 3 1.9380 0.6044
8 4 4 4.4219 -4.1038
8 4 5 -1.9976 -1.4791
8 4 6 -0.2808 -1.5988
8 4 7 0.2699 -0.8226
8 4 8 -2.6445 -1.6643
8 4 9 1.4075 0.1460
8 4 10 2.5469 -2.3398
8 4 11 -0.7172 -0.7554
8 4 12 0.1506 -0.4976
8 4 13 -0.7061 -3.3716
8 5 -13 1.4998 0.1044
8 5 -12 0.2515 -2.7195
8 5 -11 -0.5972 -0.4115
8 5 -10 -1.5149 -1.2683
8 5 -9 -1.2759 0.4767
8 5 -8 -0.1946 -1.0664
8 5 -7 0.7992 3.1419
8 5 -6 0.9609 2.4170
8 5 -5 1.4686 -0.1826
8 5 -4 0.7376 -4.5130
8 5 -3 5.0778 -5.3089
8 5 -2 -2.5735 -10.0752
8 5 -1 3.1757 -1.3427
8 5 0 1.2732 -9.4837
8 5 1 7.1738 -1.3924
8 5 2 5.5712 0.2501
8 5 3 3.3412 -1.4175
8 5 4 2.1175 -6.9122
8 5 5 -0.7492 -1.5879
8 5 6 -0.7710 -4.0498
8 5 7 -0.0733 -1.3265
8 5 8 -1.9696 0.2804
8 5 9 -0.0501 -1.1231
8 5 10 2.2196 -0.0881
8 5 11 0.0313 -1.5694
8 5 12 0.4713 -1.7906
8 5 13 0.5536 -3.2247
8 6 -13 0.6288 -1.5233
8 6 -12 0.0006 -6.0336
8 6 -11 0.3617 -0.2226
8 6 -10 -1.6773 -2.0477
8 6 -9 1.3514 1.5497
8 6 -8 0.1245 -0.3961
8 6 -7 1.6820 1.4864
8 6 -6 1.4311 5.0156
8 6 -5 0.9996 -2.1476
8 6 -4 1.6579 -1.6118
8 6 -3 0.5883 -1.2036
8 6 -2 -5.3087 -9.7009
8 6 -1 -3.5334 -4.4286
8 6 0 0.7304 -8.6660
8 6 1 0.3693 -8.3944
8 6 2 0.5804 -6.5194
8 6 3 1.4176 -4.8166
8 6 4 -0.4437 -4.6157
8 6 5 0.5848 -3.4291
8 6 6 0.1056 -0.9957
8 6 7 1.4221 -1.1191
8 6 8 -0.6096 -1.1773
8 6 9 -1.1324 0.4605
8 6 10 0.3014 1.8582
8 6 11 0.5837 -2.2017
8 6 12 0.4906 -4.4692
8 6 13 1.3734 -5.3450
8 7 -13 -0.0987 -2.8642
8 7 -12 0.1826 -8.5271
8 7 -11 0.5129 -1.5336
8 7 -10 -0.7172 -1.9130
8 7 -9 -0.2068 2.2234
8 7 -8 1.4317 -1.8666
8 7 -7 0.2773 0.7019
8 7 -6 0.9966 3.3261
8 7 -5 2.0758 -0.3618
8 7 -4 -1.0919 1.9892
8 7 -3 0.7831 4.2502
8 7 -2 -5.4189 -6.9958
8 7 -1 -5.5492 -8.0339
8 7 0 -2.0905 -8.9576
8 7 1 -4.7761 -11.4028
8 7 2 -3.1728 -9.7411
8 7 3 0.1812 -0.5191
8 7 4 -0.6547 -1.2614
8 7 5 0.1335 -1.6083
8 7 6 0.8456 1.3655
8 7 7 1.1558 -0.7608
8 7 8 0.9240 -2.5229
8 7 9 -1.5695 2.7634
8 7 10 -0.1306 0.5005
8 7 11 0.0641 -2.4467
8 7 12 0.3396 -8.5516
8 7 13 0.7060 -5.7878
8 8 0 -4.4312 -12.5157
8 8 1 -1.0679 -6.4138
8 8 2 -1.6863 -7.3469
8 8 3 0.0003 1.8331
8 8 4 0.2256 2.1157
8 8 5 -0.4474 -3.5768
8 8 6 -0.4826 0.7481
8 8 7 -0.6342 -0.2068
8 8 8 0.5289 -1.4594
8 8 9 -1.2193 1.9064
8 8 10 -0.5923 -0.6450
8 8 11 0.0378 -0.1990
8 8 12 0.1382 -8.1722
8 8 13 -0.4884 -2.7374
9 0 -13 -0.7393 0.0806
9 0 -12 -2.4181 -0.3046
9 0 -11 0.1398 0.4094
9 0 -10 -0.0683 -0.2464
9 0 -9 1.8556 -0.0432
9 0 -8 0.1545 0.2172
9 0 -7 1.8549 -0.1249
9 0 -6 0.2635 -0.0643
9 0 -5 -0.7193 0.0336
9 0 -4 3.4414 0.2774
9 0 -3 -2.1240 -0.5542
9 0 -2 5.1577 0.4896
9 0 -1 -0.4817 -0.0907
9 0 0 9.3792 -0.2746
9 0 1 -4.8094 0.3180
9 0 2 -4.2457 -0.0720
9 0 3 2.5290 -0.0679
9 0 4 3.1989 -0.1286
9 0 5 -1.8495 0.4304
9 0 6 3.2920 -0.4954
9 0 7 -1.3053 0.1958
9 0 8 0.4344 0.1678
9 0 9 -2.0148 -0.2993
9 0 10 -0.3325 0.1483
9 0 11 0.7742 0.0064
9 0 12 0.8994 -0.0027
9 0 13 0.4494 -0.1663
9 1 -13 0.0228 -1.1443
9 1 -12 -2.2654 4.8101
9 1 -11 -0.2882 2.9333
9 1 -10 -0.0790 2.0214
9 1 -9 1.5591 -0.6253
9 1 -8 0.3501 -1.0844
9 1 -7 0.9270 3.9814
9 1 -6 0.1554 0.9117
9 1 -5 -0.2248 2.1736
9 1 -4 0.5060 -0.0916
9 1 -3 0.9237 -5.3456
9 1 -2 2.8651 1.6231
9 1 -1 -1.3224 -0.5567
9 1 0 9.4857 27.2612
9 1 1 -4.7929 6.4450
9 1 2 -3.7792 -7.7358
9 1 3 2.8519 3.2102
9 1 4 -0.3468 -9.4352
9 1 5 1.8655 7.2264
9 1 6 0.8128 -1.2070
9 1 7 0.6163 -1.5280
9 1 8 -0.1796 1.6695
9 1 9 -0.4711 -0.8902
9 1 10 -0.7264 -0.0242
9 1 11 -0.4526 2.8041
9 1 12 0.8882 1.6004
9 1 13 0.1635 -1.5956
9 2 -13 1.7491 -0.5894
9 2 -12 -1.0642 6.3112
9 2 -11 0.8903 2.0546
9 2 -10 -0.3926 1.5612
9 2 -9 2.4278 0.9685
9 2 -8 -0.1571 -0.9456
9 2 -7 -0.4989 4.4795
9 2 -6 0.9847 1.1320
9 2 -5 -2.1610 -1.3426
9 2 -4 0.1523 3.0451
9 2 -3 -1.6101 -7.5567
9 2 -2 0.0376 1.5083
9 2 -1 -1.2037 9.7553
9 2 0 2.3836 16.1239
9 2 1 -0.1018 4.5840
9 2 2 -8.8582 -8.4800
9 2 3 1.5919 -4.1740
9 2 4 -3.9992 -3.1601
9 2 5 3.0157 1.1626
9 2 6 -1.3859 0.8126
9 2 7 2.6718 -2.0116
9 2 8 -0.4271 0.9669
9 2 9 0.5078 -1.0970
9 2 10 -0.3542 0.5348
9 2 11 -0.4081 3.4700
9 2 12 -0.0661 1.6585
9 2 13 -0.3878 -3.0325
9 3 -13 2.0828 -0.0582
9 3 -12 0.2855 2.2688
9 3 -11 0.8452 -0.0669
9 3 -10 0.1376 0.3223
9 3 -9 0.7160 1.9593
9 3 -8 -0.9880 0.0257
9 3 -7 0.3546 2.3157
9 3 -6 -0.3456 -0.0854
9 3 -5 -1.0457 2.0933
9 3 -4 -0.1944 3.7374
9 3 -3 -1.4216 -7.2934
9 3 -2 -0.0443 3.3767
9 3 -1 3.3599 0.2300
9 3 0 -3.4943 0.5132
9 3 1 5.1984 4.4355
9 3 2 -5.9849 -1.3556
9 3 3 1.7317 -2.0384
9 3 4 0.3315 -0.0541
9 3 5 -1.2749 -2.2823
9 3 6 -0.0836 1.7102
9 3 7 0.2523 -1.4851
9 3 8 -0.3709 -0.6183
9 3 9 -0.7586 0.8654
9 3 10 2.3039 -0.7963
9 3 11 0.3181 2.5121
9 3 12 -0.3633 -0.4339
9 3 13 0.1505 -4.1152
9 4 -13 1.5932 0.1895
9 4 -12 0.2927 -2.2746
9 4 -11 0.0496 -1.2297
9 4 -10 -1.0538 -0.2331
9 4 -9 -1.5301 1.5771
9 4 -8 -0.0931 0.0880
9 4 -7 -0.5165 2.5420
9 4 -6 0.4734 0.2506
9 4 -5 -0.6501 4.4732
9 4 -4 -0.1902 -0.3283
9 4 -3 2.8195 -3.4624
9 4 -2 -1.3488 -6.2723
9 4 -1 3.5587 -5.5095
9 4 0 -1.5842 -7.8816
9 4 1 6.9292 3.4422
9 4 2 1.5658 5.5453
9 4 3 3.4886 -2.2829
9 4 4 3.7724 -3.6294
9 4 5 -3.6041 -0.2514
9 4 6 1.8802 -2.0053
9 4 7 -0.9014 -1.0798
9 4 8 -0.6627 0.4979
9 4 9 -0.1136 0.0142
9 4 10 2.7975 -0.4049
9 4 11 0.8644 1.3930
9 4 12 0.9959 -2.0148
9 4 13 1.2323 -4.1855
9 5 -13 0.8431 0.4624
9 5 -12 0.0036 -5.0785
9 5 -11 0.1837 -0.3878
9 5 -10 -1.7913 -2.8717
9 5 -9 0.1042 2.3946
9 5 -8 -0.4754 -1.4659
9 5 -7 0.3957 2.3011
9 5 -6 0.6161 2.4693
9 5 -5 -0.2422 -2.0223
9 5 -4 1.8005 1.5226
9 5 -3 2.5184 0.1425
9 5 -2 -2.9981 -6.7226
9 5 -1 -1.5879 -2.8019
9 5 0 2.1595 -12.4680
9 5 1 4.2904 -1.8886
9 5 2 0.2307 1.8395
9 5 3 4.5071 -5.7152
9 5 4 0.1236 -6.2520
9 5 5 -0.5433 -0.5545
9 5 6 1.2396 -4.1783
9 5 7 0.9639 -0.8872
9 5 8 0.0242 -0.9513
9 5 9 0.4811 -0.8186
9 5 10 1.1595 1.9122
9 5 11 1.7610 1.0351
9 5 12 1.6108 -2.8212
9 5 13 2.2357 -5.2538
9 6 -13 -0.2301 0.4956
9 6 -12 -0.0894 -6.6583
9 6 -11 0.4571 -0.0258
9 6 -10 -0.4276 -4.1795
9 6 -9 0.7834 1.5123
9 6 -8 0.2894 -2.7513
9 6 -7 0.6958 0.7878
9 6 -6 1.0331 2.2167
9 6 -5 1.0022 -3.2310
9 6 -4 1.4047 3.8019
9 6 -3 1.5363 7.2276
9 6 -2 -6.1269 1.4832
9 6 -1 -0.4467 -4.9031
9 6 0 -0.7541 -9.7387
9 6 1 1.4207 -10.1125
9 6 2 -2.2736 -2.9694
9 6 3 2.7749 -4.1692
9 6 4 -0.4258 -5.4495
9 6 5 0.6479 -2.0565
9 6 6 0.8315 -2.3231
9 6 7 1.2984 -2.2930
9 6 8 1.0941 -3.2974
9 6 9 -1.2598 0.7196
9 6 10 0.6853 2.9238
9 6 11 0.8807 0.0251
9 6 12 0.9146 -5.5821
9 6 13 2.3746 -6.1384
9 7 -13 -0.8305 -0.1123
9 7 -12 -0.1378 -6.6136
9 7 -11 0.0611 0.7365
9 7 -10 -0.1046 -1.9668
9 7 -9 -0.3376 0.0860
9 7 -8 1.0360 -2.4930
9 7 -7 -1.1323 0.5977
9 7 -6 1.5625 1.5549
9 7 -5 -0.1809 -4.2708
9 7 -4 1.0043 4.1931
9 7 -3 -0.0903 5.5192
9 7 -2 -3.5994 0.7114
9 7 -1 0.6443 -4.4538
9 7 0 -2.2769 -9.5468
9 7 1 -0.2110 -10.7821
9 7 2 0.2963 -4.1679
9 7 3 1.0377 -1.1831
9 7 4 1.5309 -2.0209
9 7 5 -1.0810 -3.9885
9 7 6 1.4966 -1.2745
9 7 7 -0.4653 -3.0941
9 7 8 0.8540 -1.8720
9 7 9 -1.7065 1.6241
9 7 10 -0.2660 1.3672
9 7 11 -0.3212 -0.0014
9 7 12 0.1590 -6.9506
9 7 13 0.7538 -4.0381
9 8 -12 0.1269 -4.6611
9 8 -11 0.0821 3.7981
9 8 -10 0.3499 -0.0557
9 8 -9 -0.3313 1.1832
9 8 -8 -0.6525 -1.7340
9 8 -7 -0.9057 0.3100
9 8 -6 -1.8680 0.0228
9 8 -5 0.2975 -8.1411
9 8 -4 -0.3086 2.7466
9 8 -3 0.0875 -2.5711
9 8 -2 -0.4426 1.4330
9 8 -1 -0.0040 -7.5566
9 8 0 -1.8783 -2.6761
9 8 1 -0.4347 -11.1476
9 8 2 0.4472 -1.4599
9 8 3 0.8423 0.1085
9 8 4 -0.3024 -0.5624
9 8 5 -0.4249 -5.9597
9 8 6 -0.9740 -1.9139
9 8 7 -0.8929 -1.7710
9 8 8 -0.5084 -0.5593
9 8 9 -0.6353 1.2072
9 8 10 -0.7257 -0.1984
9 8 11 0.9585 3.0835
9 8 12 -0.6140 -4.7100
9 9 0 -5.3581 7.9746
9 9 1 1.6334 -10.0247
9 9 2 -2.4606 2.2462
9 9 3 1.1902 0.5361
9 9 4 -0.4406 -0.1532
9 9 5 -0.2346 -5.4397
9 9 6 -2.0167 -1.8072
9 9 7 -0.6239 -1.2491
9 9 8 -0.8682 -2.1767
9 9 9 -0.0752 1.3127
9 9 10 1.3429 0.0318
9 9 11 1.0922 4.8908
9 9 12 0.2242 -2.7082
10 0 -13 -0.7617 -0.0578
10 0 -12 -2.0454 0.1733
10 0 -11 -0.7575 -0.2978
10 0 -10 0.1520 0.2004
10 0 -9 0.8391 0.0914
10 0 -8 -0.7693 -0.3842
10 0 -7 0.6530 0.4197
10 0 -6 1.0084 -0.2144
10 0 -5 0.8719 0.0345
10 0 -4 2.2614 -0.0767
10 0 -3 4.6876 0.2467
10 0 -2 2.5194 -0.2229
10 0 -1 4.9198 -0.0981
10 0 0 9.6525 0.4924
10 0 1 -3.5577 -0.6124
10 0 2 3.1885 0.3533
10 0 3 -0.9506 0.0203
10 0 4 5.5514 -0.1529
10 0 5 -2.1494 -0.0277
10 0 6 2.6203 0.1690
10 0 7 -1.1313 -0.0418
10 0 8 -0.4600 -0.2651
10 0 9 -1.1163 0.4180
10 0 10 1.0998 -0.2740
10 0 11 -0.8017 -0.0176
10 0 12 1.8478 0.1754
10 0 13 -0.5101 -0.1531
10 1 -13 0.6885 -0.2484
10 1 -12 -1.0914 4.3156
10 1 -11 0.6034 1.6140
10 1 -10 0.2281 0.4435
10 1 -9 1.6696 -0.5386
10 1 -8 0.0044 0.9533
10 1 -7 -1.1997 2.7322
10 1 -6 1.3044 2.6324
10 1 -5 0.1001 -0.5314
10 1 -4 0.3372 -0.4807
10 1 -3 2.7626 -1.4309
10 1 -2 0.2518 -0.0194
10 1 -1 0.9430 10.2905
10 1 0 6.9676 15.0198
10 1 1 -2.1999 -4.7090
10 1 2 0.4376 -6.3251
10 1 3 0.1293 -1.3177
10 1 4 -0.1995 -3.9176
10 1 5 0.6126 4.6321
10 1 6 -0.9451 -3.6191
10 1 7 1.3541 0.7831
10 1 8 -1.6628 -1.2361
10 1 9 -0.2412 0.4400
10 1 10 0.6053 0.2267
10 1 11 -0.2387 2.6439
10 1 12 1.6018 1.5823
10 1 13 -0.8011 -0.4938
10 2 -13 1.7899 -0.8292
10 2 -12 0.3581 3.3891
10 2 -11 0.3777 0.9542
10 2 -10 1.3483 -0.0225
10 2 -9 2.0864 -0.0048
10 2 -8 -0.7180 2.1477
10 2 -7 1.0707 2.2493
10 2 -6 -0.8844 2.0459
10 2 -5 0.8501 1.2609
10 2 -4 -1.2911 4.2760
10 2 -3 -0.1429 -3.0179
10 2 -2 -2.5162 3.7672
10 2 -1 1.3363 10.5260
10 2 0 0.5718 4.8595
10 2 1 -2.9655 -1.4088
10 2 2 -2.5137 -5.8491
10 2 3 1.1412 -0.7218
10 2 4 -3.3757 0.4660
10 2 5 3.3219 1.6218
10 2 6 -3.2440 -1.3606
10 2 7 1.9626 -0.0024
10 2 8 -0.5782 -1.2262
10 2 9 -2.2286 1.1712
10 2 10 0.7786 0.3126
10 2 11 0.3438 3.9103
10 2 12 -0.1560 0.3750
10 2 13 -0.1990 -1.3387
10 3 -13 1.2945 -1.0162
10 3 -12 0.8720 -0.3738
10 3 -11 -0.0466 -0.0545
10 3 -10 -0.1542 1.1973
10 3 -9 0.4482 -0.0705
10 3 -8 -1.1445 3.4008
10 3 -7 0.2874 0.7293
10 3 -6 -0.2331 1.0100
10 3 -5 -1.6232 7.8793
10 3 -4 -0.1694 1.6117
10 3 -3 0.2741 1.5960
10 3 -2 -2.3330 -2.7441
10 3 -1 4.5695 0.6439
10 3 0 -3.8532 -2.1875
10 3 1 0.6721 2.2115
10 3 2 -0.9656 3.7106
10 3 3 1.9137 -2.6919
10 3 4 0.7843 1.8251
10 3 5 -0.3696 -0.3891
10 3 6 -0.6775 0.9864
10 3 7 0.1451 -0.9479
10 3 8 0.7765 1.2501
10 3 9 -2.0320 1.4784
10 3 10 1.8412 0.5270
10 3 11 0.1160 3.0590
10 3 12 0.2781 -1.9861
10 3 13 0.5957 -2.7190
10 4 -13 0.2119 -0.0823
10 4 -12 0.2385 -3.4094
10 4 -11 0.2886 0.7212
10 4 -10 -2.2203 0.3141
10 4 -9 -0.2629 1.3208
10 4 -8 -0.0285 2.1210
10 4 -7 -1.6679 0.1513
10 4 -6 0.4830 1.8723
10 4 -5 -2.4382 4.4879
10 4 -4 -0.5889 -1.2041
10 4 -3 1.6436 4.7660
10 4 -2 -0.9760 -6.6646
10 4 -1 -2.9267 -1.4446
10 4 0 2.2466 -4.9031
10 4 1 0.9520 1.3914
10 4 2 -0.3675 6.1610
10 4 3 3.5480 -6.4392
10 4 4 0.8282 -2.6042
10 4 5 -1.4949 0.5399
10 4 6 1.8469 -2.1624
10 4 7 -0.7052 0.5102
10 4 8 1.1609 0.3649
10 4 9 0.3800 1.2494
10 4 10 1.1602 1.7442
10 4 11 0.7346 3.0562
10 4 12 1.9589 -2.1938
10 4 13 1.6583 -4.2978
10 5 -13 -0.7400 0.9923
10 5 -12 -0.4400 -4.8180
10 5 -11 -0.0627 1.1095
10 5 -10 -1.1511 -1.7968
10 5 -9 -0.4484 1.7742
10 5 -8 0.2823 -1.9078
10 5 -7 -0.3010 1.2279
10 5 -6 0.4585 -0.5599
10 5 -5 0.1058 -0.9891
10 5 -4 -0.0555 0.2942
10 5 -3 2.9837 8.4206
10 5 -2 -5.3079 2.7844
10 5 -1 -2.6906 -0.1695
10 5 0 2.6778 -7.1179
10 5 1 -0.6643 -2.8143
10 5 2 -0.6903 2.4195
10 5 3 1.6656 -5.4276
10 5 4 -0.2330 -6.1038
10 5 5 1.5130 1.0810
10 5 6 1.5918 -5.4721
10 5 7 0.2673 0.2446
10 5 8 1.6849 -3.4650
10 5 9 -0.1123 0.9281
10 5 10 0.8674 4.2869
10 5 11 0.7518 3.6428
10 5 12 1.6050 -3.0588
10 5 13 2.4086 -4.8445
10 6 -13 -1.0541 1.0866
10 6 -12 -0.6922 -5.2260
10 6 -11 0.0593 1.2321
10 6 -10 -0.3834 -1.7324
10 6 -9 -0.5480 -0.4596
10 6 -8 -0.0875 -2.9080
10 6 -7 -0.6786 0.6877
10 6 -6 2.3231 -0.3455
10 6 -5 -1.2210 -3.2280
10 6 -4 2.9637 1.8222
10 6 -3 0.2830 9.0333
10 6 -2 -4.0343 6.7071
10 6 -1 1.8118 -1.5576
10 6 0 0.6527 -6.6856
10 6 1 -0.6610 -7.9553
10 6 2 0.8083 2.8167
10 6 3 0.5441 -3.7598
10 6 4 0.1373 -2.9267
10 6 5 1.5725 -1.8381
10 6 6 1.7576 -4.1067
10 6 7 0.2776 -3.0707
10 6 8 1.4599 -3.8494
10 6 9 -0.8434 1.1111
10 6 10 0.8902 4.6611
10 6 11 -0.2594 2.1218
10 6 12 0.6940 -4.0900
10 6 13 1.5865 -3.5370
10 7 -12 -0.2053 -4.4203
10 7 -11 -0.0148 3.3433
10 7 -10 0.6226 -0.5206
10 7 -9 0.0184 0.0967
10 7 -8 0.0541 -2.4070
10 7 -7 -1.1781 0.8835
10 7 -6 0.7828 0.5050
10 7 -5 -1.1876 -6.6870
10 7 -4 0.5296 2.0525
10 7 -3 -0.6334 -1.9625
10 7 -2 -0.2386 7.1435
10 7 -1 0.0436 -7.1382
10 7 0 2.8350 0.9352
10 7 1 -1.7866 -12.2294
10 7 2 1.7055 2.6343
10 7 3 1.6279 -0.4942
10 7 4 -1.3214 -1.1391
10 7 5 0.6370 -3.5189
10 7 6 1.4994 -2.5168
10 7 7 -0.5514 -3.5229
10 7 8 0.6088 -1.9065
10 7 9 -0.9897 1.1850
10 7 10 0.2124 0.8484
10 7 11 0.3083 2.5763
10 7 12 0.0411 -3.3222
10 8 -12 0.6890 -2.9250
10 8 -11 -0.3446 5.1826
10 8 -10 2.1956 -0.0337
10 8 -9 0.8051 2.0794
10 8 -8 0.1391 -2.6025
10 8 -7 -0.0638 -0.1672
10 8 -6 -0.6835 -1.6754
10 8 -5 0.1084 -6.5916
10 8 -4 -0.7487 0.7491
10 8 -3 1.0048 -4.6252
10 8 -2 -1.9948 6.1574
10 8 -1 1.2287 -7.5276
10 8 0 -1.8035 8.6024
10 8 1 -0.5428 -11.6473
10 8 2 -1.7269 0.6699
10 8 3 1.3518 3.3767
10 8 4 -1.2877 -2.6032
10 8 5 0.4178 -1.7988
10 8 6 0.0150 -2.5832
10 8 7 -0.0118 -0.9846
10 8 8 0.0561 -2.3482
10 8 9 -1.3624 0.0175
10 8 10 0.4221 -0.9149
10 8 11 1.4012 3.8555
10 8 12 -0.4557 -2.4490
10 9 -12 1.3146 -2.0217
10 9 -11 -0.3301 3.7165
10 9 -10 1.9620 -0.8601
10 9 -9 0.6408 2.0239
10 9 -8 0.1192 -2.6085
10 9 -7 -0.2310 -3.1173
10 9 -6 0.4593 -0.4604
10 9 -5 -1.1543 -3.5576
10 9 -4 1.3725 2.5057
10 9 -3 0.6175 0.6723
10 9 -2 -0.5864 0.7896
10 9 -1 0.8246 -2.1061
10 9 0 -2.7573 8.5768
10 9 1 -0.3561 -4.3837
10 9 2 -1.6935 -1.0748
10 9 3 0.7601 2.9084
10 9 4 0.0208 -0.6175
10 9 5 -0.7543 -1.4673
10 9 6 -0.5304 -0.6542
10 9 7 -0.0912 -0.8931
10 9 8 0.5584 -3.9473
10 9 9 -0.9517 0.8134
10 9 10 1.4573 -0.4958
10 9 11 0.3678 2.1676
10 9 12 0.5203 -1.9284
10 10 0 1.4532 5.3183
10 10 1 -0.1528 0.2195
10 10 2 1.2006 -2.3683
10 10 3 1.1771 -0.2343
10 10 4 -0.7382 1.3733
10 10 5 -1.3363 -1.0124
10 10 6 -0.7580 0.6279
10 10 7 -1.0221 -1.7744
10 10 8 0.8590 -2.2745
10 10 9 -0.3210 1.8895
10 10 10 1.2611 -0.7413
10 10 11 -0.7305 0.9950
10 10 12 0.8904 -1.3922
11 0 -13 0.1139 -0.0111
11 0 -12 -0.2935 0.2041
11 0 -11 0.9408 -0.1730
11 0 -10 -0.2480 -0.0208
11 0 -9 0.4166 0.1393
11 0 -8 0.5133 -0.0107
11 0 -7 -2.6387 -0.2516
11 0 -6 2.5651 0.3211
11 0 -5 -0.1579 -0.0488
11 0 -4 1.5383 -0.3191
11 0 -3 3.7492 0.4021
11 0 -2 -0.6744 -0.1444
11 0 -1 1.2410 -0.1211
11 0 0 0.9717 0.1083
11 0 1 3.5826 0.1495
11 0 2 2.0752 -0.3330
11 0 3 -0.1368 0.1501
11 0 4 3.3960 0.2481
11 0 5 -3.3478 -0.4737
11 0 6 1.3604 0.2934
11 0 7 0.6435 0.0367
11 0 8 -1.5843 -0.1708
11 0 9 0.4493 0.0218
11 0 10 0.6737 0.1689
11 0 11 0.5306 -0.1262
11 0 12 2.5544 -0.0936
11 0 13 -1.3501 0.1995
11 1 -13 1.0870 -0.2609
11 1 -12 0.7080 1.7641
11 1 -11 0.7817 0.0429
11 1 -10 0.7962 -0.9900
11 1 -9 0.3435 -1.9175
11 1 -8 -0.0258 2.1218
11 1 -7 -0.6325 1.0857
11 1 -6 0.1456 -0.0722
11 1 -5 1.7907 -0.5457
11 1 -4 -0.4684 2.0504
11 1 -3 2.8512 0.2884
11 1 -2 -1.9223 6.1142
11 1 -1 -0.4992 8.7561
11 1 0 -0.5269 1.8700
11 1 1 -0.1757 -6.4407
11 1 2 0.3298 -3.4951
11 1 3 0.5452 2.2603
11 1 4 -0.4082 -0.8713
11 1 5 0.2304 3.3821
11 1 6 -0.8104 -3.8319
11 1 7 1.5653 0.8766
11 1 8 -0.3085 -1.8668
11 1 9 -0.1932 0.8191
11 1 10 -0.0171 -0.2807
11 1 11 1.0693 3.8234
11 1 12 1.2782 1.0266
11 1 13 -1.1120 1.2819
11 2 -13 1.0587 -1.1044
11 2 -12 0.9046 0.7520
11 2 -11 0.3819 -0.6897
11 2 -10 1.0125 0.3947
11 2 -9 0.5072 -2.7596
11 2 -8 -0.2685 2.7570
11 2 -7 0.2458 1.6158
11 2 -6 0.0825 -1.4696
11 2 -5 0.7769 3.9347
11 2 -4 -1.1240 3.2374
11 2 -3 1.6873 2.9445
11 2 -2 -2.2991 5.0192
11 2 -1 4.5813 7.1455
11 2 0 -2.7698 -4.1210
11 2 1 -0.9205 -2.2928
11 2 2 0.5139 1.4772
11 2 3 1.4004 1.8006
11 2 4 0.0936 1.6082
11 2 5 2.5428 1.3340
11 2 6 -3.4184 -0.9430
11 2 7 2.2052 -1.1595
11 2 8 -0.7211 1.1590
11 2 9 -0.9385 1.0235
11 2 10 -0.1465 -0.0150
11 2 11 -0.4073 4.9495
11 2 12 0.3448 -0.4778
11 2 13 -0.7835 1.0733
11 3 -13 -0.1396 -1.0920
11 3 -12 0.3196 -1.1929
11 3 -11 0.3499 1.1703
11 3 -10 -1.3746 1.6160
11 3 -9 0.2139 -0.9998
11 3 -8 0.1258 3.7061
11 3 -7 -1.0645 -0.6544
11 3 -6 1.0310 3.1014
11 3 -5 -1.2457 4.9810
11 3 -4 -0.5232 -1.0422
11 3 -3 -0.0741 4.4853
11 3 -2 0.6811 -2.0539
11 3 -1 0.7225 3.3240
11 3 0 -2.4946 -2.1473
11 3 1 2.7311 3.1021
11 3 2 -2.3255 4.6940
11 3 3 3.6932 -2.0723
11 3 4 0.4306 0.9279
11 3 5 1.5738 -1.1106
11 3 6 -1.2965 1.5474
11 3 7 1.0956 -1.3163
11 3 8 -0.4140 2.9722
11 3 9 0.3177 1.9298
11 3 10 -0.5290 0.0498
11 3 11 -1.2374 3.5966
11 3 12 0.5267 -1.1165
11 3 13 -0.0587 -0.9594
11 4 -13 -0.8050 -0.1415
11 4 -12 0.0299 -2.6142
11 4 -11 -0.0452 2.1956
11 4 -10 -1.5992 1.7802
11 4 -9 -1.0493 1.2596
11 4 -8 1.0114 0.9523
11 4 -7 -2.1329 0.4644
11 4 -6 0.3585 2.7411
11 4 -5 0.8386 2.5240
11 4 -4 -2.4625 -4.1373
11 4 -3 4.0648 5.5555
11 4 -2 -3.4976 0.1720
11 4 -1 -4.0686 5.3363
11 4 0 1.1748 0.0222
11 4 1 -0.4185 2.7733
11 4 2 -1.3504 3.3470
11 4 3 -0.3851 -3.1783
11 4 4 0.0555 -2.5633
11 4 5 0.8157 0.5461
11 4 6 1.5977 -2.0537
11 4 7 -0.6969 0.1539
11 4 8 1.0156 -0.3487
11 4 9 0.5471 2.0374
11 4 10 0.0813 1.5589
11 4 11 -0.7057 4.0807
11 4 12 0.9008 -1.7229
11 4 13 0.7923 -2.2549
11 5 -12 -0.5189 -3.7066
11 5 -11 0.3419 1.3062
11 5 -10 -1.0614 1.4116
11 5 -9 -1.1257 0.7675
11 5 -8 0.4881 -2.1084
11 5 -7 -1.5250 1.7883
11 5 -6 1.1390 0.7273
11 5 -5 0.0645 0.2600
11 5 -4 0.5122 -0.5665
11 5 -3 2.6478 6.8681
11 5 -2 -5.0025 4.3036
11 5 -1 -0.9928 5.6545
11 5 0 0.9554 -3.0067
11 5 1 -1.3271 -0.6720
11 5 2 0.7520 4.6281
11 5 3 -2.5348 -2.9663
11 5 4 0.6462 -1.4786
11 5 5 1.2149 1.1870
11 5 6 1.8278 -4.6637
11 5 7 -0.7134 -1.1965
11 5 8 -0.1136 -3.6555
11 5 9 0.3272 2.0201
11 5 10 0.1171 4.0628
11 5 11 -0.1792 3.4471
11 5 12 0.9904 -3.1701
11 6 -12 -0.8889 -4.2263
11 6 -11 0.7179 1.8366
11 6 -10 -1.2053 0.1207
11 6 -9 -0.3986 0.5231
11 6 -8 -0.3834 -1.6139
11 6 -7 -0.0178 0.7274
11 6 -6 0.3236 2.6395
11 6 -5 -0.7976 -3.2349
11 6 -4 1.1179 2.6901
11 6 -3 -0.9799 -0.1990
11 6 -2 -0.5745 5.7413
11 6 -1 0.1608 -5.4428
11 6 0 1.2106 2.6840
11 6 1 -0.4898 -6.7763
11 6 2 0.2042 5.0176
11 6 3 0.3787 -1.3938
11 6 4 -1.3193 0.4734
11 6 5 2.4424 -0.8080
11 6 6 1.2727 -1.7572
11 6 7 0.9195 -3.6740
11 6 8 -0.6306 -2.9103
11 6 9 -0.0106 2.7033
11 6 10 -0.2886 2.2875
11 6 11 0.1400 1.7577
11 6 12 0.6598 -2.8426
11 7 -12 -0.2840 -3.1684
11 7 -11 0.3165 3.2813
11 7 -10 0.3995 -0.4630
11 7 -9 -0.2512 1.5591
11 7 -8 0.9540 -0.8426
11 7 -7 -0.1735 0.0552
11 7 -6 -0.3272 -0.1102
11 7 -5 -0.0296 -4.5614
11 7 -4 -1.5474 -0.2329
11 7 -3 1.3659 -4.8216
11 7 -2 -1.2996 5.5797
11 7 -1 2.0120 -10.3980
11 7 0 0.4765 10.7978
11 7 1 -1.2403 -9.2533
11 7 2 -1.3517 1.2653
11 7 3 -0.5325 1.6020
11 7 4 -1.9835 -1.5983
11 7 5 1.7684 -0.8145
11 7 6 1.1969 0.3527
11 7 7 2.2722 -2.2143
11 7 8 0.5285 -1.7970
11 7 9 -0.6343 1.2299
11 7 10 0.2148 -0.9057
11 7 11 0.5237 2.6486
11 7 12 0.5806 -2.4572
11 8 -12 0.4973 -1.4411
11 8 -11 -0.2110 3.3981
11 8 -10 1.7800 -1.2274
11 8 -9 0.4581 1.5425
11 8 -8 1.2983 -0.9563
11 8 -7 0.6346 -2.9302
11 8 -6 0.6809 -1.8688
11 8 -5 -0.0346 -4.1448
11 8 -4 0.3325 1.3507
11 8 -3 0.7619 -1.0057
11 8 -2 0.0578 2.5521
11 8 -1 1.8175 -3.0628
11 8 0 0.2395 9.0352
11 8 1 -1.4556 -4.2357
11 8 2 -1.5948 -1.4150
11 8 3 -0.7777 1.7003
11 8 4 -0.5897 -2.7359
11 8 5 0.6814 -0.7564
11 8 6 0.5467 0.4852
11 8 7 1.8572 0.2767
11 8 8 0.9177 -3.6046
11 8 9 -0.7826 0.2730
11 8 10 0.2304 -0.5772
11 8 11 0.5281 2.0892
11 8 12 0.4369 -2.2901
11 9 -12 0.3747 -0.5690
11 9 -11 -0.7177 1.6211
11 9 -10 1.4081 -1.1226
11 9 -9 0.3580 0.4090
11 9 -8 0.6378 -0.3972
11 9 -7 1.1664 -3.4243
11 9 -6 0.3930 -0.2384
11 9 -5 0.4291 -1.1365
11 9 -4 0.2376 3.8393
11 9 -3 0.4531 -0.5441
11 9 -2 1.7253 -1.1095
11 9 -1 0.2377 0.0422
11 9 0 1.0730 4.9525
11 9 1 0.1257 -0.2087
11 9 2 0.3870 -1.4677
11 9 3 1.3693 -0.2899
11 9 4 -0.7585 -2.0273
11 9 5 0.4970 -1.5771
11 9 6 -1.1417 0.8640
11 9 7 0.7365 -0.1423
11 9 8 0.7955 -4.0033
11 9 9 -0.8445 2.0991
11 9 10 0.5278 -0.0625
11 9 11 -0.9267 0.3743
11 9 12 0.3056 -1.3033
11 10 -11 -0.3158 0.3231
11 10 -10 0.5825 1.1282
11 10 -9 0.3409 0.2126
11 10 -8 0.7336 0.0888
11 10 -7 -1.4942 0.7087
11 10 -6 0.1250 -1.3373
11 10 -5 -0.8318 1.2917
11 10 -4 -0.9865 -0.4437
11 10 -3 0.9580 -2.1795
11 10 -2 -0.0025 -2.8306
11 10 -1 0.9190 1.1417
11 10 0 -0.1378 -1.1866
11 10 1 2.0924 1.6490
11 10 2 0.2501 -2.0157
11 10 3 0.7386 -0.6035
11 10 4 -1.1948 -1.9348
11 10 5 -1.4668 -0.8853
11 10 6 -1.1953 -0.1601
11 10 7 -1.0169 0.0738
11 10 8 0.2637 -1.8078
11 10 9 0.4264 1.9544
11 10 10 0.5195 0.6110
11 10 11 -1.1836 0.7951
11 11 0 -0.6895 -5.5752
11 11 1 -0.8408 1.4581
11 11 2 -0.1884 0.2260
11 11 3 -1.3270 -0.3512
11 11 4 0.1706 -1.7053
11 11 5 -1.2776 -0.4622
11 11 6 0.0226 -1.4561
11 11 7 -2.6226 1.6982
11 11 8 0.5113 -1.4698
11 11 9 0.9982 0.6640
11 11 10 0.1993 2.3274
11 11 11 0.1862 0.2789
12 0 -13 0.8577 0.1224
12 0 -12 1.3204 -0.1921
12 0 -11 0.8537 0.2048
12 0 -10 0.3779 -0.0116
12 0 -9 -0.2261 -0.2059
12 0 -8 -1.2762 0.2687
12 0 -7 1.2746 -0.1191
12 0 -6 -1.5279 -0.0447
12 0 -5 1.4809 0.0319
12 0 -4 0.8841 0.1285
12 0 -3 1.2588 -0.2053
12 0 -2 -1.2288 0.0059
12 0 -1 -3.3211 0.3080
12 0 0 -3.7170 -0.4289
12 0 1 3.4610 0.2229
12 0 2 -1.4512 0.0887
12 0 3 0.6923 -0.1871
12 0 4 1.1870 0.0413
12 0 5 -2.1013 0.1078
12 0 6 3.0516 -0.0425
12 0 7 -1.0520 -0.1717
12 0 8 2.3551 0.2901
12 0 9 0.3235 -0.1648
12 0 10 -0.2736 -0.0543
12 0 11 2.8779 0.1866
12 0 12 0.8359 -0.1367
12 0 13 -0.8560 0.0399
12 1 -13 0.7678 -0.3547
12 1 -12 0.8981 -0.1338
12 1 -11 0.4363 -1.5775
12 1 -10 0.3877 0.0027
12 1 -9 -0.0481 -3.2368
12 1 -8 -1.2781 0.8823
12 1 -7 1.9662 1.5198
12 1 -6 -0.5085 -4.1837
12 1 -5 1.5741 0.9721
12 1 -4 0.4560 1.5530
12 1 -3 1.2066 3.8099
12 1 -2 -1.7132 6.1597
12 1 -1 -0.5892 2.8513
12 1 0 -2.7577 -4.5291
12 1 1 0.6225 -4.8262
12 1 2 -0.1766 5.8056
12 1 3 0.2135 1.5475
12 1 4 1.9248 0.7227
12 1 5 0.6029 1.9636
12 1 6 1.5626 -2.4533
12 1 7 0.0566 -0.5212
12 1 8 1.3198 0.3899
12 1 9 0.2713 0.4028
12 1 10 -0.6290 0.2437
12 1 11 1.0999 4.0963
12 1 12 0.1716 1.2649
12 1 13 -1.2780 1.8455
12 2 -13 0.3803 -1.0550
12 2 -12 0.0876 -0.7471
12 2 -11 0.7101 -0.4799
12 2 -10 -0.4264 0.5747
12 2 -9 0.1868 -3.0757
12 2 -8 -1.3331 2.2478
12 2 -7 0.8932 -0.1166
12 2 -6 0.4577 0.1014
12 2 -5 0.6698 1.3860
12 2 -4 1.0269 0.9069
12 2 -3 -0.7345 3.0849
12 2 -2 2.8631 3.6128
12 2 -1 1.5277 1.7469
12 2 0 -2.7507 -6.7514
12 2 1 2.8556 3.9924
12 2 2 -1.6304 7.0847
12 2 3 2.0903 1.3723
12 2 4 0.4639 1.5061
12 2 5 2.5403 0.0136
12 2 6 -1.5077 0.1305
12 2 7 2.3212 -1.0068
12 2 8 -0.7288 2.7079
12 2 9 1.6623 0.9961
12 2 10 -1.4490 0.2787
12 2 11 -0.5293 3.5500
12 2 12 -0.5674 1.6480
12 2 13 -1.4090 1.5106
12 3 -13 -0.0392 -0.8636
12 3 -12 0.3887 -0.9172
12 3 -11 0.2875 1.3033
12 3 -10 -0.3933 1.6555
12 3 -9 0.4855 -0.6265
12 3 -8 -0.9844 2.2681
12 3 -7 0.1534 -0.5144
12 3 -6 -0.3332 5.6860
12 3 -5 0.9417 1.3552
12 3 -4 -0.4947 -3.9511
12 3 -3 0.9929 0.8605
12 3 -2 1.5523 0.1901
12 3 -1 -2.0240 5.8192
12 3 0 -1.2184 0.1011
12 3 1 2.4411 8.0824
12 3 2 -1.6409 4.5813
12 3 3 0.5094 0.9052
12 3 4 -1.3797 -0.3033
12 3 5 2.0790 0.0081
12 3 6 -0.6512 1.3096
12 3 7 0.5620 -1.2557
12 3 8 0.1494 3.0804
12 3 9 1.1781 0.0391
12 3 10 -1.3010 -0.0775
12 3 11 -0.1273 2.0789
12 3 12 -0.8953 1.0211
12 3 13 -0.1930 0.5746
12 4 -12 0.2500 -1.3847
12 4 -11 0.2297 0.6788
12 4 -10 -1.0590 3.0675
12 4 -9 0.4608 0.0706
12 4 -8 0.2725 0.1687
12 4 -7 -1.7091 1.0940
12 4 -6 2.6014 5.5659
12 4 -5 0.2091 1.8026
12 4 -4 0.8235 -2.9829
12 4 -3 3.2981 2.5281
12 4 -2 -3.0315 -0.5081
12 4 -1 -3.3440 11.7018
12 4 0 1.0412 2.0210
12 4 1 -0.9000 3.6447
12 4 2 0.4964 6.4905
12 4 3 -2.9484 -0.6639
12 4 4 0.8637 -0.0072
12 4 5 0.1582 1.1487
12 4 6 2.5627 -1.1214
12 4 7 -2.1254 -1.5268
12 4 8 -0.3777 -0.1674
12 4 9 0.4090 -0.3697
12 4 10 -1.4937 1.3772
12 4 11 -0.1032 1.1893
12 4 12 0.0675 -1.1840
12 5 -12 -0.2452 -2.4966
12 5 -11 0.8792 0.6806
12 5 -10 -2.4772 1.7284
12 5 -9 0.0943 0.6236
12 5 -8 -0.9165 -0.7346
12 5 -7 -0.5752 1.2931
12 5 -6 1.2746 6.2409
12 5 -5 -0.0269 0.4815
12 5 -4 1.8155 4.8854
12 5 -3 0.5761 -0.9086
12 5 -2 -0.5782 0.4633
12 5 -1 -1.3119 1.8549
12 5 0 0.8861 2.4565
12 5 1 0.6597 -0.5022
12 5 2 -0.4491 6.0172
12 5 3 -0.8891 0.0211
12 5 4 0.8684 0.4310
12 5 5 0.3797 0.4126
12 5 6 2.1728 -1.2106
12 5 7 -1.2644 -2.2817
12 5 8 -1.6320 -1.9098
12 5 9 0.7424 1.9694
12 5 10 -2.3314 1.5866
12 5 11 0.8106 -0.7801
12 5 12 0.3132 -2.9329
12 6 -12 -0.2625 -2.5287
12 6 -11 1.1560 1.6973
12 6 -10 -1.9584 0.0344
12 6 -9 -0.7661 1.4003
12 6 -8 -0.1627 0.8426
12 6 -7 -0.0996 0.4273
12 6 -6 -1.5979 4.3913
12 6 -5 -0.5758 -0.8107
12 6 -4 -1.3482 2.8344
12 6 -3 0.2641 -2.5093
12 6 -2 -0.7899 -1.0263
12 6 -1 2.1104 -10.7022
12 6 0 -0.7301 9.4961
12 6 1 1.5541 -4.2465
12 6 2 -1.0393 2.4510
12 6 3 -0.6072 1.0522
12 6 4 -0.7535 -0.7441
12 6 5 1.8765 -1.0915
12 6 6 0.2057 1.5585
12 6 7 1.9930 -2.2601
12 6 8 -0.8395 0.1794
12 6 9 0.3089 1.8874
12 6 10 -1.3986 0.1775
12 6 11 1.0694 -1.0836
12 6 12 0.8753 -2.9126
12 7 -12 -0.1581 -0.9476
12 7 -11 0.5098 2.1433
12 7 -10 -0.1249 -0.5664
12 7 -9 -1.0467 0.7905
12 7 -8 1.7519 1.8014
12 7 -7 -0.7285 -2.4085
12 7 -6 0.1669 -0.1856
12 7 -5 -1.1254 -2.9281
12 7 -4 -0.5751 -0.9742
12 7 -3 0.8489 2.4476
12 7 -2 -0.5684 -1.8619
12 7 -1 1.8939 -7.6835
12 7 0 1.0692 11.0936
12 7 1 -1.7605 -3.9093
12 7 2 -0.7919 0.1553
12 7 3 -2.0229 0.0977
12 7 4 -0.4851 -1.0130
12 7 5 2.1234 -2.6104
12 7 6 1.1939 2.8998
12 7 7 3.2548 -1.0234
12 7 8 0.4133 0.2130
12 7 9 0.4737 -0.0698
12 7 10 -1.0124 0.6152
12 7 11 0.1735 0.6246
12 7 12 1.5263 -2.6748
12 8 -12 -0.1601 0.5918
12 8 -11 -0.6845 1.0826
12 8 -10 1.3895 -1.0083
12 8 -9 -0.7372 -0.3911
12 8 -8 0.4692 0.4485
12 8 -7 1.7124 -3.3381
12 8 -6 -0.0936 -1.8119
12 8 -5 1.9370 -2.1549
12 8 -4 0.5536 2.2986
12 8 -3 1.2980 2.8871
12 8 -2 2.2220 -0.7076
12 8 -1 0.4863 -2.4658
12 8 0 2.0652 6.0908
12 8 1 -1.4147 -1.3311
12 8 2 -0.4251 -0.3216
12 8 3 0.4258 -0.5407
12 8 4 -0.4877 -1.2250
12 8 5 2.1218 -2.5856
12 8 6 1.1104 1.8652
12 8 7 2.2384 -0.8499
12 8 8 0.9903 -1.7080
12 8 9 0.2721 0.4387
12 8 10 -0.9153 1.9076
12 8 11 -0.4243 0.7928
12 8 12 0.3553 -1.8657
12 9 -11 -0.6934 -0.4237
12 9 -10 1.4935 0.1555
12 9 -9 0.4496 -1.0692
12 9 -8 -0.1555 0.3268
12 9 -7 1.6177 0.0636
12 9 -6 0.0498 -1.4332
12 9 -5 2.1336 1.8731
12 9 -4 0.1011 0.6675
12 9 -3 1.5038 -1.1020
12 9 -2 0.8991 -2.8389
12 9 -1 0.4605 0.1327
12 9 0 -0.9384 -0.3756
12 9 1 2.2530 0.4416
12 9 2 0.5641 -0.7921
12 9 3 1.4886 0.0051
12 9 4 0.0384 -0.6970
12 9 5 0.4690 -0.9807
12 9 6 -0.3785 0.7722
12 9 7 1.2167 -0.9913
12 9 8 -0.5183 -1.9723
12 9 9 0.3316 1.1137
12 9 10 -0.0141 1.5201
12 9 11 -1.4853 0.9110
12 10 -11 0.1000 -0.6839
12 10 -10 0.8857 1.5441
12 10 -9 1.3342 0.0519
12 10 -8 0.6384 0.2268
12 10 -7 -0.9121 2.5549
12 10 -6 1.1821 -1.6897
12 10 -5 0.7131 1.2579
12 10 -4 1.5629 -3.0934
12 10 -3 -0.5529 -2.8228
12 10 -2 -0.0752 -0.8008
12 10 -1 -2.3150 1.3155
12 10 0 -1.3125 -3.8960
12 10 1 0.0888 0.5428
12 10 2 0.3989 -0.1823
12 10 3 -0.6047 1.4374
12 10 4 0.4122 0.4908
12 10 5 -0.9432 0.1019
12 10 6 0.2605 1.4248
12 10 7 -0.5979 -0.7040
12 10 8 -0.8113 -2.1344
12 10 9 1.2607 -0.2519
12 10 10 -0.4428 1.1763
12 10 11 -1.1586 1.3261
12 11 -11 0.4171 -0.7583
12 11 -10 0.2388 1.6345
12 11 -9 0.1689 0.4940
12 11 -8 0.1215 -1.3921
12 11 -7 -0.9777 1.7634
12 11 -6 -0.4188 -1.3909
12 11 -5 1.4504 -0.5358
12 11 -4 3.2161 -2.9680
12 11 -3 -1.8079 -0.0024
12 11 -2 0.1224 3.9731
12 11 -1 -2.2197 -0.3892
12 11 0 -2.0255 -2.3004
12 11 1 -2.2282 -0.9146
12 11 2 -0.3617 3.2996
12 11 3 -1.9919 2.0480
12 11 4 0.9685 -0.1098
12 11 5 0.7576 0.2052
12 11 6 -0.1473 1.9292
12 11 7 -1.0853 -0.4122
12 11 8 0.9353 -2.6389
12 11 9 0.0953 -1.0075
12 11 10 -0.4625 1.4410
12 11 11 0.0332 -0.1609
12 12 0 -2.5289 -1.1738
12 12 1 0.0955 0.7758
12 12 2 0.1457 3.0598
12 12 3 -2.1980 2.2380
12 12 4 3.7036 -2.0939
12 12 5 0.3452 -0.6621
12 12 6 -1.0785 2.5989
12 12 7 0.0350 0.3831
12 12 8 -0.2157 -1.6201
12 12 9 -0.8963 -0.3740
12 12 10 -0.5361 0.1853
13 0 -13 0.5782 0.1571
13 0 -12 0.8790 -0.0602
13 0 -11 0.2301 -0.0848
13 0 -10 -0.8037 0.1743
13 0 -9 -0.0981 -0.0509
13 0 -8 -1.8694 -0.1359
13 0 -7 1.7679 0.1720
13 0 -6 0.0814 0.0440
13 0 -5 0.1656 -0.2974
13 0 -4 2.2602 0.2830
13 0 -3 0.8594 0.0011
13 0 -2 -3.4333 -0.2586
13 0 -1 -1.6361 0.2159
13 0 0 -3.6083 0.0451
13 0 1 1.6088 -0.2126
13 0 2 -1.7164 0.0532
13 0 3 -1.7917 0.2806
13 0 4 3.0311 -0.3829
13 0 5 -1.0086 0.1254
13 0 6 5.1168 0.2326
13 0 7 -1.5480 -0.3079
13 0 8 2.5391 0.0941
13 0 9 0.2294 0.1242
13 0 10 0.8163 -0.0934
13 0 11 1.1546 -0.0910
13 0 12 0.0456 0.2373
13 0 13 -1.5372 -0.0988
13 1 -13 0.4397 -0.5672
13 1 -12 -0.0572 -1.1696
13 1 -11 0.8606 -0.4852
13 1 -10 -0.9760 -0.1734
13 1 -9 0.0203 -3.1712
13 1 -8 -0.7438 2.4092
13 1 -7 0.0374 -1.9137
13 1 -6 0.9095 -0.9303
13 1 -5 -0.2626 0.8917
13 1 -4 1.5096 0.6298
13 1 -3 0.0676 2.9141
13 1 -2 -0.8382 1.9925
13 1 -1 0.4789 -3.4884
13 1 0 -2.5682 -7.8234
13 1 1 2.3759 5.8430
13 1 2 -1.1941 6.0736
13 1 3 -0.9950 0.7040
13 1 4 1.9420 2.1936
13 1 5 0.0229 0.3186
13 1 6 2.2055 -0.8718
13 1 7 0.4474 1.5817
13 1 8 0.2770 0.1617
13 1 9 0.9707 1.4921
13 1 10 0.7614 1.5075
13 1 11 -0.0163 1.2456
13 1 12 0.1474 2.9515
13 1 13 -1.8635 0.3770
13 2 -12 -0.1170 -1.0692
13 2 -11 0.6294 0.3485
13 2 -10 0.1492 -0.0842
13 2 -9 0.0421 -2.8892
13 2 -8 -0.7258 3.4238
13 2 -7 0.8478 -2.0799
13 2 -6 -0.8308 2.8558
13 2 -5 1.3987 1.7678
13 2 -4 -0.6588 -1.3333
13 2 -3 0.7666 -0.6889
13 2 -2 1.9690 -0.3950
13 2 -1 -0.7223 -2.0969
13 2 0 -1.4395 -7.0241
13 2 1 0.7410 15.7896
13 2 2 0.4663 3.4957
13 2 3 -1.1228 3.0635
13 2 4 -0.7949 1.2704
13 2 5 1.4984 1.6519
13 2 6 -0.5629 0.6219
13 2 7 2.5510 1.9152
13 2 8 0.0955 2.1989
13 2 9 1.4225 -0.0057
13 2 10 -0.2207 1.3935
13 2 11 0.3852 0.4835
13 2 12 -0.5825 3.1851
13 3 -12 0.3137 -0.1456
13 3 -11 0.6680 -0.4811
13 3 -10 -0.1022 1.5410
13 3 -9 0.7283 -2.3916
13 3 -8 -0.3252 2.4073
13 3 -7 -0.6531 -0.7772
13 3 -6 1.9088 5.4549
13 3 -5 0.1446 1.2829
13 3 -4 1.3196 -3.0690
13 3 -3 2.6082 -0.1946
13 3 -2 0.5923 -3.4578
13 3 -1 -1.8137 8.5259
13 3 0 0.2625 -0.4649
13 3 1 -0.5386 11.5319
13 3 2 0.8710 5.1226
13 3 3 -2.6470 2.6267
13 3 4 -0.5005 0.4996
13 3 5 0.5481 2.0905
13 3 6 0.5464 1.0957
13 3 7 1.2061 0.0226
13 3 8 0.2791 2.2032
13 3 9 0.9159 -3.1336
13 3 10 -0.3998 1.8605
13 3 11 0.3603 -0.9314
13 3 12 -0.1618 1.9471
13 4 -12 0.0380 -0.5039
13 4 -11 0.9558 -0.3996
13 4 -10 -1.5506 1.7487
13 4 -9 1.1929 -1.9449
13 4 -8 -0.5035 1.0942
13 4 -7 -1.0405 0.0345
13 4 -6 3.8352 6.4491
13 4 -5 -0.4558 1.0842
13 4 -4 2.3479 3.3669
13 4 -3 2.2323 -0.4358
13 4 -2 -0.4619 -2.5353
13 4 -1 -0.3811 8.5479
13 4 0 2.3202 0.0742
13 4 1 0.7200 5.2173
13 4 2 1.0387 6.1136
13 4 3 -0.6754 2.3568
13 4 4 2.3830 0.0424
13 4 5 -0.7285 -0.5711
13 4 6 1.7599 0.3869
13 4 7 -1.9750 -0.9775
13 4 8 -0.9685 -0.3301
13 4 9 -0.2241 -1.3977
13 4 10 -1.4438 1.8054
13 4 11 0.1742 -2.6976
13 4 12 0.5389 -0.2517
13 5 -12 -0.1844 -1.1415
13 5 -11 0.7192 1.0940
13 5 -10 -2.0777 0.6150
13 5 -9 -0.3817 -0.1278
13 5 -8 -0.6095 0.8295
13 5 -7 0.2873 2.4695
13 5 -6 0.3318 4.7119
13 5 -5 0.2320 3.5461
13 5 -4 -1.2270 5.3823
13 5 -3 1.2916 -1.4940
13 5 -2 -1.9826 -3.4502
13 5 -1 2.2005 -3.5497
13 5 0 -0.0473 2.0486
13 5 1 1.9789 3.0227
13 5 2 1.3782 2.7206
13 5 3 0.5454 3.2528
13 5 4 2.7215 -1.7446
13 5 5 0.4076 -2.2631
13 5 6 0.4281 0.0807
13 5 7 -0.8151 -0.4124
13 5 8 -0.9161 0.7093
13 5 9 -1.1894 -0.0288
13 5 10 -1.7245 0.4566
13 5 11 0.6639 -3.6180
13 5 12 0.3639 -2.2395
13 6 -12 0.1354 -0.7809
13 6 -11 0.7891 2.1320
13 6 -10 -1.6743 0.3612
13 6 -9 -1.1161 0.6861
13 6 -8 0.2600 2.6736
13 6 -7 -1.4325 1.0799
13 6 -6 -0.4523 1.9396
13 6 -5 -2.3617 1.5123
13 6 -4 -1.0448 0.0671
13 6 -3 0.3738 4.1236
13 6 -2 -1.5811 -6.5645
13 6 -1 2.1247 -6.3280
13 6 0 -0.5319 7.4722
13 6 1 -0.1160 0.0534
13 6 2 0.6804 1.7627
13 6 3 -1.0032 1.5082
13 6 4 0.4635 -0.0307
13 6 5 1.8791 -3.8490
13 6 6 -0.2091 1.5024
13 6 7 2.5883 -0.2353
13 6 8 -0.0908 2.3865
13 6 9 -0.3440 -2.1661
13 6 10 -0.6748 0.7463
13 6 11 0.1681 -2.6377
13 6 12 1.3456 -1.9322
13 7 -12 0.0661 0.2546
13 7 -11 0.1289 1.5868
13 7 -10 0.0822 0.0592
13 7 -9 -0.5857 0.4181
13 7 -8 0.1935 1.6311
13 7 -7 -1.2862 -1.0888
13 7 -6 0.0490 -1.4485
13 7 -5 -0.9076 -1.7483
13 7 -4 0.0559 0.5361
13 7 -3 1.9575 7.3633
13 7 -2 0.2348 -4.0722
13 7 -1 1.4994 -2.2484
13 7 0 1.5410 7.5760
13 7 1 -2.6432 -1.8352
13 7 2 0.4772 1.1424
13 7 3 -0.3826 0.8537
13 7 4 -0.1203 2.1740
13 7 5 2.5356 -4.4862
13 7 6 0.5376 2.7056
13 7 7 2.7348 -1.9674
13 7 8 0.4151 1.7507
13 7 9 0.0227 -2.9044
13 7 10 -0.8040 2.3819
13 7 11 -0.2408 -0.4928
13 7 12 1.1962 -1.5276
13 8 -11 -0.7193 -0.2423
13 8 -10 1.2691 -0.3709
13 8 -9 -0.0046 -0.3225
13 8 -8 -0.1361 -0.5753
13 8 -7 0.6680 1.0547
13 8 -6 0.2486 -2.7817
13 8 -5 2.9245 0.7266
13 8 -4 -0.1720 1.4412
13 8 -3 3.6597 2.9183
13 8 -2 0.0274 -3.8013
13 8 -1 1.4222 1.2396
13 8 0 -0.9286 1.0868
13 8 1 -1.1920 -0.9427
13 8 2 0.6871 -0.6384
13 8 3 1.4217 1.0057
13 8 4 1.2696 2.9419
13 8 5 1.9925 -1.6527
13 8 6 0.7408 1.6311
13 8 7 1.8223 -1.9432
13 8 8 0.0055 0.9039
13 8 9 -0.8573 -2.1263
13 8 10 -0.6641 2.8446
13 8 11 -0.7760 0.5852
13 9 -11 -0.4374 -1.0669
13 9 -10 1.1348 -0.6328
13 9 -9 1.2298 -0.7520
13 9 -8 0.1134 0.5565
13 9 -7 0.4978 2.2988
13 9 -6 1.0689 -0.3399
13 9 -5 2.8418 1.1605
13 9 -4 1.6777 -2.7367
13 9 -3 1.7452 -3.2632
13 9 -2 -0.2526 -3.8282
13 9 -1 -1.5398 3.0118
13 9 0 -1.7989 -2.0849
13 9 1 -1.0356 -0.4305
13 9 2 0.6701 -1.0921
13 9 3 0.5715 1.0762
13 9 4 1.1314 4.1667
13 9 5 0.5664 1.1216
13 9 6 0.6944 2.7100
13 9 7 1.0809 -0.3004
13 9 8 -0.7943 -0.7171
13 9 9 0.0136 -1.8627
13 9 10 -0.1881 1.0566
13 9 11 -1.4952 1.1754
13 10 -11 0.3166 -0.8600
13 10 -10 0.7075 -0.1997
13 10 -9 1.3489 -0.8613
13 10 -8 0.1820 0.9991
13 10 -7 -0.1328 1.8642
13 10 -6 0.3010 -0.4215
13 10 -5 1.9592 -0.1367
13 10 -4 3.2024 -6.1961
13 10 -3 0.3000 -3.4522
13 10 -2 -1.2710 0.8441
13 10 -1 -1.7500 1.3319
13 10 0 -1.1863 0.0876
13 10 1 -2.3039 -1.1296
13 10 2 0.1875 0.6306
13 10 3 -0.9113 2.4325
13 10 4 0.0121 2.7542
13 10 5 0.9360 2.3721
13 10 6 0.2438 5.3979
13 10 7 0.0788 -1.0328
13 10 8 0.5612 -1.7579
13 10 9 0.4252 -2.7307
13 10 10 -0.7589 0.0107
13 10 11 -0.6482 0.7836
13 11 -10 -0.6878 0.1923
13 11 -9 0.1908 -1.2304
13 11 -8 -0.7173 -0.0599
13 11 -7 -0.1095 1.2313
13 11 -6 -0.5361 0.2822
13 11 -5 0.1488 0.2628
13 11 -4 4.2019 -5.4260
13 11 -3 -0.5247 0.6513
13 11 -2 -1.2093 0.8731
13 11 -1 0.4448 0.9904
13 11 0 -1.5696 -0.5926
13 11 1 -1.3456 1.2651
13 11 2 0.3788 2.0894
13 11 3 -1.5194 2.1010
13 11 4 0.9119 0.7107
13 11 5 1.5262 0.7009
13 11 6 -0.5216 5.9507
13 11 7 0.6383 -0.9858
13 11 8 1.7624 -1.8972
13 11 9 -0.7969 -1.6942
13 11 10 -0.6914 -0.4055
13 12 -10 -0.8081 -0.6636
13 12 -9 -0.8946 -0.8212
13 12 -8 -0.7902 -0.1764
13 12 -7 -0.1366 0.3427
13 12 -6 -0.7608 4.8369
13 12 -5 -1.2607 -0.4575
13 12 -4 2.7960 -2.7715
13 12 -3 -0.9156 1.8840
13 12 -2 0.1054 -1.2696
13 12 -1 0.6859 1.0869
13 12 0 0.2087 -0.6903
13 12 1 0.0485 2.7438
13 12 2 1.1117 1.0292
13 12 3 -1.7478 1.1795
13 12 4 1.6360 -0.0134
13 12 5 -0.3945 -2.2711
13 12 6 -0.5022 6.8104
13 12 7 0.4843 0.2496
13 12 8 0.8171 -1.2737
13 12 9 -1.0020 0.5298
13 12 10 -0.0094 -1.8855
13 13 0 0.2614 -0.0658
13 13 1 1.2342 0.3502
13 13 2 0.0429 -0.6798
13 13 3 -0.5572 1.2801
13 13 4 -0.2343 -0.6562
13 13 5 -1.0206 -0.2662
13 13 6 -0.4316 5.3753
13 13 7 -0.4111 0.0636
13 13 8 0.2306 -0.2552
13 13 9 -0.8334 -0.3779
13 13 10 0.4384 -1.2193
14 0 -13 0.1164 0.1513
14 0 -12 -0.4946 0.1298
14 0 -11 0.6960 -0.0268
14 0 -10 -2.0659 -0.1609
14 0 -9 0.3231 0.2654
14 0 -8 0.8462 -0.1757
14 0 -7 -1.6023 0.0065
14 0 -6 2.1918 0.0278
14 0 -5 -1.0628 0.0963
14 0 -4 1.9838 -0.1873
14 0 -3 -0.1725 0.0483
14 0 -2 -3.1374 0.2655
14 0 -1 1.4286 -0.4608
14 0 0 -3.6064 0.3435
14 0 1 4.7030 -0.0525
14 0 2 -3.2932 -0.1349
14 0 3 -0.3744 0.0842
14 0 4 1.5499 0.0518
14 0 5 -0.6073 -0.0302
14 0 6 3.1140 -0.1675
14 0 7 -0.6026 0.3323
14 0 8 0.0484 -0.2666
14 0 9 -0.3578 0.0237
14 0 10 2.0039 0.1789
14 0 11 -0.6022 -0.1812
14 0 12 0.3153 0.0549
14 0 13 -1.5242 -0.0302
14 1 -12 -0.4471 -0.7875
14 1 -11 0.5616 0.3605
14 1 -10 -0.8042 -0.7951
14 1 -9 -0.4219 -2.3184
14 1 -8 1.0452 2.6628
14 1 -7 -0.9792 -1.5132
14 1 -6 -0.0888 -0.0874
14 1 -5 0.9563 3.9513
14 1 -4 -0.7466 -0.0487
14 1 -3 1.1416 -0.5117
14 1 -2 -0.7441 -1.7626
14 1 -1 0.9708 -8.4696
14 1 0 -1.1963 -4.7772
14 1 1 1.8915 12.8078
14 1 2 -0.8137 0.7607
14 1 3 -0.8848 2.6144
14 1 4 -0.8149 2.0985
14 1 5 -0.0864 1.9369
14 1 6 0.8672 0.6672
14 1 7 0.7123 3.4468
14 1 8 0.5550 0.7783
14 1 9 0.1990 1.2580
14 1 10 1.3094 0.9567
14 1 11 -0.0148 0.1175
14 1 12 0.0421 1.7516
14 2 -12 -0.2622 0.2067
14 2 -11 1.3987 -0.9351
14 2 -10 0.2279 -0.3817
14 2 -9 -0.6622 -2.7939
14 2 -8 1.6765 2.2010
14 2 -7 -1.3600 -0.3175
14 2 -6 -0.2379 1.0774
14 2 -5 0.9724 2.9756
14 2 -4 -1.6629 -0.1881
14 2 -3 2.3594 -1.5566
14 2 -2 0.8552 -4.7944
14 2 -1 -0.3775 -4.2626
14 2 0 -0.0164 -0.9618
14 2 1 0.4902 15.1470
14 2 2 0.7585 0.7254
14 2 3 -1.9364 5.5098
14 2 4 -1.0360 2.0455
14 2 5 -0.3342 3.8993
14 2 6 -0.2937 1.8191
14 2 7 2.8059 3.4686
14 2 8 0.0524 2.1252
14 2 9 1.5212 -1.4938
14 2 10 0.8036 1.7752
14 2 11 0.5983 -0.2114
14 2 12 0.5040 1.6644
14 3 -12 -0.7180 0.5653
14 3 -11 1.6402 -1.6317
14 3 -10 -0.7168 0.1790
14 3 -9 0.4768 -2.8554
14 3 -8 0.6882 1.2950
14 3 -7 -0.4200 -1.0505
14 3 -6 2.0986 2.9248
14 3 -5 0.5632 -1.8035
14 3 -4 1.1731 3.3360
14 3 -3 1.5934 -0.3703
14 3 -2 0.6064 -2.9082
14 3 -1 0.7741 4.0725
14 3 0 0.4528 -0.1072
14 3 1 2.3247 8.5748
14 3 2 -0.4347 2.3625
14 3 3 0.4080 5.6658
14 3 4 1.0040 1.5950
14 3 5 0.4257 0.7492
14 3 6 0.0182 1.4978
14 3 7 1.3389 1.6823
14 3 8 -0.5972 0.5430
14 3 9 0.3999 -1.9309
14 3 10 0.1033 3.0776
14 3 11 0.0636 -1.4104
14 3 12 0.4080 1.7727
14 4 -12 -0.9560 0.0233
14 4 -11 0.6020 -0.4881
14 4 -10 -0.7299 0.4328
14 4 -9 -0.3414 -1.7648
14 4 -8 -0.4125 0.4497
14 4 -7 1.2221 1.8152
14 4 -6 1.4531 1.3558
14 4 -5 1.0269 1.5834
14 4 -4 -0.7110 4.8896
14 4 -3 2.0582 0.0893
14 4 -2 -2.3057 -0.1258
14 4 -1 3.6934 0.7000
14 4 0 0.3666 -2.4040
14 4 1 1.5961 5.3088
14 4 2 1.3075 1.2603
14 4 3 1.7097 5.0320
14 4 4 2.9609 -1.0025
14 4 5 0.2868 -2.5309
14 4 6 0.0002 -0.0952
14 4 7 -1.1574 0.8088
14 4 8 -0.0749 0.5928
14 4 9 -1.8962 -0.5928
14 4 10 -0.2006 1.5563
14 4 11 -0.3619 -1.8527
14 4 12 0.2395 -0.0366
14 5 -12 -0.5546 -0.2032
14 5 -11 0.4849 0.8789
14 5 -10 -0.7112 0.7465
14 5 -9 -0.5706 0.2580
14 5 -8 0.0633 1.4465
14 5 -7 0.3515 5.0638
14 5 -6 0.1228 -0.1241
14 5 -5 -1.9713 5.0142
14 5 -4 -2.5871 0.6830
14 5 -3 0.2900 2.0957
14 5 -2 -2.8398 -2.1598
14 5 -1 2.5187 -2.9977
14 5 0 -1.2588 1.3167
14 5 1 0.8782 4.2418
14 5 2 1.2922 0.7494
14 5 3 1.7337 3.3590
14 5 4 1.7084 -1.3008
14 5 5 0.0750 -2.8299
14 5 6 0.1227 -0.7420
14 5 7 -0.1675 1.0009
14 5 8 0.1197 1.8455
14 5 9 -2.0973 -3.4321
14 5 10 0.1665 -0.2858
14 5 11 -0.2134 -2.0688
14 5 12 0.8193 -0.8101
14 6 -12 -0.1369 0.0048
14 6 -11 0.3422 1.3724
14 6 -10 -0.9349 0.5398
14 6 -9 0.9435 2.0951
14 6 -8 -0.4355 1.6732
14 6 -7 -0.5549 3.9306
14 6 -6 -0.0241 -0.7849
14 6 -5 -2.6720 0.6846
14 6 -4 -1.1531 -0.1149
14 6 -3 0.2207 5.2124
14 6 -2 -0.7604 -3.0994
14 6 -1 1.1498 0.5370
14 6 0 -1.5329 7.1747
14 6 1 -0.3317 0.6369
14 6 2 -0.5965 1.6803
14 6 3 1.2186 2.3996
14 6 4 -0.0054 1.7131
14 6 5 1.6199 -3.6839
14 6 6 -0.0669 1.6436
14 6 7 2.2367 -1.1293
14 6 8 0.1947 1.2164
14 6 9 -1.3894 -6.2984
14 6 10 0.0240 -0.1063
14 6 11 -0.3669 -1.5249
14 6 12 0.8613 0.0586
14 7 -11 -0.1735 0.4003
14 7 -10 -0.2023 -0.0076
14 7 -9 0.5579 1.9822
14 7 -8 -0.3078 -0.8095
14 7 -7 -1.6342 4.2331
14 7 -6 0.9136 -3.3556
14 7 -5 0.3323 -0.2386
14 7 -4 -0.5087 2.0709
14 7 -3 3.4369 3.9712
14 7 -2 -0.6696 -4.1245
14 7 -1 2.9539 4.4927
14 7 0 -2.0941 5.0027
14 7 1 -1.7912 -1.8721
14 7 2 -0.4917 0.6798
14 7 3 0.4534 2.6424
14 7 4 1.5755 3.1189
14 7 5 1.1225 -3.4491
14 7 6 -0.2603 3.1614
14 7 7 2.4355 -2.8517
14 7 8 0.0658 1.9444
14 7 9 -1.1981 -6.3411
14 7 10 -0.6127 0.8233
14 7 11 -0.3430 -0.2073
14 8 -11 -0.2403 -0.7126
14 8 -10 0.5531 -1.1002
14 8 -9 0.2860 0.1503
14 8 -8 0.3604 -1.1424
14 8 -7 -1.2569 4.9379
14 8 -6 0.8336 -1.8439
14 8 -5 1.9947 0.2037
14 8 -4 0.1534 0.4239
14 8 -3 2.2336 -4.0388
14 8 -2 -1.1121 -5.5123
14 8 -1 0.5527 4.9337
14 8 0 -2.0864 1.0444
14 8 1 -1.9143 -1.3769
14 8 2 -0.1685 -1.1110
14 8 3 1.2798 2.6373
14 8 4 2.1433 3.8663
14 8 5 -0.2424 -1.8521
14 8 6 0.3900 3.7832
14 8 7 0.4913 0.2475
14 8 8 -0.1485 2.0472
14 8 9 -1.2452 -4.8133
14 8 10 -0.2368 0.4565
14 8 11 -0.6231 0.1875
14 9 -11 -0.1839 -0.9851
14 9 -10 0.8668 -1.6179
14 9 -9 0.8440 -1.5507
14 9 -8 0.3076 0.0063
14 9 -7 0.3522 3.7364
14 9 -6 -0.3498 0.8452
14 9 -5 2.0747 -2.0102
14 9 -4 1.2494 -4.8976
14 9 -3 0.6935 -9.1077
14 9 -2 -3.3010 -2.9788
14 9 -1 -0.9300 3.1060
14 9 0 -1.7009 2.3647
14 9 1 -1.5792 -0.8667
14 9 2 -0.1516 -1.3715
14 9 3 0.3260 3.7625
14 9 4 0.7408 4.1818
14 9 5 0.3514 -0.7570
14 9 6 0.2516 6.4975
14 9 7 -0.0830 1.6774
14 9 8 0.2255 0.2189
14 9 9 -0.3267 -3.2104
14 9 10 -0.0546 -1.0558
14 9 11 -0.9896 0.5382
14 10 -10 0.1405 -0.8144
14 10 -9 0.6083 -2.2735
14 10 -8 0.1715 -0.5189
14 10 -7 -0.2832 2.1465
14 10 -6 -0.0397 1.3262
14 10 -5 -0.1857 -1.5139
14 10 -4 2.2966 -7.0828
14 10 -3 1.2562 -5.4728
14 10 -2 -3.9831 -2.3881
14 10 -1 0.8762 1.9923
14 10 0 -1.1028 1.0391
14 10 1 -0.9975 1.2697
14 10 2 0.5940 -0.9609
14 10 3 -1.4502 4.1069
14 10 4 -0.1072 3.6903
14 10 5 0.8689 -0.5381
14 10 6 -0.5985 7.1630
14 10 7 1.0481 -0.1635
14 10 8 1.2064 -0.9448
14 10 9 0.5627 -1.9522
14 10 10 -0.5497 -1.2186
14 11 -10 -0.0185 -0.1106
14 11 -9 -0.2110 -1.6637
14 11 -8 0.2340 -1.1478
14 11 -7 -0.1083 0.3694
14 11 -6 -0.5700 4.0777
14 11 -5 -1.3574 0.3899
14 11 -4 1.3971 -3.5819
14 11 -3 0.7392 -1.5051
14 11 -2 -1.5396 -4.5244
14 11 -1 0.3421 0.1610
14 11 0 0.4621 -1.2842
14 11 1 -0.2965 3.3462
14 11 2 2.1426 -0.6850
14 11 3 -0.9671 1.7369
14 11 4 -0.6125 4.3384
14 11 5 0.8030 -2.5755
14 11 6 -0.9097 6.4827
14 11 7 1.0479 -0.3503
14 11 8 1.9090 -1.7590
14 11 9 -0.5687 0.7738
14 11 10 0.4742 -1.6374
14 12 -10 0.8351 0.2553
14 12 -9 -0.8421 -1.0017
14 12 -8 0.5992 -0.7321
14 12 -7 0.9966 -0.6463
14 12 -6 -0.9779 4.7666
14 12 -5 -0.0836 1.5004
14 12 -4 -0.3264 -0.3394
14 12 -3 0.1651 0.1660
14 12 -2 -0.6328 -4.1159
14 12 -1 0.6691 -1.0067
14 12 0 -0.5663 -0.8698
14 12 1 1.1734 2.1837
14 12 2 1.5821 -0.8899
14 12 3 -0.5216 0.5172
14 12 4 -0.5356 2.9675
14 12 5 -0.3200 -1.9610
14 12 6 -0.2091 5.9897
14 12 7 -0.0923 -0.2028
14 12 8 1.1543 -1.3310
14 12 9 -0.9190 1.2975
14 12 10 1.1549 -2.0133
14 13 -9 -0.1780 -0.4934
14 13 -8 -0.1741 -0.7734
14 13 -7 0.1651 -0.6903
14 13 -6 0.4485 1.1013
14 13 -5 -0.2000 1.5118
14 13 -4 -0.2822 1.5559
14 13 -3 -0.4029 0.2182
14 13 -2 0.2062 -1.4200
14 13 -1 0.5772 -0.1992
14 13 0 -0.5410 -2.0872
14 13 1 0.7518 0.5502
14 13 2 0.0374 -0.4527
14 13 3 -0.6726 -0.1233
14 13 4 -0.5590 0.9131
14 13 5 -1.3999 1.7189
14 13 6 0.8694 1.9259
14 13 7 -0.7643 -0.1014
14 13 8 -0.1247 -1.2229
14 13 9 0.3052 -0.4996
14 14 0 1.2436 -1.7123
14 14 1 -0.4891 -0.4332
14 14 2 0.4728 0.7180
14 14 3 -0.8450 -1.2823
14 14 4 -0.5164 1.5975
14 14 5 -0.6550 0.7131
14 14 6 0.4507 -1.0233
14 14 7 -0.6456 -0.2574
14 14 8 -1.0914 -1.1957
14 14 9 0.4592 0.0284
15 0 -12 -0.1803 0.0520
15 0 -11 -0.1865 0.0192
15 0 -10 -0.2445 0.0250
15 0 -9 0.6147 -0.1324
15 0 -8 0.5795 0.0776
15 0 -7 0.5064 0.1536
15 0 -6 -0.7537 -0.4004
15 0 -5 0.9153 0.4250
15 0 -4 -0.5653 -0.1802
15 0 -3 -0.4881 -0.0757
15 0 -2 -0.7177 0.1113
15 0 -1 1.2055 0.0137
15 0 0 1.4528 -0.0590
15 0 1 2.0382 -0.1368
15 0 2 -0.1873 0.4172
15 0 3 0.3278 -0.4809
15 0 4 -1.8741 0.2314
15 0 5 0.1592 0.0890
15 0 6 0.0563 -0.1935
15 0 7 -2.2313 0.0795
15 0 8 0.9841 0.0360
15 0 9 -1.0894 0.0322
15 0 10 0.1848 -0.1886
15 0 11 0.4382 0.2188
15 0 12 -0.8599 -0.1911
15 1 -12 -0.1670 0.5523
15 1 -11 0.2954 -0.9478
15 1 -10 0.5804 -0.5969
15 1 -9 0.0303 -1.8194
15 1 -8 1.6219 1.6961
15 1 -7 -0.1063 0.2182
15 1 -6 -0.2252 0.2019
15 1 -5 0.9163 3.7536
15 1 -4 -1.8494 -0.0330
15 1 -3 0.2755 0.1772
15 1 -2 -0.2304 -5.6071
15 1 -1 -0.6480 -8.0836
15 1 0 2.4213 3.8186
15 1 1 0.1465 7.0213
15 1 2 1.2494 0.1598
15 1 3 -0.9443 4.2260
15 1 4 -1.1848 4.0078
15 1 5 -0.3036 2.1971
15 1 6 -0.0329 2.4561
15 1 7 -0.6771 3.4733
15 1 8 0.2786 0.4857
15 1 9 0.2752 0.1078
15 1 10 -0.6350 -0.0595
15 1 11 0.2173 -0.0087
15 1 12 -0.3976 0.2718
15 2 -12 -0.4213 0.9512
15 2 -11 1.4105 -2.0533
15 2 -10 -0.3254 -1.0900
15 2 -9 -0.0290 -1.9199
15 2 -8 1.2355 1.6940
15 2 -7 -0.8189 -0.8922
15 2 -6 -0.1206 1.5295
15 2 -5 1.2866 -1.4740
15 2 -4 -0.9071 2.8170
15 2 -3 0.8501 0.5448
15 2 -2 0.7685 -5.4744
15 2 -1 -0.9513 -3.7209
15 2 0 1.9683 5.1113
15 2 1 1.4303 5.9100
15 2 2 -0.7272 -0.3965
15 2 3 -0.2578 7.1810
15 2 4 -0.8131 6.5714
15 2 5 0.1792 1.4590
15 2 6 -0.0185 2.1678
15 2 7 1.2736 4.7222
15 2 8 -0.5600 -1.1397
15 2 9 1.9591 -0.5640
15 2 10 -0.9028 2.0571
15 2 11 0.7374 -0.5909
15 2 12 -0.6075 1.1486
15 3 -12 -0.5398 0.5079
15 3 -11 0.5266 -2.0346
15 3 -10 -0.1639 -0.3142
15 3 -9 0.2617 -1.4196
15 3 -8 -0.7559 0.6880
15 3 -7 1.5801 -0.2051
15 3 -6 -0.7224 -0.5732
15 3 -5 1.2021 -2.9034
15 3 -4 -0.5091 4.4439
15 3 -3 0.3948 1.7997
15 3 -2 -0.5681 0.0366
15 3 -1 1.5952 -0.4326
15 3 0 2.1539 -0.4769
15 3 1 1.0561 2.0584
15 3 2 -0.4078 -0.4990
15 3 3 1.7575 5.1649
15 3 4 -0.0321 4.7685
15 3 5 1.1303 -0.7403
15 3 6 -1.0989 -0.3868
15 3 7 -0.2312 3.6633
15 3 8 -0.1921 -0.6824
15 3 9 -0.0878 0.6663
15 3 10 -0.5475 2.9659
15 3 11 0.3743 -0.3319
15 3 12 -0.8720 1.0659
15 4 -12 -0.8083 0.1857
15 4 -11 -0.2109 -1.4911
15 4 -10 0.0929 0.8352
15 4 -9 -0.1830 -0.5950
15 4 -8 -0.0136 1.2371
15 4 -7 1.6465 3.5349
15 4 -6 0.8733 -2.5913
15 4 -5 -2.0175 2.9573
15 4 -4 -2.1314 -0.0709
15 4 -3 -0.4175 2.9033
15 4 -2 -2.3329 2.2884
15 4 -1 1.1112 -2.3101
15 4 0 0.6069 -1.6456
15 4 1 -1.0202 1.2200
15 4 2 0.5203 -0.1159
15 4 3 2.1648 1.1485
15 4 4 0.9438 1.4390
15 4 5 -0.3437 -0.6461
15 4 6 0.3376 -1.6836
15 4 7 -1.0861 2.8030
15 4 8 0.1201 1.3876
15 4 9 -1.4470 -1.2084
15 4 10 -0.1219 0.7786
15 4 11 -0.6739 -0.0733
15 4 12 0.3379 0.1124
15 5 -11 0.0291 -0.7419
15 5 -10 -0.7248 0.1002
15 5 -9 1.2009 2.1178
15 5 -8 -0.0324 1.4673
15 5 -7 1.0604 5.9873
15 5 -6 0.5206 -2.0668
15 5 -5 -3.2431 2.6782
15 5 -4 -2.8605 -3.1332
15 5 -3 -0.6903 2.1074
15 5 -2 0.0639 1.8665
15 5 -1 -1.4449 0.4140
15 5 0 -0.6735 4.7598
15 5 1 -0.0233 1.1809
15 5 2 -1.4013 0.7279
15 5 3 1.9896 0.0739
15 5 4 -0.6720 0.1343
15 5 5 0.0275 0.2102
15 5 6 1.2998 -0.2968
15 5 7 0.0900 1.2232
15 5 8 0.8955 0.3804
15 5 9 -1.1741 -6.5079
15 5 10 0.1100 -0.6637
15 5 11 -0.3276 -0.5091
15 6 -11 -0.2007 -0.3044
15 6 -10 -0.7113 -0.7396
15 6 -9 1.8825 3.6554
15 6 -8 -0.2415 -0.4903
15 6 -7 0.0242 6.4963
15 6 -6 0.2849 -3.1294
15 6 -5 -1.2189 -0.5023
15 6 -4 -1.9902 -1.0400
15 6 -3 0.5669 1.1305
15 6 -2 1.8673 -1.6935
15 6 -1 -0.4117 6.9795
15 6 0 -1.2042 7.7498
15 6 1 1.0175 -2.4085
15 6 2 -1.8307 2.5307
15 6 3 0.7513 0.6031
15 6 4 0.2240 -0.0905
15 6 5 0.7670 -1.2973
15 6 6 -0.4449 1.8692
15 6 7 1.6586 -1.4432
15 6 8 0.4528 -0.2107
15 6 9 -0.9871 -9.1081
15 6 10 -0.3250 -0.7147
15 6 11 -0.2254 -0.1427
15 7 -11 -0.5366 -0.0787
15 7 -10 -0.4375 -1.0208
15 7 -9 0.4670 1.5799
15 7 -8 0.3274 -1.4268
15 7 -7 -1.3412 6.3266
15 7 -6 1.5001 -2.8281
15 7 -5 -0.1230 -0.5105
15 7 -4 -0.1762 1.0651
15 7 -3 -0.2028 -4.8309
15 7 -2 0.8873 -6.1018
15 7 -1 -0.9190 7.8486
15 7 0 -1.6930 5.4591
15 7 1 -0.4679 -4.5792
15 7 2 -1.2952 2.0917
15 7 3 0.8256 2.4157
15 7 4 2.3909 -0.7602
15 7 5 -1.4017 -4.1173
15 7 6 0.3527 3.5332
15 7 7 0.7754 -0.4339
15 7 8 -0.1085 2.1062
15 7 9 -0.3387 -8.4539
15 7 10 -0.9776 -0.8680
15 7 11 -0.2899 0.0299
15 8 -11 -0.5788 -0.2029
15 8 -10 0.0408 -1.2862
15 8 -9 -0.3008 -0.9685
15 8 -8 -0.4933 -1.5242
15 8 -7 0.0463 6.2222
15 8 -6 -0.5304 -0.3572
15 8 -5 0.6672 -1.7618
15 8 -4 0.0776 -1.7048
15 8 -3 -1.3223 -12.9910
15 8 -2 -2.1342 -6.2098
15 8 -1 -1.9715 4.3100
15 8 0 -1.8281 5.3179
15 8 1 -0.7754 -3.1688
15 8 2 -1.0602 -0.2097
15 8 3 1.2576 5.4444
15 8 4 0.9423 -0.0042
15 8 5 -1.9051 -5.9677
15 8 6 1.0092 5.7256
15 8 7 -1.0913 2.8140
15 8 8 0.8484 2.5015
15 8 9 -0.0160 -6.3613
15 8 10 0.1858 -1.5210
15 8 11 -0.3554 -0.1427
15 9 -10 0.5379 -0.9253
15 9 -9 0.2352 -1.9217
15 9 -8 -0.6095 -1.9069
15 9 -7 0.5624 4.1360
15 9 -6 -1.0033 1.7572
15 9 -5 -0.7446 -3.9001
15 9 -4 0.0660 -5.6005
15 9 -3 -0.6584 -12.0645
15 9 -2 -4.1392 -5.9344
15 9 -1 -0.4444 3.1597
15 9 0 -1.3804 3.5617
15 9 1 0.4216 -0.4078
15 9 2 0.1287 -2.1026
15 9 3 -0.4055 6.3696
15 9 4 -0.1238 3.4086
15 9 5 -1.1642 -6.2243
15 9 6 -0.5813 6.3589
15 9 7 -0.3722 2.4849
15 9 8 0.3101 0.1718
15 9 9 0.9558 -2.9911
15 9 10 0.4739 -2.0740
15 10 -10 0.7464 -0.3900
15 10 -9 0.8016 -1.0748
15 10 -8 -0.0250 -2.1293
15 10 -7 0.6554 0.5835
15 10 -6 0.3213 4.3470
15 10 -5 -2.0547 -2.5588
15 10 -4 0.4598 -3.9373
15 10 -3 0.0723 -6.2975
15 10 -2 -2.3785 -6.9074
15 10 -1 -0.5685 0.5877
15 10 0 -0.4187 0.1581
15 10 1 0.2900 1.4749
15 10 2 1.5210 -3.4495
15 10 3 -0.6734 4.3467
15 10 4 -0.7040 6.6761
15 10 5 -0.6526 -5.3388
15 10 6 -0.6769 4.1733
15 10 7 0.4879 0.3495
15 10 8 0.4003 -1.4664
15 10 9 0.7750 0.5183
15 10 10 0.0551 -1.7599
15 11 -10 1.2360 0.2946
15 11 -9 0.7805 -0.0546
15 11 -8 0.1577 -1.8140
15 11 -7 2.0318 -0.8745
15 11 -6 -0.1746 4.8007
15 11 -5 -0.4275 1.0280
15 11 -4 0.3887 -0.1809
15 11 -3 0.3311 -2.5051
15 11 -2 -0.5265 -7.1514
15 11 -1 -0.1449 -1.3575
15 11 0 -1.3781 -0.8506
15 11 1 0.9895 1.7574
15 11 2 2.0349 -3.5603
15 11 3 -0.0818 1.4089
15 11 4 -1.3061 6.8298
15 11 5 -0.1001 -3.2731
15 11 6 -0.5714 3.1991
15 11 7 0.2940 -0.7745
15 11 8 1.0639 -1.3137
15 11 9 -0.7658 1.9369
15 11 10 1.3564 -1.3276
15 12 -9 0.9697 0.5087
15 12 -8 0.0759 -0.8611
15 12 -7 1.3436 -1.2957
15 12 -6 0.5891 2.1469
15 12 -5 -0.0111 1.3111
15 12 -4 1.0810 2.2567
15 12 -3 -0.4010 -0.5290
15 12 -2 0.6316 -4.9687
15 12 -1 0.3179 0.1524
15 12 0 -1.2992 -1.3672
15 12 1 1.3494 1.2650
15 12 2 1.2645 -2.2316
15 12 3 -0.5687 -0.5603
15 12 4 0.1143 3.5498
15 12 5 -1.6135 0.6281
15 12 6 0.2948 2.3568
15 12 7 -0.4506 -0.7842
15 12 8 -0.1662 -1.3922
15 12 9 -0.1221 0.8948
15 13 -9 0.8401 1.0156
15 13 -8 -0.8702 0.0854
15 13 -7 -0.2070 -1.5317
15 13 -6 0.8280 -0.2445
15 13 -5 -0.3954 -0.4724
15 13 -4 0.9708 2.8040
15 13 -3 -0.8338 -0.1241
15 13 -2 1.2453 -1.2421
15 13 -1 -0.6653 -0.6305
15 13 0 0.8928 -0.4703
15 13 1 -0.1310 -0.1435
15 13 2 -0.0848 0.3688
15 13 3 -0.4641 -1.8205
15 13 4 -0.0772 0.5954
15 13 5 -1.5907 2.2940
15 13 6 1.1188 -0.2011
15 13 7 -1.0264 0.3193
15 13 8 -0.3999 -2.1558
15 13 9 0.3791 0.0453
15 14 -8 -1.6123 0.9485
15 14 -7 -0.3453 -0.3654
15 14 -6 -0.9764 -0.6224
15 14 -5 -0.5655 -0.7274
15 14 -4 0.0230 0.6104
15 14 -3 -1.3238 0.1269
15 14 -2 0.5468 0.3208
15 14 -1 -0.0176 -1.4847
15 14 0 0.7037 0.9042
15 14 1 0.1555 -0.3257
15 14 2 -0.6986 1.2103
15 14 3 -1.1018 -1.2809
15 14 4 -1.0528 -0.3558
15 14 5 -0.2852 0.0802
15 14 6 -0.6900 -0.6568
15 14 7 -0.2267 1.0833
15 14 8 -0.4782 -0.7720
15 15 0 -0.0263 1.8205
15 15 1 0.2097 -1.0201
15 15 2 -0.5878 0.5193
15 15 3 -1.7555 0.6015
15 15 4 -0.4025 -0.5272
15 15 5 -1.4047 -1.1533
15 15 6 -1.2474 0.1248
15 15 7 -0.0877 1.3052
15 15 8 -0.9509 0.9952
16 0 -12 0.0896 -0.0542
16 0 -11 -0.3837 -0.1591
16 0 -10 1.7037 0.2408
16 0 -9 0.3355 -0.1940
16 0 -8 1.2942 0.0662
16 0 -7 0.4986 -0.0422
16 0 -6 1.1836 0.1742
16 0 -5 -0.3250 -0.2681
16 0 -4 -0.8185 0.1362
16 0 -3 -1.0944 0.1864
16 0 -2 -1.4516 -0.4338
16 0 -1 -0.0782 0.3943
16 0 0 2.2108 -0.1508
16 0 1 -0.0110 -0.0138
16 0 2 1.6648 -0.0580
16 0 3 -2.2897 0.1938
16 0 4 0.0114 -0.1569
16 0 5 -0.8095 -0.1087
16 0 6 -0.2980 0.3898
16 0 7 -2.2074 -0.4060
16 0 8 0.1363 0.1942
16 0 9 -0.5135 0.0157
16 0 10 -1.3795 -0.0432
16 0 11 -0.7779 -0.0912
16 0 12 -0.8965 0.1331
16 1 -12 0.0019 0.3005
16 1 -11 0.5980 -1.1419
16 1 -10 1.1194 -1.4658
16 1 -9 0.1764 -0.9830
16 1 -8 1.8925 3.0428
16 1 -7 -1.0061 -1.5008
16 1 -6 0.9948 2.9279
16 1 -5 -0.1764 -0.3307
16 1 -4 -1.6931 -0.1462
16 1 -3 -0.0074 1.9258
16 1 -2 -2.0174 -6.3353
16 1 -1 -0.6877 -2.6662
16 1 0 1.7423 6.6776
16 1 1 0.6608 1.6316
16 1 2 0.7817 -0.4344
16 1 3 -2.5228 5.5621
16 1 4 0.4414 7.0310
16 1 5 -0.8758 -0.1012
16 1 6 -0.1521 2.2303
16 1 7 -0.8215 3.3193
16 1 8 -0.7743 -3.2189
16 1 9 1.0128 -0.3087
16 1 10 -1.4886 0.0448
16 1 11 -0.3640 -0.9715
16 1 12 -0.7691 0.6755
16 2 -12 0.4066 0.0169
16 2 -11 -0.0827 -1.8055
16 2 -10 0.2216 -1.6284
16 2 -9 0.2097 -0.2980
16 2 -8 0.4295 2.7285
16 2 -7 -0.2004 -0.7914
16 2 -6 -0.7017 0.6439
16 2 -5 1.6342 -2.8783
16 2 -4 -2.1919 2.1820
16 2 -3 1.4694 1.7062
16 2 -2 -2.0390 -3.5600
16 2 -1 -0.5311 0.0663
16 2 0 3.5722 3.2482
16 2 1 -0.5914 0.0353
16 2 2 0.0193 -1.1639
16 2 3 -1.0166 6.3782
16 2 4 -0.4367 8.6673
16 2 5 0.2925 0.0846
16 2 6 -0.7781 0.0736
16 2 7 -0.2783 3.9857
16 2 8 -0.5239 -3.9041
16 2 9 1.2217 0.5421
16 2 10 -1.5236 1.2654
16 2 11 0.3814 -0.6162
16 2 12 -1.6266 0.6063
16 3 -12 0.4534 -0.1280
16 3 -11 -0.6590 -2.2217
16 3 -10 -0.0297 0.1571
16 3 -9 -0.2143 -0.6967
16 3 -8 -0.3550 2.1718
16 3 -7 0.3127 1.1716
16 3 -6 0.0347 -2.8214
16 3 -5 -0.3572 -0.0365
16 3 -4 -2.0662 1.2596
16 3 -3 0.5250 2.5223
16 3 -2 -1.3029 0.7587
16 3 -1 -0.0515 -0.6951
16 3 0 3.2408 -2.9467
16 3 1 -2.1716 -1.7366
16 3 2 -0.4851 -0.4695
16 3 3 -0.5468 0.9324
16 3 4 -0.2714 6.1471
16 3 5 -0.9368 0.5236
16 3 6 -1.2178 -1.5293
16 3 7 -0.1457 4.0159
16 3 8 -0.2136 -0.2698
16 3 9 0.1744 1.3701
16 3 10 -0.2103 0.9330
16 3 11 -0.8491 -0.3827
16 3 12 -0.4753 0.3293
16 4 -11 0.1762 -1.9447
16 4 -10 -0.5098 -0.1695
16 4 -9 0.4009 -0.0926
16 4 -8 0.6155 2.3918
16 4 -7 0.1227 2.8189
16 4 -6 0.7923 -2.5110
16 4 -5 -2.9455 2.3029
16 4 -4 -3.5291 -3.6552
16 4 -3 -0.4454 2.4695
16 4 -2 0.3361 1.8125
16 4 -1 -1.9817 -0.7482
16 4 0 1.6003 -0.2302
16 4 1 -0.9904 -0.8810
16 4 2 -0.2934 -0.1664
16 4 3 -0.6818 -2.1441
16 4 4 -0.0125 2.4644
16 4 5 -1.2825 1.6591
16 4 6 0.2914 -0.1746
16 4 7 -0.4655 3.5593
16 4 8 0.3315 1.2206
16 4 9 -0.0233 -2.2385
16 4 10 0.2448 -0.1975
16 4 11 -0.8320 -0.3927
16 5 -11 0.1864 -1.5081
16 5 -10 -0.7379 -1.4010
16 5 -9 1.2595 2.0432
16 5 -8 1.2012 0.1152
16 5 -7 0.4895 4.8819
16 5 -6 -0.0029 -3.7273
16 5 -5 -0.9376 0.2179
16 5 -4 -3.8577 -5.7705
16 5 -3 0.3828 0.5465
16 5 -2 2.9624 -0.2361
16 5 -1 -3.4525 5.4625
16 5 0 1.0671 5.6409
16 5 1 2.0144 -2.5733
16 5 2 -0.1293 1.0151
16 5 3 -1.1790 -1.4688
16 5 4 0.2702 -1.2026
16 5 5 1.2842 2.1559
16 5 6 -0.0455 0.3121
16 5 7 0.2433 1.3400
16 5 8 1.0260 -0.0730
16 5 9 -0.4173 -7.2242
16 5 10 0.0685 0.5156
16 5 11 -0.5234 0.1218
16 6 -11 -0.2727 -0.5372
16 6 -10 -0.7386 -0.9250
16 6 -9 0.8996 1.4327
16 6 -8 0.7615 -1.2155
16 6 -7 -0.1121 4.6104
16 6 -6 0.5374 -3.8344
16 6 -5 0.1213 -1.1768
16 6 -4 -0.9929 -2.7631
16 6 -3 -0.5004 -3.8514
16 6 -2 4.1848 -5.2263
16 6 -1 -3.9980 9.7947
16 6 0 0.5198 6.2821
16 6 1 2.4863 -6.7823
16 6 2 -0.3190 2.2110
16 6 3 -1.3036 -0.1148
16 6 4 1.4635 -2.8752
16 6 5 0.2174 -2.3584
16 6 6 -0.6813 1.0244
16 6 7 1.2589 0.1089
16 6 8 0.4178 0.2620
16 6 9 0.0813 -8.2458
16 6 10 -0.0555 0.4326
16 6 11 -0.7976 0.3621
16 7 -11 -0.2934 0.4121
16 7 -10 -0.6489 -0.1598
16 7 -9 -0.0054 -0.5702
16 7 -8 -0.1133 -1.4606
16 7 -7 0.0891 4.7872
16 7 -6 0.3041 -1.5303
16 7 -5 -0.6896 -0.2939
16 7 -4 -0.0635 -1.2534
16 7 -3 -2.0765 -11.4410
16 7 -2 0.5069 -8.2299
16 7 -1 -3.8879 6.7480
16 7 0 -1.0855 6.1746
16 7 1 0.7665 -7.1017
16 7 2 0.6543 0.4800
16 7 3 -0.1368 3.2295
16 7 4 1.1315 -3.2655
16 7 5 -2.0124 -7.8094
16 7 6 0.6247 3.7138
16 7 7 0.0700 1.3827
16 7 8 0.6476 2.2396
16 7 9 0.6641 -8.2698
16 7 10 0.0990 -0.7611
16 7 11 0.1840 0.0338
16 8 -10 -0.4682 0.4277
16 8 -9 -0.7351 -1.4518
16 8 -8 -0.2671 -1.6935
16 8 -7 0.4408 4.9444
16 8 -6 -0.3031 -0.0068
16 8 -5 -0.9194 -1.2653
16 8 -4 -1.3143 -4.0021
16 8 -3 -1.7548 -13.7655
16 8 -2 -2.6499 -8.6621
16 8 -1 -2.5650 4.2761
16 8 0 -1.7834 5.4757
16 8 1 0.0750 -3.3275
16 8 2 1.2989 -2.2122
16 8 3 0.3096 4.6713
16 8 4 -0.6847 -0.0785
16 8 5 -0.9699 -9.5875
16 8 6 0.1173 4.8556
16 8 7 -0.3490 2.9761
16 8 8 1.0970 0.8421
16 8 9 0.6737 -6.9512
16 8 10 0.8280 -1.4010
16 9 -10 0.1859 0.5840
16 9 -9 -0.3720 -0.7427
16 9 -8 -0.5748 -0.9852
16 9 -7 0.4460 1.5169
16 9 -6 0.1380 2.2190
16 9 -5 -1.3050 -3.4823
16 9 -4 -1.4124 -3.6991
16 9 -3 -0.5121 -8.9964
16 9 -2 -1.5310 -7.9095
16 9 -1 -1.2865 1.9974
16 9 0 -0.9828 2.6611
16 9 1 -0.3422 -0.1496
16 9 2 1.0034 -4.6588
16 9 3 -0.3021 3.1314
16 9 4 -1.5468 5.2789
16 9 5 -0.7572 -9.2397
16 9 6 -0.6299 3.2395
16 9 7 -0.0658 1.9732
16 9 8 0.6741 -1.9807
16 9 9 1.0636 -2.3471
16 9 10 0.4194 -2.0012
16 10 -9 0.8711 0.6367
16 10 -8 -0.7449 -0.9026
16 10 -7 1.2854 -0.2599
16 10 -6 0.4169 2.8751
16 10 -5 -1.0702 -1.4319
16 10 -4 -0.5055 -0.5153
16 10 -3 0.2539 -3.9267
16 10 -2 -0.7701 -7.2725
16 10 -1 -0.0464 -0.6680
16 10 0 -1.6746 0.8242
16 10 1 0.0147 0.8376
16 10 2 1.2442 -5.2819
16 10 3 -0.0636 1.5080
16 10 4 -1.5819 6.7290
16 10 5 -0.6871 -6.4175
16 10 6 -0.3731 0.8369
16 10 7 -0.4432 0.0027
16 10 8 0.4856 -1.1470
16 10 9 0.2318 0.5700
16 10 10 0.1600 -1.4916
16 11 -9 1.6268 1.0016
16 11 -8 -0.0744 -0.5705
16 11 -7 0.8228 -0.0211
16 11 -6 1.0165 1.6321
16 11 -5 -0.2221 0.4867
16 11 -4 0.9356 1.2083
16 11 -3 0.0555 -1.2522
16 11 -2 -0.0356 -6.4587
16 11 -1 -0.4490 0.8267
16 11 0 -1.2511 -0.3029
16 11 1 0.4724 1.3878
16 11 2 1.5773 -3.2254
16 11 3 -0.2297 -0.2078
16 11 4 -0.5001 4.8260
16 11 5 -0.4417 -2.1839
16 11 6 -0.5098 -0.1356
16 11 7 0.0182 -0.3023
16 11 8 -0.5481 -0.0351
16 11 9 -0.1652 0.8285
16 12 -9 1.0770 0.8985
16 12 -8 -0.0822 0.7650
16 12 -7 -0.6776 -0.8297
16 12 -6 0.5253 0.8644
16 12 -5 0.2016 -0.7807
16 12 -4 1.2449 1.5322
16 12 -3 0.1034 0.0475
16 12 -2 0.8942 -3.4017
16 12 -1 -1.2246 0.3887
16 12 0 0.9828 0.5074
16 12 1 0.1128 0.3800
16 12 2 0.7128 -0.3443
16 12 3 -0.5746 -0.9656
16 12 4 0.1227 1.8697
16 12 5 -1.5359 0.8101
16 12 6 0.3697 -0.3600
16 12 7 -0.6256 0.0389
16 12 8 -0.4460 -0.8649
16 12 9 0.2299 0.7499
16 13 -8 -0.8269 1.7115
16 13 -7 -0.5817 -0.5987
16 13 -6 -1.1555 -0.0396
16 13 -5 -0.2487 -0.3111
16 13 -4 0.4402 0.4929
16 13 -3 -0.5554 1.0642
16 13 -2 0.7726 -1.1353
16 13 -1 -0.7286 -2.1362
16 13 0 1.1891 1.5535
16 13 1 0.3290 -0.1948
16 13 2 -0.3359 1.0651
16 13 3 -0.2500 -0.5741
16 13 4 -0.8855 -0.2559
16 13 5 -0.6515 1.3626
16 13 6 0.1168 -0.8773
16 13 7 -0.8670 0.9871
16 13 8 0.4550 -0.8394
16 14 -8 -0.9051 1.5945
16 14 -7 0.1453 0.4504
16 14 -6 -1.2163 -0.1817
16 14 -5 -0.9127 0.0526
16 14 -4 -0.2208 -0.0973
16 14 -3 -1.2917 1.2225
16 14 -2 0.4699 0.0178
16 14 -1 -0.9837 -2.5608
16 14 0 0.4962 1.5594
16 14 1 0.0932 0.4314
16 14 2 -0.7206 0.4090
16 14 3 -0.9354 -0.0117
16 14 4 -0.5635 0.1577
16 14 5 -0.2410 -0.4051
16 14 6 -0.7658 0.1107
16 14 7 0.3013 2.0614
16 14 8 -0.1400 0.0020
16 15 -7 0.0083 0.6540
16 15 -6 -0.1736 -0.1049
16 15 -5 -0.8848 -1.6504
16 15 -4 -0.4004 0.1149
16 15 -3 -0.4264 1.2940
16 15 -2 -0.6600 0.3389
16 15 -1 -0.8222 -2.9173
16 15 0 -0.0851 2.6529
16 15 1 -0.2173 -1.2426
16 15 2 -1.4522 -0.1806
16 15 3 -0.9409 0.5616
16 15 4 -0.0004 0.7473
16 15 5 -1.2686 -2.0200
16 15 6 -0.1282 0.6729
16 15 7 0.1732 1.4601
16 16 0 0.0962 2.1737
16 16 1 -0.2040 -1.9813
16 16 2 -1.0074 -1.0038
16 16 3 -0.4096 0.4835
16 16 4 0.2142 -0.0651
16 16 5 -0.3336 -2.5521
16 16 6 -0.0020 -0.9220
16 16 7 0.1711 0.2940
17 0 -12 -0.4878 -0.1954
17 0 -11 0.8696 0.1056
17 0 -10 1.0862 -0.2343
17 0 -9 0.1899 0.2465
17 0 -8 2.0559 -0.0588
17 0 -7 -0.1632 -0.1883
17 0 -6 1.4959 0.2881
17 0 -5 -1.0980 -0.1713
17 0 -4 -0.8557 0.0093
17 0 -3 -1.3357 -0.0332
17 0 -2 -3.0636 0.2050
17 0 -1 -0.0275 -0.2972
17 0 0 -1.8875 0.1481
17 0 1 2.1737 0.1597
17 0 2 -0.3677 -0.3547
17 0 3 -2.4783 0.2678
17 0 4 1.3214 -0.0671
17 0 5 -0.2997 0.0021
17 0 6 -0.2645 -0.1025
17 0 7 -0.7008 0.1992
17 0 8 -0.3046 -0.1187
17 0 9 -0.0989 -0.0909
17 0 10 -0.6082 0.2511
17 0 11 -1.1235 -0.2437
17 0 12 -0.5014 0.2785
17 1 -12 0.0892 -0.4388
17 1 -11 0.3712 -0.8887
17 1 -10 0.3899 -1.9356
17 1 -9 -0.2512 1.0024
17 1 -8 1.0002 2.6532
17 1 -7 -0.0822 -0.1859
17 1 -6 -0.0350 1.2616
17 1 -5 0.6168 -1.8449
17 1 -4 -1.4430 -0.3532
17 1 -3 1.1401 0.1994
17 1 -2 -2.7872 -3.6351
17 1 -1 0.4098 1.6638
17 1 0 0.2954 4.0192
17 1 1 0.4828 -1.3931
17 1 2 -0.2979 0.6298
17 1 3 -1.7606 4.9639
17 1 4 0.1029 4.6651
17 1 5 0.1310 0.3903
17 1 6 -0.2664 0.4286
17 1 7 -0.6166 0.2140
17 1 8 0.4551 -4.3938
17 1 9 0.8760 0.3990
17 1 10 -0.6013 -1.1588
17 1 11 0.1306 0.2062
17 1 12 -0.9415 -0.0377
17 2 -11 -0.1485 -1.8483
17 2 -10 0.1881 -1.0415
17 2 -9 -0.3490 1.2219
17 2 -8 0.4271 2.1568
17 2 -7 -0.8942 1.5131
17 2 -6 0.2703 -1.9058
17 2 -5 1.1068 -1.7405
17 2 -4 -2.4691 1.7578
17 2 -3 2.3847 -1.2641
17 2 -2 -1.8885 -1.5437
17 2 -1 0.8297 2.0303
17 2 0 3.3591 -1.1885
17 2 1 -1.6850 -2.6308
17 2 2 -0.6481 1.4204
17 2 3 -1.1918 3.5194
17 2 4 -0.6641 4.9016
17 2 5 -1.3660 0.8901
17 2 6 -1.2887 -0.5853
17 2 7 -0.6358 0.2397
17 2 8 -0.0343 -2.7794
17 2 9 0.8191 2.1326
17 2 10 -0.1999 -1.2250
17 2 11 -0.2199 -0.1107
17 3 -11 0.3406 -1.6362
17 3 -10 -0.2124 -0.6321
17 3 -9 -0.1913 -0.2677
17 3 -8 0.4615 2.3389
17 3 -7 -0.4361 0.9144
17 3 -6 0.6565 -1.6379
17 3 -5 -0.2380 0.4757
17 3 -4 -2.5033 0.7113
17 3 -3 -0.0872 -0.2769
17 3 -2 0.4485 -0.8363
17 3 -1 -0.5563 -0.1650
17 3 0 1.7783 -3.5906
17 3 1 -1.0942 -1.7779
17 3 2 -1.4310 1.1322
17 3 3 -1.0903 0.2389
17 3 4 -0.5629 3.9038
17 3 5 -1.6584 0.3586
17 3 6 -0.7346 0.9713
17 3 7 -0.5450 2.2679
17 3 8 0.0844 0.6415
17 3 9 0.2545 1.8370
17 3 10 0.2615 -1.5976
17 3 11 -0.9376 -0.9764
17 4 -11 0.6811 -1.3886
17 4 -10 -0.3709 -1.3297
17 4 -9 -0.2916 -0.4390
17 4 -8 1.2744 1.1545
17 4 -7 -0.5551 1.0605
17 4 -6 -0.3350 -1.7997
17 4 -5 -0.3131 0.4422
17 4 -4 -2.4817 -4.0027
17 4 -3 0.0530 1.4329
17 4 -2 2.9809 -2.9971
17 4 -1 -1.7140 2.1773
17 4 0 0.8032 2.1884
17 4 1 2.2806 -2.7870
17 4 2 0.0889 0.2951
17 4 3 -2.3153 0.3842
17 4 4 0.7263 0.4260
17 4 5 0.0113 1.7037
17 4 6 0.3275 1.6604
17 4 7 -0.8008 2.2551
17 4 8 0.7761 1.3435
17 4 9 0.7838 -2.1308
17 4 10 0.0852 -0.4369
17 4 11 -0.4935 0.0209
17 5 -11 0.5048 -1.1657
17 5 -10 -0.3228 -0.1545
17 5 -9 0.4006 -0.3252
17 5 -8 1.4854 -1.0025
17 5 -7 -0.7548 1.3596
17 5 -6 -0.6198 -4.1927
17 5 -5 0.2597 -0.9220
17 5 -4 -1.1207 -4.9609
17 5 -3 0.9002 0.1729
17 5 -2 4.6084 -5.1703
17 5 -1 -3.1131 6.8646
17 5 0 1.6756 6.0534
17 5 1 4.9376 -6.8680
17 5 2 0.9998 -1.0284
17 5 3 -2.4032 0.8512
17 5 4 1.9877 -2.0752
17 5 5 0.4677 0.4788
17 5 6 -0.5373 -0.1697
17 5 7 -0.3251 1.2837
17 5 8 0.4030 0.4721
17 5 9 0.5679 -4.3717
17 5 10 0.4026 2.1492
17 5 11 -0.9713 0.2601
17 6 -10 -0.5025 1.4410
17 6 -9 0.6890 -0.6721
17 6 -8 0.4048 -2.0891
17 6 -7 0.4827 1.1970
17 6 -6 -0.2814 -3.1195
17 6 -5 0.0122 -0.1543
17 6 -4 0.2188 -2.1698
17 6 -3 0.0216 -4.8464
17 6 -2 2.2579 -7.0800
17 6 -1 -4.1813 6.6016
17 6 0 0.2198 5.7911
17 6 1 3.1957 -8.9247
17 6 2 1.5985 -2.7812
17 6 3 -1.8087 0.9745
17 6 4 1.6332 -2.0629
17 6 5 -0.6426 -5.6956
17 6 6 -0.6158 1.3068
17 6 7 1.0874 0.8309
17 6 8 0.0408 1.1735
17 6 9 0.2170 -4.8995
17 6 10 0.7259 1.5803
17 6 11 -0.6596 -0.0685
17 7 -10 -0.7579 1.9606
17 7 -9 -0.7908 -0.8599
17 7 -8 0.5351 -2.0238
17 7 -7 -0.0050 2.5726
17 7 -6 0.3252 -1.3352
17 7 -5 -0.9010 1.3839
17 7 -4 -0.8251 -3.0166
17 7 -3 -0.5380 -9.0387
17 7 -2 -1.0342 -8.0374
17 7 -1 -3.0017 4.2123
17 7 0 -1.6124 5.2901
17 7 1 1.0648 -5.7159
17 7 2 2.4199 -3.9319
17 7 3 -1.1490 0.6352
17 7 4 -0.1457 -1.1641
17 7 5 -0.6857 -8.9134
17 7 6 0.3294 3.5471
17 7 7 1.4660 1.4523
17 7 8 0.5974 1.0642
17 7 9 0.6835 -7.0890
17 7 10 0.7849 0.2079
17 8 -10 -0.5726 1.7411
17 8 -9 -1.3831 -0.5994
17 8 -8 0.4120 -0.3793
17 8 -7 -0.4229 1.9483
17 8 -6 0.1112 -0.7754
17 8 -5 -0.8815 -0.4557
17 8 -4 -2.8319 -4.1315
17 8 -3 -0.3749 -8.3012
17 8 -2 -0.7906 -6.2241
17 8 -1 -1.6755 2.0811
17 8 0 -0.9842 4.1484
17 8 1 -0.0027 -0.8271
17 8 2 1.9022 -5.1801
17 8 3 -0.0897 -1.0343
17 8 4 -1.7589 2.1968
17 8 5 0.3822 -9.0986
17 8 6 0.0943 3.1767
17 8 7 0.5394 2.0370
17 8 8 1.3691 -2.1797
17 8 9 0.5014 -6.0261
17 8 10 0.6510 -0.4043
17 9 -9 -0.6611 0.7551
17 9 -8 -0.6513 0.0641
17 9 -7 0.5124 0.7893
17 9 -6 -0.2000 -0.6150
17 9 -5 -0.3512 -2.1539
17 9 -4 -2.7127 -0.7566
17 9 -3 0.4326 -4.6860
17 9 -2 -0.7658 -4.4563
17 9 -1 -0.0019 0.0479
17 9 0 -1.9815 2.2997
17 9 1 -0.7186 1.4082
17 9 2 0.9241 -5.6235
17 9 3 -0.3388 -1.3322
17 9 4 -1.4638 4.5875
17 9 5 0.2958 -8.6959
17 9 6 0.1785 1.9300
17 9 7 -0.0154 0.6079
17 9 8 1.5853 -2.2684
17 9 9 0.2739 -2.4971
17 9 10 -0.0814 -1.2777
17 10 -9 0.1182 1.5804
17 10 -8 -0.5984 -0.6236
17 10 -7 -0.3735 1.3156
17 10 -6 0.4412 -0.4862
17 10 -5 -0.6107 -1.3912
17 10 -4 -0.6135 1.9346
17 10 -3 0.4616 -2.0927
17 10 -2 -0.3462 -4.2634
17 10 -1 -0.2505 0.8793
17 10 0 -1.7263 0.5079
17 10 1 -0.4548 1.8349
17 10 2 0.7175 -3.2975
17 10 3 -0.7694 -0.5515
17 10 4 -0.8018 3.5914
17 10 5 -0.2307 -5.6234
17 10 6 0.0343 -0.4477
17 10 7 0.1892 0.7480
17 10 8 0.3794 0.4039
17 10 9 0.8558 -1.0202
17 11 -9 0.3824 1.0729
17 11 -8 -0.1968 0.1556
17 11 -7 -1.1929 0.8122
17 11 -6 -0.5012 0.4563
17 11 -5 -0.0063 -1.6150
17 11 -4 -0.0679 1.1273
17 11 -3 0.1777 -0.5181
17 11 -2 0.4379 -2.7747
17 11 -1 -1.7532 1.2754
17 11 0 1.0048 0.0301
17 11 1 -0.1490 1.0413
17 11 2 1.2239 -0.2381
17 11 3 -0.6731 -0.1667
17 11 4 -0.5993 2.4792
17 11 5 -0.6410 -2.4187
17 11 6 -0.7072 -1.6313
17 11 7 -0.3923 1.4737
17 11 8 -0.6255 1.0163
17 11 9 0.6535 -0.0796
17 12 -8 -0.2693 1.1650
17 12 -7 -0.2701 0.3347
17 12 -6 -1.6456 0.6787
17 12 -5 0.4575 -1.4339
17 12 -4 0.0113 0.0193
17 12 -3 -0.4536 1.1103
17 12 -2 -0.0435 -1.4346
17 12 -1 -1.0447 -0.7495
17 12 0 0.7469 0.0792
17 12 1 0.4091 -0.0795
17 12 2 0.9113 0.9259
17 12 3 -0.5669 0.5503
17 12 4 -0.5367 1.4664
17 12 5 -0.7177 -0.2834
17 12 6 -0.3380 -1.3414
17 12 7 -1.1406 0.3956
17 12 8 0.1059 1.2683
17 13 -8 -0.4368 1.1315
17 13 -7 0.6900 0.5648
17 13 -6 -0.9491 0.5771
17 13 -5 0.0586 -0.4067
17 13 -4 0.3059 0.5037
17 13 -3 -1.1561 1.2384
17 13 -2 0.6488 -0.5819
17 13 -1 -1.1474 -2.2218
17 13 0 0.5836 0.3524
17 13 1 0.1100 0.2010
17 13 2 0.4107 0.3763
17 13 3 -0.4158 0.5020
17 13 4 -0.4190 1.4850
17 13 5 -0.0619 0.6784
17 13 6 -0.0640 -0.7587
17 13 7 -0.3980 0.9322
17 13 8 0.3289 0.8902
17 14 -7 0.8254 0.0818
17 14 -6 -0.0671 0.8412
17 14 -5 0.2536 -1.1390
17 14 -4 -0.2218 0.6063
17 14 -3 -0.2167 1.2284
17 14 -2 0.4719 0.1224
17 14 -1 -1.3032 -2.7639
17 14 0 0.7279 1.8496
17 14 1 -0.1083 0.2304
17 14 2 -0.1920 -0.5750
17 14 3 -0.2664 -0.0335
17 14 4 0.2951 2.5253
17 14 5 -0.1629 -0.7116
17 14 6 -0.0473 1.1086
17 14 7 0.1677 1.3346
17 15 -7 0.4333 -0.2704
17 15 -6 0.3564 -0.1603
17 15 -5 0.3396 -2.3952
17 15 -4 0.5368 -0.1657
17 15 -3 -0.1098 1.2254
17 15 -2 -0.4471 -1.3128
17 15 -1 -0.5799 -2.2233
17 15 0 0.0103 1.9948
17 15 1 0.2568 -0.1691
17 15 2 -0.7593 -0.8165
17 15 3 -0.3373 -0.2890
17 15 4 0.6067 1.3865
17 15 5 -0.3242 -1.9527
17 15 6 0.0729 0.7682
17 15 7 0.3067 0.2990
17 16 -6 0.1526 -1.1950
17 16 -5 0.1099 -2.1079
17 16 -4 0.9802 -0.7094
17 16 -3 -0.6090 -0.5758
17 16 -2 -0.0966 -2.0689
17 16 -1 -0.7395 -1.2347
17 16 0 1.1172 0.8436
17 16 1 -0.5174 -0.3436
17 16 2 -0.1120 -0.4864
17 16 3 -0.6614 -1.1679
17 16 4 0.4677 -0.4896
17 16 5 -0.0603 -2.0631
17 16 6 -0.2421 -1.0943
17 17 0 1.1348 0.2831
17 17 1 -0.7691 -0.9123
17 17 2 -0.2040 -0.6743
17 17 3 0.1183 -0.9913
17 17 4 0.2315 -0.9923
17 17 5 -0.2378 -1.0860
18 0 -11 0.6484 0.0666
18 0 -10 0.1311 -0.0497
18 0 -9 0.0463 -0.0235
18 0 -8 -0.4665 -0.0145
18 0 -7 2.4980 0.1856
18 0 -6 -1.6772 -0.3396
18 0 -5 0.1549 0.2819
18 0 -4 0.5900 -0.0418
18 0 -3 -0.6408 -0.1915
18 0 -2 -0.4458 0.1983
18 0 -1 1.0090 -0.0758
18 0 0 -1.0101 0.0393
18 0 1 1.3839 -0.1675
18 0 2 0.1403 0.3274
18 0 3 -0.1284 -0.2882
18 0 4 0.2554 0.0365
18 0 5 1.4367 0.2322
18 0 6 -0.5724 -0.2946
18 0 7 -0.6555 0.1586
18 0 8 1.1976 -0.0317
18 0 9 0.4384 0.0499
18 0 10 0.6739 -0.1376
18 0 11 0.7497 0.1553
18 1 -11 0.2391 -1.3459
18 1 -10 0.0458 -0.5544
18 1 -9 0.0574 2.0062
18 1 -8 -0.4354 1.1147
18 1 -7 1.4950 0.8404
18 1 -6 -0.1170 -1.1762
18 1 -5 0.8463 -2.3223
18 1 -4 0.3033 -0.1055
18 1 -3 1.3287 -1.6017
18 1 -2 -0.3729 -2.1991
18 1 -1 1.7355 3.3435
18 1 0 1.4191 0.1798
18 1 1 -1.0872 -3.2695
18 1 2 0.6161 3.8338
18 1 3 0.0091 1.4882
18 1 4 0.3969 1.7597
18 1 5 0.5067 0.4846
18 1 6 -0.5400 -0.3448
18 1 7 -0.7291 -2.6874
18 1 8 0.4787 -2.4369
18 1 9 0.5724 2.4575
18 1 10 0.4759 -1.4213
18 1 11 0.5004 0.6233
18 2 -11 0.3409 -1.1938
18 2 -10 0.2253 -0.4917
18 2 -9 0.1222 1.8199
18 2 -8 -0.3354 1.2990
18 2 -7 0.1935 0.2403
18 2 -6 1.4625 -1.7302
18 2 -5 0.7045 -1.0859
18 2 -4 -0.1614 1.3689
18 2 -3 1.0418 -2.6003
18 2 -2 0.0592 -1.9040
18 2 -1 1.4103 1.9962
18 2 0 1.9720 -3.0270
18 2 1 -3.0158 -2.3507
18 2 2 -0.7935 4.1475
18 2 3 -0.2104 0.9234
18 2 4 -1.5724 2.8006
18 2 5 -0.4484 -0.5433
18 2 6 -0.2710 0.1283
18 2 7 -1.0624 -1.4443
18 2 8 0.2895 -0.2565
18 2 9 0.3624 3.4567
18 2 10 -0.0345 -1.1743
18 2 11 0.2528 -0.8775
18 3 -11 0.2648 -0.5554
18 3 -10 0.5449 -0.9030
18 3 -9 -0.1354 0.1495
18 3 -8 -0.0194 1.5860
18 3 -7 0.3411 -0.7252
18 3 -6 -0.1697 -0.2590
18 3 -5 -0.0856 0.9754
18 3 -4 0.0342 0.2457
18 3 -3 -1.3944 -0.3785
18 3 -2 2.3691 -4.5160
18 3 -1 0.2101 0.7309
18 3 0 0.4491 0.2699
18 3 1 -0.2354 -1.5930
18 3 2 -0.4743 2.2660
18 3 3 -0.3496 1.5751
18 3 4 -1.2804 1.7234
18 3 5 0.2680 -0.4077
18 3 6 0.6703 1.6669
18 3 7 -1.4508 0.5744
18 3 8 0.4312 1.2937
18 3 9 0.4928 0.8835
18 3 10 0.0337 -1.3156
18 3 11 0.1927 -0.2450
18 4 -11 0.0649 -0.5848
18 4 -10 -0.1332 0.2705
18 4 -9 -0.0390 -0.8702
18 4 -8 0.7864 0.8745
18 4 -7 -0.9070 -1.2301
18 4 -6 -0.3941 -1.4438
18 4 -5 -0.7606 0.4372
18 4 -4 0.8634 -2.2536
18 4 -3 -0.0811 2.6542
18 4 -2 3.7957 -7.3498
18 4 -1 -0.8240 3.1981
18 4 0 0.7370 6.2005
18 4 1 3.5593 -4.4291
18 4 2 0.7576 -0.9056
18 4 3 -0.8706 1.6599
18 4 4 1.9449 -0.4625
18 4 5 -0.4482 0.7918
18 4 6 1.4538 0.2718
18 4 7 -1.5824 1.1752
18 4 8 0.0893 0.2195
18 4 9 1.1775 -1.5320
18 4 10 -0.1836 1.1455
18 4 11 -0.4334 0.6157
18 5 -10 -0.6743 2.2319
18 5 -9 0.7155 -0.7105
18 5 -8 -0.2489 -1.2671
18 5 -7 -0.6270 -1.5902
18 5 -6 -0.3586 -3.2925
18 5 -5 -0.6188 0.4901
18 5 -4 1.2806 -1.5711
18 5 -3 2.0230 2.5742
18 5 -2 2.4594 -6.6538
18 5 -1 -2.0181 3.7480
18 5 0 1.4648 7.1771
18 5 1 3.0637 -7.3134
18 5 2 1.0921 -4.1116
18 5 3 -1.3346 0.3409
18 5 4 1.6768 -0.9027
18 5 5 -1.2607 -1.4285
18 5 6 -0.2497 -1.1114
18 5 7 -0.1782 1.8863
18 5 8 0.0916 0.3467
18 5 9 0.4300 -1.7187
18 5 10 0.2942 3.2734
18 6 -10 -0.3057 2.8261
18 6 -9 -0.0465 -0.5780
18 6 -8 -0.1649 -2.5000
18 6 -7 -0.0022 -0.9296
18 6 -6 -0.4153 -2.1386
18 6 -5 -0.5703 1.9806
18 6 -4 -0.2124 -1.4259
18 6 -3 1.1189 -0.4444
18 6 -2 -0.3590 -5.6015
18 6 -1 -2.4816 2.4371
18 6 0 0.2188 4.7815
18 6 1 1.5527 -5.8659
18 6 2 1.6435 -4.0184
18 6 3 -1.6320 -1.5938
18 6 4 0.0564 -0.6513
18 6 5 -0.8952 -4.8772
18 6 6 -0.9777 0.6235
18 6 7 1.9897 2.1956
18 6 8 -0.6890 1.5319
18 6 9 0.0627 -3.4641
18 6 10 0.6946 1.9001
18 7 -9 -0.9010 -0.9613
18 7 -8 0.4640 -0.9638
18 7 -7 -0.4318 -0.1964
18 7 -6 0.3929 -1.3769
18 7 -5 -0.9844 1.4398
18 7 -4 -2.1220 -4.0989
18 7 -3 -0.3500 -3.3903
18 7 -2 -0.8752 -3.3871
18 7 -1 -2.1348 1.0193
18 7 0 -0.2372 3.2528
18 7 1 1.1198 -1.3567
18 7 2 1.3889 -3.1160
18 7 3 -0.6940 -2.9816
18 7 4 -0.8218 -0.1040
18 7 5 -0.0617 -5.5352
18 7 6 0.9061 1.5250
18 7 7 1.2760 2.0871
18 7 8 -0.0830 -0.3443
18 7 9 0.3116 -5.5816
18 7 10 0.1744 0.9832
18 8 -9 -0.4985 -0.2913
18 8 -8 -0.5314 0.1051
18 8 -7 0.0668 0.3174
18 8 -6 -0.0116 -2.6799
18 8 -5 -0.7933 -0.7217
18 8 -4 -3.0899 -3.2545
18 8 -3 0.1185 -3.3818
18 8 -2 -0.5412 -1.2556
18 8 -1 -0.4947 0.0023
18 8 0 -1.0083 2.3709
18 8 1 0.3622 0.9556
18 8 2 0.8783 -3.2223
18 8 3 -0.4648 -2.5749
18 8 4 -1.3851 1.5640
18 8 5 0.5577 -5.8238
18 8 6 0.8370 1.2116
18 8 7 0.1791 0.7274
18 8 8 1.7106 -2.0660
18 8 9 0.0100 -4.4431
18 9 -9 -0.0477 0.7608
18 9 -8 -0.4218 -0.4703
18 9 -7 -0.3969 0.8455
18 9 -6 0.1232 -2.5624
18 9 -5 -1.1821 -1.6090
18 9 -4 -2.3112 1.3958
18 9 -3 0.2927 -2.3106
18 9 -2 -0.2525 -1.4338
18 9 -1 -0.0258 0.8518
18 9 0 -2.1248 0.7413
18 9 1 0.4254 0.9572
18 9 2 0.7350 -2.5792
18 9 3 -0.8446 -0.4216
18 9 4 -0.3001 1.9786
18 9 5 -0.2225 -5.2477
18 9 6 0.2203 0.1934
18 9 7 0.5918 0.2308
18 9 8 1.2594 -0.4226
18 9 9 0.7494 -2.5755
18 10 -9 0.0792 0.8490
18 10 -8 -0.3286 -0.3568
18 10 -7 -0.9354 0.8951
18 10 -6 -0.0079 -0.9115
18 10 -5 -1.1129 -1.3512
18 10 -4 -1.0579 2.2454
18 10 -3 -0.0802 -1.2997
18 10 -2 0.5228 -0.5763
18 10 -1 -1.3151 0.9775
18 10 0 -0.4662 0.1012
18 10 1 0.1406 0.1807
18 10 2 0.9396 -0.9566
18 10 3 -0.4119 1.1574
18 10 4 -0.0045 1.3504
18 10 5 -0.7360 -2.6722
18 10 6 0.2508 -1.5390
18 10 7 -0.1565 1.9479
18 10 8 0.4136 0.9281
18 10 9 1.2141 -1.2759
18 11 -8 -1.0552 0.4391
18 11 -7 -0.2544 1.0861
18 11 -6 -1.0405 -0.1910
18 11 -5 -0.3352 -1.5247
18 11 -4 -0.3485 0.2368
18 11 -3 -0.5063 1.2169
18 11 -2 0.0116 -0.0097
18 11 -1 -0.3107 0.3857
18 11 0 0.1141 -1.0857
18 11 1 -0.1035 -0.2986
18 11 2 1.3278 0.0999
18 11 3 -0.8351 1.1265
18 11 4 -0.6397 1.4899
18 11 5 -0.6224 -0.7217
18 11 6 -0.7884 -1.6872
18 11 7 -1.0820 1.3064
18 11 8 0.2633 1.9050
18 12 -8 -0.5839 0.7818
18 12 -7 0.3146 1.1450
18 12 -6 -0.1506 0.5600
18 12 -5 -0.0388 -2.0122
18 12 -4 -0.0396 0.7966
18 12 -3 -1.4994 2.0738
18 12 -2 -0.1713 -0.2003
18 12 -1 0.3761 -0.4235
18 12 0 -0.2527 -1.7506
18 12 1 0.2607 0.0340
18 12 2 1.2837 0.0555
18 12 3 -1.0570 0.6386
18 12 4 0.0665 1.4678
18 12 5 -0.6528 0.6565
18 12 6 -0.5017 -1.1727
18 12 7 -1.0445 -0.0605
18 12 8 -0.1653 2.1844
18 13 -7 0.7594 0.5313
18 13 -6 0.9082 1.6764
18 13 -5 0.8018 -1.7229
18 13 -4 -0.2795 0.8165
18 13 -3 -0.8056 1.4692
18 13 -2 0.1558 0.2360
18 13 -1 -0.3278 -1.7771
18 13 0 0.6104 0.6292
18 13 1 -0.0236 0.0988
18 13 2 1.0613 -0.2089
18 13 3 -0.3736 0.1889
18 13 4 0.7731 1.9681
18 13 5 -0.0195 0.8832
18 13 6 0.5753 0.2022
18 13 7 -0.7449 0.3258
18 14 -7 0.4032 -0.0196
18 14 -6 0.6181 1.5241
18 14 -5 0.9202 -1.5669
18 14 -4 0.5799 -0.6387
18 14 -3 -0.0328 1.4599
18 14 -2 -0.0162 -1.0547
18 14 -1 -0.2109 -1.5159
18 14 0 0.6542 1.4640
18 14 1 0.0292 0.6617
18 14 2 0.6787 -0.2973
18 14 3 -0.2930 0.2367
18 14 4 0.5444 2.0969
18 14 5 0.1215 -0.3487
18 14 6 0.1461 1.6990
18 14 7 -0.1077 -0.0769
18 15 -6 0.3971 0.2344
18 15 -5 0.0022 -1.2289
18 15 -4 1.2491 -0.7639
18 15 -3 -0.5626 0.0088
18 15 -2 -0.1806 -2.4701
18 15 -1 -0.6022 -1.1361
18 15 0 0.9167 0.6530
18 15 1 -0.1108 0.6951
18 15 2 0.3677 0.5402
18 15 3 -0.3488 -0.2030
18 15 4 0.4146 0.5990
18 15 5 -0.4601 -1.2272
18 15 6 -0.2814 0.5699
18 16 -5 -0.3786 0.0542
18 16 -4 0.4204 -0.8323
18 16 -3 0.0001 -0.7551
18 16 -2 -0.4732 -1.9274
18 16 -1 -0.7877 -1.1059
18 16 0 0.8587 0.4616
18 16 1 -0.7346 -0.4216
18 16 2 -0.2314 0.8002
18 16 3 0.0848 -0.5908
18 16 4 0.5245 -0.5370
18 16 5 -0.4179 -1.3027
18 17 -4 0.2343 -0.4859
18 17 -3 0.8062 0.1732
18 17 -2 -0.2479 -0.5155
18 17 -1 -0.7126 -0.9534
18 17 0 0.0926 -0.0364
18 17 1 -1.1128 -1.1969
18 17 2 -0.5300 -0.0664
18 17 3 0.3933 0.2868
18 17 4 0.5226 -0.4656
18 18 0 0.0575 0.2135
18 18 1 -0.8390 -1.5234
18 18 2 0.0099 0.1958
19 0 -11 0.0408 -0.1659
19 0 -10 -0.0845 0.2158
19 0 -9 0.0505 -0.1359
19 0 -8 -1.2817 -0.0459
19 0 -7 2.2950 0.1624
19 0 -6 -0.7877 -0.0893
19 0 -5 1.1146 -0.0504
19 0 -4 2.0313 0.0345
19 0 -3 1.0598 0.1311
19 0 -2 1.9764 -0.2887
19 0 -1 2.1864 0.2170
19 0 0 1.2447 0.0410
19 0 1 -0.5885 -0.2283
19 0 2 1.3236 0.1804
19 0 3 0.0385 0.0205
19 0 4 2.1770 -0.1035
19 0 5 0.9958 -0.0107
19 0 6 -0.5371 0.1787
19 0 7 0.0672 -0.1984
19 0 8 0.0621 0.0286
19 0 9 0.1229 0.1160
19 0 10 1.6741 -0.1504
19 0 11 -0.1474 0.0660
19 1 -11 0.1911 -0.3327
19 1 -10 0.2024 0.2352
19 1 -9 0.4161 1.8876
19 1 -8 -0.6078 0.4716
19 1 -7 0.5464 -1.5086
19 1 -6 0.9670 -1.3279
19 1 -5 0.4865 -1.4439
19 1 -4 1.1655 -0.4210
19 1 -3 1.4816 -0.4628
19 1 -2 0.9891 -1.3506
19 1 -1 1.9765 2.5299
19 1 0 2.0473 -1.7274
19 1 1 -2.3369 -1.8275
19 1 2 1.0127 3.5418
19 1 3 -0.3629 -0.5094
19 1 4 0.8341 1.7292
19 1 5 0.4871 -0.7646
19 1 6 -0.1655 -0.5156
19 1 7 -0.5298 -2.2355
19 1 8 -0.4744 0.8819
19 1 9 -0.0336 3.3997
19 1 10 0.4564 0.1530
19 1 11 0.0989 -0.3482
19 2 -11 -0.3358 0.1845
19 2 -10 0.7118 0.2592
19 2 -9 0.1553 1.5743
19 2 -8 -0.0866 0.5343
19 2 -7 0.5818 -1.8233
19 2 -6 1.0579 -1.4940
19 2 -5 -0.4306 1.2495
19 2 -4 0.6488 0.7457
19 2 -3 -0.5297 -0.7076
19 2 -2 0.2959 -1.9277
19 2 -1 1.0168 0.6665
19 2 0 0.4060 -0.4824
19 2 1 -3.0247 -0.0470
19 2 2 0.9647 2.3422
19 2 3 -0.5848 0.7135
19 2 4 -1.1725 1.2327
19 2 5 1.5267 -0.7846
19 2 6 0.8725 -0.1130
19 2 7 -0.7853 -1.3423
19 2 8 -0.2449 2.8197
19 2 9 -0.1027 2.2408
19 2 10 -0.1101 -0.0140
19 2 11 0.4424 -0.3235
19 3 -10 -0.1226 0.8593
19 3 -9 -0.4052 0.3621
19 3 -8 0.2340 1.3946
19 3 -7 -0.1959 -1.4493
19 3 -6 -0.3560 -0.5914
19 3 -5 -0.8841 2.2466
19 3 -4 0.8027 0.5881
19 3 -3 -1.3184 0.8112
19 3 -2 2.7677 -5.3871
19 3 -1 -0.0604 0.7201
19 3 0 -0.3360 4.8146
19 3 1 0.1609 0.4148
19 3 2 1.2230 -0.7608
19 3 3 -0.5017 0.5889
19 3 4 0.5487 -0.2956
19 3 5 0.6032 -0.3473
19 3 6 1.5830 0.3539
19 3 7 -0.6458 -0.5294
19 3 8 -0.1803 0.3568
19 3 9 0.4752 -0.6036
19 3 10 0.8883 0.3437
19 3 11 -0.3094 0.9081
19 4 -10 -1.0387 2.0056
19 4 -9 0.1654 0.3189
19 4 -8 -0.1955 0.7953
19 4 -7 -1.3153 -2.0816
19 4 -6 -0.1901 -1.3090
19 4 -5 -1.5199 1.1643
19 4 -4 1.1011 0.3572
19 4 -3 0.7220 3.3862
19 4 -2 2.5708 -6.6341
19 4 -1 -0.6363 1.7166
19 4 0 0.6453 7.7150
19 4 1 1.2182 -1.7976
19 4 2 1.4901 -3.5991
19 4 3 -0.2229 -1.0123
19 4 4 1.4908 -1.0686
19 4 5 -1.5645 -0.2096
19 4 6 0.7118 -0.8087
19 4 7 -1.0768 0.3902
19 4 8 0.2583 -1.5569
19 4 9 0.3370 -0.9381
19 4 10 0.2580 2.4035
19 5 -9 -0.3015 0.1929
19 5 -8 -0.5845 -1.4097
19 5 -7 -0.5677 -2.1839
19 5 -6 -0.2181 -1.8730
19 5 -5 -0.4455 2.1961
19 5 -4 0.3609 0.6478
19 5 -3 1.3129 3.9867
19 5 -2 -0.4367 -4.5986
19 5 -1 -1.4214 1.0642
19 5 0 0.0173 5.2663
19 5 1 -0.2753 -2.7112
19 5 2 1.0856 -2.4742
19 5 3 -1.1221 -2.0583
19 5 4 -0.2725 -1.2438
19 5 5 -1.0403 -0.8522
19 5 6 -1.2868 -1.6296
19 5 7 1.3406 2.6747
19 5 8 -0.2965 0.1940
19 5 9 -0.4247 -1.2073
19 5 10 -0.1826 2.4353
19 6 -9 -1.2068 -1.0504
19 6 -8 -0.4489 -1.4104
19 6 -7 -0.3900 -1.8002
19 6 -6 -0.2217 -0.6867
19 6 -5 0.1976 2.3386
19 6 -4 -1.3170 -1.5174
19 6 -3 0.0704 1.3348
19 6 -2 -1.3985 -1.8106
19 6 -1 -1.7470 0.1440
19 6 0 -0.0156 1.5297
19 6 1 -0.0642 -0.0952
19 6 2 0.3918 0.5144
19 6 3 -1.7234 -2.0722
19 6 4 -1.1528 -0.9337
19 6 5 -0.3307 -2.2925
19 6 6 -0.5979 -0.5357
19 6 7 2.3103 3.4665
19 6 8 -1.2539 0.8350
19 6 9 0.0242 -2.9048
19 6 10 -0.0426 1.0787
19 7 -9 -0.4095 -1.2326
19 7 -8 -0.4982 -0.5286
19 7 -7 -0.3249 -0.7497
19 7 -6 0.4427 -1.7118
19 7 -5 -1.0031 0.1030
19 7 -4 -2.3469 -3.6049
19 7 -3 -0.4277 -0.8145
19 7 -2 -1.1360 0.4688
19 7 -1 -0.5810 -0.4441
19 7 0 0.2331 0.6898
19 7 1 0.5849 0.8865
19 7 2 0.6213 1.2548
19 7 3 -0.8842 -0.6295
19 7 4 -1.3827 -0.3113
19 7 5 0.0063 -2.6710
19 7 6 0.2472 -0.3284
19 7 7 -0.2047 1.4491
19 7 8 -0.0929 -0.1429
19 7 9 -0.1123 -3.5616
19 8 -9 0.3072 -0.6541
19 8 -8 0.3818 -0.3621
19 8 -7 -0.0486 0.0139
19 8 -6 1.0103 -3.3231
19 8 -5 -1.1780 -1.1262
19 8 -4 -2.4041 -0.7732
19 8 -3 -0.1114 -1.1128
19 8 -2 -0.3309 0.4446
19 8 -1 -0.2398 0.6891
19 8 0 -1.0978 0.1366
19 8 1 0.7649 -0.5381
19 8 2 0.7951 0.1679
19 8 3 -0.2913 1.2921
19 8 4 -0.8913 0.8476
19 8 5 0.2561 -2.1753
19 8 6 -0.7625 -1.5237
19 8 7 0.0499 -0.0983
19 8 8 0.6424 -0.3445
19 8 9 -0.0630 -2.4873
19 9 -8 0.6037 -0.0017
19 9 -7 -0.1461 0.2897
19 9 -6 0.7597 -2.2915
19 9 -5 -0.7910 -0.4866
19 9 -4 -1.8014 2.2594
19 9 -3 0.4101 -1.8001
19 9 -2 0.8382 1.2225
19 9 -1 -0.4587 0.8343
19 9 0 -0.8451 0.0362
19 9 1 0.8780 -1.4993
19 9 2 0.7059 -1.2752
19 9 3 0.3119 2.8121
19 9 4 0.0569 1.0010
19 9 5 -0.5793 -0.7384
19 9 6 -0.0748 -1.9576
19 9 7 0.3881 0.4428
19 9 8 0.7272 -0.1288
19 9 9 0.8524 -1.2698
19 10 -8 -0.6517 0.1990
19 10 -7 0.0008 1.7993
19 10 -6 0.0624 -1.3620
19 10 -5 -1.1167 -0.4062
19 10 -4 -0.7636 1.0412
19 10 -3 0.0163 -0.3599
19 10 -2 0.4350 2.2591
19 10 -1 0.7674 0.2662
19 10 0 0.1000 -0.1800
19 10 1 0.2488 -1.5501
19 10 2 1.0535 -1.2595
19 10 3 0.6892 2.2604
19 10 4 -0.3491 0.4554
19 10 5 -0.3532 1.2751
19 10 6 -0.0256 -1.5364
19 10 7 -0.9322 0.7707
19 10 8 0.9348 0.5163
19 11 -8 -0.8640 0.4231
19 11 -7 0.0345 2.5415
19 11 -6 0.4552 -0.2978
19 11 -5 -0.3189 -2.3626
19 11 -4 -0.5996 0.9862
19 11 -3 -1.1554 1.7483
19 11 -2 -0.2342 1.4519
19 11 -1 1.1369 0.7193
19 11 0 -0.2082 -2.0641
19 11 1 -0.2886 0.1292
19 11 2 0.7631 -0.7082
19 11 3 -0.2510 0.5428
19 11 4 -0.3147 0.1644
19 11 5 0.0471 1.7917
19 11 6 -0.8346 -1.0549
19 11 7 -0.5841 0.0848
19 11 8 0.0465 1.2729
19 12 -7 0.0857 1.6573
19 12 -6 0.9565 1.6055
19 12 -5 1.1521 -2.8748
19 12 -4 -1.2931 1.6072
19 12 -3 -0.9753 1.5794
19 12 -2 -0.1923 1.0019
19 12 -1 0.9061 -0.4771
19 12 0 -0.1175 -1.0656
19 12 1 0.2620 0.7687
19 12 2 0.1975 -0.3003
19 12 3 -0.7297 0.1225
19 12 4 0.4986 -0.2250
19 12 5 -0.3978 1.3588
19 12 6 0.1988 -0.2601
19 12 7 -0.6515 -0.1310
19 13 -6 0.3196 2.3552
19 13 -5 0.9888 -1.3450
19 13 -4 -0.5737 -0.0813
19 13 -3 -0.7677 1.2535
19 13 -2 0.1281 -0.0579
19 13 -1 0.6873 -1.1469
19 13 0 0.6329 0.3958
19 13 1 0.4757 0.1180
19 13 2 0.6761 0.3223
19 13 3 -0.2776 0.9901
19 13 4 0.1957 0.0657
19 13 5 0.0633 0.9857
19 13 6 0.1523 0.9663
19 14 -6 -0.1910 1.5905
19 14 -5 0.3570 -0.5276
19 14 -4 0.4515 -0.5383
19 14 -3 -1.0887 0.2300
19 14 -2 0.1425 -1.4443
19 14 -1 -0.5115 -0.7760
19 14 0 1.0357 -0.4552
19 14 1 -0.1089 0.1544
19 14 2 0.7473 0.6290
19 14 3 -0.1516 1.7641
19 14 4 -0.2968 0.3920
19 14 5 0.0464 0.2565
19 14 6 -0.5887 1.0724
19 15 -5 0.0878 0.4775
19 15 -4 0.3112 -0.2949
19 15 -3 -0.4715 -0.6471
19 15 -2 -0.2727 -1.5289
19 15 -1 -0.6908 -0.7324
19 15 0 0.4731 -0.2624
19 15 1 -0.0811 -0.3254
19 15 2 -0.5751 0.3795
19 15 3 0.1029 1.2439
19 15 4 0.0261 0.1515
19 15 5 -0.6359 -0.6274
19 16 -4 0.3017 -0.3221
19 16 -3 0.2692 -0.0314
19 16 -2 0.1413 -0.5222
19 16 -1 -0.4203 -0.0483
19 16 0 0.0015 0.2040
19 16 1 -0.5125 -0.9902
19 16 2 -1.1194 -0.5737
19 16 3 0.2787 0.6561
19 16 4 0.6856 -0.0359
19 17 -2 0.2798 0.5856
19 17 -1 -0.4293 -0.3720
19 17 0 -0.0595 0.3945
19 17 1 -1.0796 -1.4024
19 17 2 -0.5119 -0.6245
20 0 -11 0.0125 0.0028
20 0 -10 -0.2742 -0.1439
20 0 -9 0.3562 0.1341
20 0 -8 -0.2061 0.0164
20 0 -7 -0.2518 -0.1528
20 0 -6 0.5968 0.1708
20 0 -5 0.5579 -0.0203
20 0 -4 0.8794 -0.1132
20 0 -3 0.9589 0.0675
20 0 -2 2.4578 0.0845
20 0 -1 -0.1258 -0.1608
20 0 0 2.1275 0.0405
20 0 1 -0.3201 0.1452
20 0 2 -0.1463 -0.1909
20 0 3 0.4010 0.0525
20 0 4 1.6035 0.1193
20 0 5 0.5443 -0.1366
20 0 6 0.2551 0.0125
20 0 7 -0.2054 0.0884
20 0 8 -0.6589 -0.0754
20 0 9 -0.3561 -0.0575
20 0 10 -0.0600 0.1414
20 0 11 -0.6815 -0.0841
20 1 -10 0.1980 0.7403
20 1 -9 -0.1675 1.0811
20 1 -8 0.1772 -1.1191
20 1 -7 -0.6731 -2.0622
20 1 -6 0.9309 -1.4105
20 1 -5 -0.7325 0.3753
20 1 -4 0.1316 1.0647
20 1 -3 0.1529 1.0814
20 1 -2 0.9313 -0.0066
20 1 -1 -0.3787 0.6289
20 1 0 0.6753 -0.6259
20 1 1 -0.9172 0.1073
20 1 2 0.1827 1.2723
20 1 3 -0.4482 -0.0964
20 1 4 -0.0550 0.1884
20 1 5 0.7025 -0.0190
20 1 6 1.0101 -0.5541
20 1 7 -0.4988 -0.8160
20 1 8 -0.3026 3.9845
20 1 9 0.4043 2.1521
20 1 10 -1.0983 -0.1907
20 1 11 0.1853 0.1982
20 2 -10 0.1343 1.4662
20 2 -9 -0.7041 0.7868
20 2 -8 0.9099 -1.7607
20 2 -7 -0.5936 -1.0201
20 2 -6 -0.0192 -1.7500
20 2 -5 -1.3216 2.3370
20 2 -4 -0.9156 2.1493
20 2 -3 -1.3725 0.8298
20 2 -2 1.2167 -1.3434
20 2 -1 -0.1844 -0.6094
20 2 0 -0.9932 2.5964
20 2 1 -0.1024 1.9534
20 2 2 1.6118 -0.4721
20 2 3 -1.0940 -0.4779
20 2 4 0.5427 -1.5747
20 2 5 0.7343 0.2119
20 2 6 1.0211 -0.5067
20 2 7 -0.5403 -0.1686
20 2 8 -0.6668 3.0301
20 2 9 0.6899 -0.0352
20 2 10 0.4999 -0.0288
20 3 -10 -0.6846 1.6555
20 3 -9 -0.6933 1.2347
20 3 -8 0.8343 -0.9266
20 3 -7 -0.7585 -0.9175
20 3 -6 -0.6487 -0.8227
20 3 -5 -0.6572 1.1187
20 3 -4 -0.6181 1.3992
20 3 -3 -1.2945 0.7525
20 3 -2 2.8166 -3.7133
20 3 -1 -1.0714 -0.3746
20 3 0 -0.9274 6.5893
20 3 1 0.4824 2.0422
20 3 2 1.4782 -3.3097
20 3 3 -0.0293 -2.0419
20 3 4 1.1444 -2.4762
20 3 5 -0.3331 -0.4531
20 3 6 0.7210 0.2506
20 3 7 -1.2260 -1.3433
20 3 8 -0.0885 -1.2175
20 3 9 0.3775 -1.1234
20 3 10 1.0438 1.1931
20 4 -9 -1.0857 1.7010
20 4 -8 -0.1451 -1.4334
20 4 -7 -0.6601 -1.6701
20 4 -6 -0.5892 -0.4317
20 4 -5 0.0505 0.3606
20 4 -4 0.6621 1.5643
20 4 -3 -0.3085 1.7824
20 4 -2 1.0952 -3.8415
20 4 -1 -1.0117 0.5643
20 4 0 -1.7265 6.2606
20 4 1 -0.5498 0.3137
20 4 2 0.4573 -2.8049
20 4 3 -0.4843 -1.9395
20 4 4 -0.4903 -2.5553
20 4 5 -1.5410 0.1494
20 4 6 0.0734 -0.3890
20 4 7 -0.3159 -0.9543
20 4 8 0.5111 -1.4486
20 4 9 0.1599 -0.2307
20 4 10 -0.2169 1.3436
20 5 -9 -1.5904 0.6258
20 5 -8 -0.7982 -1.9075
20 5 -7 -0.1239 -1.3103
20 5 -6 -1.0281 0.4906
20 5 -5 1.0397 2.1997
20 5 -4 -0.2056 1.0319
20 5 -3 -0.5387 1.5363
20 5 -2 -1.0262 -1.9694
20 5 -1 -1.1730 0.2950
20 5 0 -1.7123 2.1535
20 5 1 -0.6694 1.0703
20 5 2 -0.1225 0.9198
20 5 3 -1.6122 -0.6342
20 5 4 -1.3271 -1.2839
20 5 5 -1.0457 -0.2850
20 5 6 -0.0681 -0.8263
20 5 7 1.8128 2.1949
20 5 8 -0.7241 -0.4631
20 5 9 0.1819 -0.6010
20 5 10 -0.4246 0.3368
20 6 -9 -1.2201 0.0713
20 6 -8 -1.0668 -1.4358
20 6 -7 0.0211 -0.1313
20 6 -6 -0.2857 1.0903
20 6 -5 0.5035 0.9597
20 6 -4 -1.3742 -0.7741
20 6 -3 -0.5057 0.3242
20 6 -2 -1.4031 0.0164
20 6 -1 -0.4158 -0.7499
20 6 0 -0.5772 0.0706
20 6 1 -0.3630 2.0053
20 6 2 0.1800 3.0129
20 6 3 -1.6361 1.2577
20 6 4 -0.7010 -0.1336
20 6 5 -0.1650 -1.7765
20 6 6 0.1915 0.4361
20 6 7 0.9429 1.8964
20 6 8 -1.1390 -0.0253
20 6 9 0.1828 -1.6875
20 7 -9 -0.5829 0.1113
20 7 -8 -0.2695 -0.8891
20 7 -7 -0.1045 0.5883
20 7 -6 0.9868 -0.8883
20 7 -5 -0.6273 -1.5545
20 7 -4 -1.1048 -0.0843
20 7 -3 -0.3477 0.3089
20 7 -2 -0.0145 0.8353
20 7 -1 0.2939 -0.1393
20 7 0 -0.5600 -0.1027
20 7 1 0.0191 0.3993
20 7 2 0.1615 2.4191
20 7 3 -0.7971 2.8181
20 7 4 -0.6542 0.3775
20 7 5 -0.2669 -1.0284
20 7 6 -1.0024 -0.8078
20 7 7 -0.4562 0.1680
20 7 8 -0.3616 0.3395
20 7 9 -0.0506 -1.5623
20 8 -8 0.5822 -0.0804
20 8 -7 0.5808 0.5961
20 8 -6 0.8709 -2.0491
20 8 -5 -0.2426 -0.9528
20 8 -4 -1.2177 2.1293
20 8 -3 -0.0414 -0.5790
20 8 -2 1.3404 2.0025
20 8 -1 -0.3036 0.7873
20 8 0 0.0607 -0.4369
20 8 1 0.5357 -0.8344
20 8 2 0.2124 0.1316
20 8 3 0.4539 3.3168
20 8 4 -0.2001 1.1225
20 8 5 -0.5763 0.0761
20 8 6 -1.0343 -2.4533
20 8 7 -0.0831 0.1112
20 8 8 -0.0259 -0.4312
20 9 -8 -0.0030 0.1170
20 9 -7 0.8737 2.1585
20 9 -6 0.6539 -0.8836
20 9 -5 -0.6335 -0.4267
20 9 -4 -0.3850 1.5384
20 9 -3 0.3055 -1.5114
20 9 -2 0.6915 3.4067
20 9 -1 0.8881 0.6977
20 9 0 0.5285 -0.0171
20 9 1 0.8149 -1.5158
20 9 2 0.2864 -1.0067
20 9 3 1.2782 2.7539
20 9 4 0.3755 0.6512
20 9 5 -0.2480 1.2349
20 9 6 0.5572 -1.4624
20 9 7 -0.1731 -0.5919
20 9 8 0.6555 -0.6654
20 10 -8 -0.7669 0.1275
20 10 -7 0.0973 3.5447
20 10 -6 0.6480 0.8090
20 10 -5 -0.9150 -2.5951
20 10 -4 0.3655 0.5341
20 10 -3 -0.5461 -0.2444
20 10 -2 0.3813 2.8666
20 10 -1 1.3518 1.1499
20 10 0 0.4443 -0.6645
20 10 1 0.2854 -0.7093
20 10 2 -0.1907 -0.2159
20 10 3 0.8961 1.0404
20 10 4 -0.1935 -0.3992
20 10 5 0.1686 2.2184
20 10 6 0.0776 -0.7976
20 10 7 0.0264 -0.7908
20 10 8 0.6406 -0.1809
20 11 -7 0.1254 2.3619
20 11 -6 0.3797 2.3490
20 11 -5 0.5030 -3.5146
20 11 -4 -1.0733 1.1631
20 11 -3 -0.9750 0.8397
20 11 -2 0.2189 1.4854
20 11 -1 0.6639 0.5683
20 11 0 0.1108 -1.1557
20 11 1 0.2542 1.0535
20 11 2 -0.5329 -0.0029
20 11 3 -0.0042 0.0089
20 11 4 0.0251 -0.9985
20 11 5 -0.2481 1.1103
20 11 6 -0.4286 -0.3467
20 11 7 0.1791 -0.1543
20 12 -6 0.3747 3.0827
20 12 -5 0.4950 -1.5899
20 12 -4 -0.9480 0.8929
20 12 -3 -1.1946 0.8756
20 12 -2 0.1590 0.2043
20 12 -1 0.9538 -0.5907
20 12 0 -0.4148 -0.4600
20 12 1 1.0640 0.2090
20 12 2 -0.6843 0.1710
20 12 3 -0.0098 0.6531
20 12 4 0.2448 -1.2526
20 12 5 -0.2216 0.4107
20 12 6 -0.1082 0.6191
20 13 -6 -0.1241 2.5404
20 13 -5 -0.2058 -0.0996
20 13 -4 0.1204 0.4367
20 13 -3 -1.6182 0.4812
20 13 -2 0.6994 -0.4947
20 13 -1 0.0688 -0.9616
20 13 0 0.4042 -0.8871
20 13 1 0.5284 -1.5168
20 13 2 -0.1922 0.5387
20 13 3 -0.0639 1.9413
20 13 4 -0.5957 -0.6870
20 13 5 0.1907 1.0126
20 13 6 -0.8787 0.5695
20 14 -5 0.0120 0.5638
20 14 -4 -0.2803 0.2519
20 14 -3 -1.1658 0.1922
20 14 -2 0.0437 -0.4737
20 14 -1 -0.5777 -0.9009
20 14 0 0.4167 -1.1885
20 14 1 0.4184 -1.5243
20 14 2 -0.3436 -0.4497
20 14 3 -0.2384 2.1889
20 14 4 -0.6405 0.1511
20 14 5 -0.0087 0.3819
20 15 -4 0.1212 -0.1131
20 15 -3 -0.6278 0.2041
20 15 -2 0.1453 0.1812
20 15 -1 -0.3585 0.1170
20 15 0 -0.3502 -0.2580
20 15 1 0.7187 -1.0141
20 15 2 -1.4814 -1.9847
20 15 3 0.1629 1.0948
20 15 4 -0.0163 0.4412
20 16 -2 0.7833 1.1418
20 16 -1 -0.3094 0.5654
20 16 0 -0.1740 0.6656
20 16 1 -0.1891 -1.1269
21 0 -10 0.5234 -0.0183
21 0 -9 0.0415 -0.0784
21 0 -8 0.1758 0.1233
21 0 -7 -0.6990 -0.0525
21 0 -6 0.1441 -0.0547
21 0 -5 -1.1391 0.0726
21 0 -4 -0.8210 0.0601
21 0 -3 -0.6634 -0.1665
21 0 -2 1.3543 0.1061
21 0 -1 -2.0527 0.0783
21 0 0 0.4564 -0.2100
21 0 1 1.0870 0.1535
21 0 2 -0.3521 0.0201
21 0 3 0.4364 -0.1059
21 0 4 -0.4061 0.0172
21 0 5 -0.0781 0.1113
21 0 6 0.4503 -0.1049
21 0 7 -0.4073 -0.0375
21 0 8 0.0294 0.1521
21 0 9 0.7287 -0.1045
21 0 10 -1.9956 0.0514
21 1 -10 0.7511 0.9011
21 1 -9 0.0278 -0.1076
21 1 -8 0.9087 -3.3572
21 1 -7 -0.2197 -0.4785
21 1 -6 0.2532 -1.0339
21 1 -5 -1.3173 1.3205
21 1 -4 -1.5501 2.7052
21 1 -3 -1.1818 1.9584
21 1 -2 0.1337 -0.7729
21 1 -1 -1.1742 -0.2037
21 1 0 -1.2058 0.3919
21 1 1 0.6564 0.8708
21 1 2 1.1383 1.2702
21 1 3 -0.7503 -1.7109
21 1 4 0.6744 -1.1718
21 1 5 -0.2119 0.6171
21 1 6 0.3589 -0.7621
21 1 7 -0.3627 1.7376
21 1 8 -0.2034 3.0926
21 1 9 1.0119 -0.5386
21 1 10 -1.2236 -0.7175
21 2 -9 -0.3336 0.2815
21 2 -8 1.1107 -4.3714
21 2 -7 -0.3447 -0.1456
21 2 -6 -0.2718 -0.9085
21 2 -5 -0.6338 1.6836
21 2 -4 -1.0813 1.9875
21 2 -3 -1.0658 1.0854
21 2 -2 1.3197 -1.7889
21 2 -1 -0.3081 -1.8965
21 2 0 -1.2451 3.9893
21 2 1 -0.0105 1.9127
21 2 2 1.2331 -0.4953
21 2 3 -0.7705 -3.6371
21 2 4 0.8966 -2.6141
21 2 5 -0.1121 0.2359
21 2 6 -0.2343 -0.4282
21 2 7 -1.5791 1.4755
21 2 8 -0.0308 0.5047
21 2 9 1.1769 -2.4587
21 2 10 0.2430 0.4498
21 3 -9 -0.5717 1.4212
21 3 -8 0.2800 -3.5723
21 3 -7 0.0351 -1.2849
21 3 -6 -1.1969 -0.0543
21 3 -5 0.3070 -0.7026
21 3 -4 0.2078 1.0307
21 3 -3 -0.5495 -0.2824
21 3 -2 1.4798 -2.2108
21 3 -1 -0.3975 -0.9576
21 3 0 -1.3418 6.3467
21 3 1 -0.4539 0.8096
21 3 2 0.2642 -2.4923
21 3 3 -0.3293 -2.9256
21 3 4 -0.5070 -3.1774
21 3 5 -0.7924 0.4506
21 3 6 -0.7900 0.4159
21 3 7 -1.7852 -2.0388
21 3 8 0.1302 -0.9928
21 3 9 0.9785 -1.0143
21 3 10 0.1587 0.8264
21 4 -9 -0.8891 1.5936
21 4 -8 -0.6165 -2.7586
21 4 -7 0.5735 -1.5174
21 4 -6 -1.2767 1.0151
21 4 -5 1.1052 0.0176
21 4 -4 0.7989 1.4406
21 4 -3 -0.4112 -0.3300
21 4 -2 -0.0587 -1.6171
21 4 -1 -1.2289 0.8146
21 4 0 -1.9556 4.1284
21 4 1 -0.2400 0.2853
21 4 2 -0.7485 -1.0867
21 4 3 -0.8762 -0.6902
21 4 4 -1.3645 -1.5841
21 4 5 -1.2934 0.8237
21 4 6 1.1149 -0.1701
21 4 7 -0.2000 -1.4195
21 4 8 0.1682 -0.6838
21 4 9 0.7239 0.7408
21 5 -9 -1.0846 1.6227
21 5 -8 -1.5376 -1.6743
21 5 -7 0.2421 0.2418
21 5 -6 -0.9759 2.7999
21 5 -5 0.9658 1.2904
21 5 -4 -0.2311 0.6402
21 5 -3 0.1686 0.0150
21 5 -2 -0.5108 -0.8403
21 5 -1 -0.6856 -0.0879
21 5 0 -0.8622 1.6462
21 5 1 0.0340 1.3236
21 5 2 -0.4792 1.1788
21 5 3 -1.2809 1.0611
21 5 4 -0.9404 0.3956
21 5 5 -0.1476 -0.4539
21 5 6 1.8651 0.6418
21 5 7 0.7892 0.7657
21 5 8 -0.0881 -0.9990
21 5 9 0.7680 0.2075
21 6 -8 -1.4954 -0.5793
21 6 -7 -0.3131 1.6523
21 6 -6 -0.1613 2.7373
21 6 -5 -0.2542 -1.2923
21 6 -4 -0.8308 0.9168
21 6 -3 0.2170 0.8239
21 6 -2 0.1936 -0.3494
21 6 -1 0.8168 -0.5961
21 6 0 -0.8343 0.8530
21 6 1 0.4006 1.7016
21 6 2 -0.0402 1.8584
21 6 3 -1.0159 2.3902
21 6 4 0.4491 0.4312
21 6 5 -0.0095 -0.3135
21 6 6 0.0831 1.3828
21 6 7 0.3560 0.4554
21 6 8 -0.6539 -0.2529
21 6 9 0.5670 -0.5763
21 7 -8 -0.9572 0.1067
21 7 -7 0.2699 1.6005
21 7 -6 0.7165 0.3336
21 7 -5 -0.5202 -1.7108
21 7 -4 -0.3137 2.4451
21 7 -3 -0.2981 0.9812
21 7 -2 1.1476 1.3152
21 7 -1 -0.1249 0.0747
21 7 0 -0.5367 0.2117
21 7 1 0.0160 1.6237
21 7 2 -0.4179 1.0135
21 7 3 -0.1239 2.9849
21 7 4 0.6949 0.0653
21 7 5 -0.7125 1.0267
21 7 6 -0.2803 -0.4871
21 7 7 -0.1153 0.7779
21 7 8 -0.2017 0.0029
21 8 -8 -0.8653 -0.0102
21 8 -7 0.5607 2.1305
21 8 -6 1.0015 0.2837
21 8 -5 -0.6986 -0.0745
21 8 -4 0.4408 1.7119
21 8 -3 0.3312 -0.2807
21 8 -2 0.4925 2.9682
21 8 -1 0.1770 0.7035
21 8 0 0.6141 -0.2074
21 8 1 0.1533 0.8318
21 8 2 -0.4028 0.0523
21 8 3 0.3191 2.6426
21 8 4 0.4620 0.0231
21 8 5 -0.4965 0.8686
21 8 6 0.7662 -0.9772
21 8 7 0.1379 0.1714
21 8 8 0.4899 -0.5966
21 9 -7 -0.3159 3.0984
21 9 -6 0.8972 2.7030
21 9 -5 -1.3810 -1.5992
21 9 -4 1.0329 -0.0735
21 9 -3 0.1877 -0.8893
21 9 -2 -0.2191 2.9981
21 9 -1 1.3630 1.4307
21 9 0 0.4071 -0.4727
21 9 1 1.1684 -0.2028
21 9 2 -0.6733 0.4280
21 9 3 0.5214 1.8144
21 9 4 0.6479 -0.5778
21 9 5 -0.4251 0.8707
21 9 6 0.8347 -0.4766
21 9 7 0.3683 -1.2542
21 10 -7 -0.2124 2.2509
21 10 -6 0.6121 3.4949
21 10 -5 -0.5045 -2.7337
21 10 -4 0.2949 -0.5308
21 10 -3 -0.2989 0.0724
21 10 -2 -0.2038 1.9095
21 10 -1 0.5046 0.8774
21 10 0 0.0556 -0.2555
21 10 1 0.3736 0.1866
21 10 2 -0.5443 0.7373
21 10 3 0.2329 0.7417
21 10 4 0.4839 -0.9956
21 10 5 -0.6796 0.3945
21 10 6 0.1210 -0.6693
21 10 7 0.4018 -0.7480
21 11 -6 0.8452 2.8808
21 11 -5 -0.2301 -1.0067
21 11 -4 -0.1399 0.0255
21 11 -3 -0.1901 0.6695
21 11 -2 -0.2785 0.1134
21 11 -1 0.6561 -0.0295
21 11 0 -0.2396 -0.0439
21 11 1 0.1561 0.4635
21 11 2 -0.3135 -0.2714
21 11 3 0.0755 0.2967
21 11 4 0.2858 -1.1224
21 11 5 -0.5356 -0.7045
21 11 6 -0.4651 0.1677
21 12 -6 0.7805 2.2717
21 12 -5 -0.9178 0.4503
21 12 -4 0.1435 0.8093
21 12 -3 -0.6650 0.2352
21 12 -2 0.2162 -0.4030
21 12 -1 0.4580 -0.7357
21 12 0 0.0735 -0.4030
21 12 1 0.7632 -1.1952
21 12 2 -0.5193 -0.7117
21 12 3 0.4906 0.9353
21 12 4 0.0829 -1.0053
21 12 5 -0.0425 0.1914
21 13 -5 -0.3424 1.1382
21 13 -4 -0.4783 0.5514
21 13 -3 -0.8053 0.5850
21 13 -2 -0.0677 0.1546
21 13 -1 -0.7520 -1.4651
21 13 0 0.3325 -0.7848
21 13 1 0.4209 -2.2211
21 13 2 -0.2299 -0.6215
21 13 3 -0.3402 1.2272
21 13 4 -0.0476 -0.1672
21 13 5 0.2441 0.9711
21 14 -4 -0.5176 -0.0426
21 14 -3 -0.7063 0.7748
21 14 -2 -0.1137 0.5526
21 14 -1 -0.8847 -0.8309
21 14 0 -0.1421 -0.7773
21 14 1 0.6974 -1.0594
21 14 2 -0.5619 -1.9722
21 14 3 -0.9125 0.6110
21 14 4 -0.1871 0.3863
21 15 -2 0.7270 1.4033
21 15 -1 -0.7265 -0.0635
21 15 0 -0.0456 0.1163
21 15 1 0.6695 -0.6973
21 15 2 -1.2063 -2.5870
22 0 -9 1.0699 0.0156
22 0 -8 0.8135 -0.1647
22 0 -7 0.6866 0.1700
22 0 -6 -0.0143 -0.0442
22 0 -5 -0.3653 -0.1169
22 0 -4 -1.5628 0.1459
22 0 -3 -0.7877 -0.0158
22 0 -2 -0.3129 -0.0747
22 0 -1 -1.5995 0.0122
22 0 0 -0.8969 0.1597
22 0 1 -0.0580 -0.2129
22 0 2 1.1647 0.0709
22 0 3 -0.8463 0.1340
22 0 4 0.5497 -0.2233
22 0 5 -0.6409 0.1352
22 0 6 -0.6317 0.0031
22 0 7 0.7445 -0.0466
22 0 8 0.3530 -0.0148
22 0 9 0.2327 0.1390
22 0 10 -0.7937 -0.1212
22 1 -9 1.4417 -0.6490
22 1 -8 1.1699 -3.5214
22 1 -7 0.4736 0.0605
22 1 -6 0.0757 0.2526
22 1 -5 -0.4542 1.8119
22 1 -4 -0.6613 1.7056
22 1 -3 -0.4019 0.8465
22 1 -2 -0.1523 -1.5099
22 1 -1 -0.4053 -2.0632
22 1 0 -0.2268 1.4059
22 1 1 -0.9273 1.5972
22 1 2 1.0859 0.9144
22 1 3 -0.8051 -3.8117
22 1 4 0.8484 -0.9555
22 1 5 -0.4491 -0.2715
22 1 6 -0.8416 0.1134
22 1 7 -0.6292 2.6936
22 1 8 0.4996 -0.0863
22 1 9 0.1354 -2.7121
22 1 10 -0.3008 -0.4166
22 2 -9 0.8013 -0.3063
22 2 -8 0.5590 -3.8478
22 2 -7 0.5254 -0.7385
22 2 -6 -0.4071 0.4737
22 2 -5 -0.2270 0.8181
22 2 -4 0.7574 0.7839
22 2 -3 0.4905 -0.8035
22 2 -2 0.2437 -1.7670
22 2 -1 0.4187 -2.8656
22 2 0 -0.1984 4.3710
22 2 1 -1.3834 1.9800
22 2 2 0.1781 -1.0344
22 2 3 -0.7001 -5.0330
22 2 4 0.2334 -1.9039
22 2 5 0.1311 -0.1256
22 2 6 -1.8544 0.9473
22 2 7 -1.4053 0.6391
22 2 8 0.2204 -1.5902
22 2 9 0.6331 -2.6752
22 2 10 -0.3564 0.2549
22 3 -9 -0.0053 0.3451
22 3 -8 -0.3139 -2.8994
22 3 -7 0.6849 -1.7674
22 3 -6 -1.1470 0.3304
22 3 -5 0.6870 -0.6183
22 3 -4 1.0421 0.9827
22 3 -3 1.1115 -1.2476
22 3 -2 0.6184 -0.8299
22 3 -1 -0.7175 -0.1675
22 3 0 -0.3262 4.6953
22 3 1 -0.5372 0.7791
22 3 2 -0.9071 -1.7054
22 3 3 -1.1823 -3.1702
22 3 4 -0.8634 -0.9489
22 3 5 -0.5273 0.3187
22 3 6 -0.9604 0.6604
22 3 7 -0.5063 -1.7531
22 3 8 0.2076 -0.9125
22 3 9 0.8590 0.3240
22 4 -8 -0.4321 -1.4558
22 4 -7 0.1441 -0.7971
22 4 -6 -0.8335 1.8020
22 4 -5 0.3579 0.3553
22 4 -4 0.1138 0.8924
22 4 -3 0.7716 -0.3587
22 4 -2 0.7345 -0.0099
22 4 -1 -1.3436 0.4738
22 4 0 0.5578 3.1500
22 4 1 0.7013 0.1486
22 4 2 -0.9136 -0.4395
22 4 3 -0.6206 -0.7929
22 4 4 -1.6288 0.7347
22 4 5 0.3512 -0.2786
22 4 6 1.4840 0.3802
22 4 7 -0.5594 -0.7899
22 4 8 0.8786 -0.5199
22 4 9 0.4986 1.3412
22 5 -8 -0.5856 0.0760
22 5 -7 -0.4066 1.6540
22 5 -6 -0.4607 3.5181
22 5 -5 -0.0632 -0.8625
22 5 -4 -0.9849 0.2394
22 5 -3 0.5835 0.6562
22 5 -2 0.7576 -0.7457
22 5 -1 0.1356 -0.2583
22 5 0 -0.1055 1.7004
22 5 1 1.0982 0.8320
22 5 2 -0.4027 0.6706
22 5 3 -0.2795 0.6709
22 5 4 -0.5667 0.9908
22 5 5 1.8417 -0.0911
22 5 6 0.8070 1.2237
22 5 7 0.2437 0.6120
22 5 8 0.4115 -0.9432
22 5 9 0.4196 0.7010
22 6 -8 -1.3055 0.6595
22 6 -7 -0.4942 2.7454
22 6 -6 -0.0612 2.1963
22 6 -5 -0.4336 -2.1848
22 6 -4 -0.6965 1.3833
22 6 -3 0.2238 0.9492
22 6 -2 0.9871 -0.2681
22 6 -1 0.2604 -0.2434
22 6 0 -1.2337 0.7418
22 6 1 0.7040 2.4130
22 6 2 -0.6912 0.6764
22 6 3 -0.1381 2.0040
22 6 4 0.4541 0.0879
22 6 5 0.5152 1.6566
22 6 6 -0.1733 1.2780
22 6 7 0.7329 1.3630
22 6 8 0.0431 -0.3041
22 7 -7 -0.4312 2.4131
22 7 -6 0.8186 1.0969
22 7 -5 -1.3128 0.1785
22 7 -4 0.3880 1.6948
22 7 -3 0.0726 0.3959
22 7 -2 -0.0717 1.4561
22 7 -1 -0.3800 -0.5123
22 7 0 -0.4220 0.7628
22 7 1 0.1754 2.4114
22 7 2 -0.4973 0.1873
22 7 3 0.3695 2.6943
22 7 4 -0.0285 -0.8597
22 7 5 -0.0648 2.1534
22 7 6 0.4429 0.5275
22 7 7 0.2440 1.3313
22 7 8 0.5537 0.1592
22 8 -7 -0.7720 2.1586
22 8 -6 0.9464 3.1546
22 8 -5 -1.2726 1.0154
22 8 -4 0.8333 0.2147
22 8 -3 0.4239 -0.3913
22 8 -2 -1.1923 2.1403
22 8 -1 0.4537 0.1310
22 8 0 -0.2076 -0.1949
22 8 1 0.8728 1.4071
22 8 2 -0.7327 -0.3475
22 8 3 0.3964 2.3000
22 8 4 0.1505 -0.9425
22 8 5 0.4170 0.8815
22 8 6 0.5208 0.2274
22 8 7 0.4366 0.0164
22 9 -7 -0.8200 1.6763
22 9 -6 0.2514 3.7849
22 9 -5 -0.4560 -0.2404
22 9 -4 0.5594 -0.6438
22 9 -3 0.4850 -0.2238
22 9 -2 -1.0111 2.4850
22 9 -1 0.8011 0.1056
22 9 0 -0.5921 -0.4766
22 9 1 0.9410 0.8529
22 9 2 -1.1698 -0.2171
22 9 3 0.2806 1.3395
22 9 4 0.4234 -0.6318
22 9 5 -0.5346 -0.3015
22 9 6 0.1446 -0.2565
22 9 7 0.0647 -0.7192
22 10 -6 0.4643 1.8543
22 10 -5 -0.6562 -0.0055
22 10 -4 0.4335 -0.2238
22 10 -3 0.3120 0.5200
22 10 -2 -1.0761 1.2792
22 10 -1 0.7058 -0.3001
22 10 0 -0.2475 0.4238
22 10 1 -0.0420 0.6492
22 10 2 -0.1894 -0.3406
22 10 3 0.4873 -0.1903
22 10 4 0.0503 -0.6931
22 10 5 -0.6830 -1.1963
22 10 6 -0.3585 -0.3158
22 11 -5 -0.8707 0.4339
22 11 -4 0.4512 0.8638
22 11 -3 0.3532 -0.1845
22 11 -2 -0.8647 -0.0604
22 11 -1 0.4033 -0.1045
22 11 0 0.2734 0.1519
22 11 1 0.0328 0.3704
22 11 2 0.1921 -1.6974
22 11 3 0.9253 -0.4948
22 11 4 -0.0263 -1.0454
22 11 5 0.2736 -0.8150
22 12 -4 -0.0400 0.7877
22 12 -3 0.4440 -0.4281
22 12 -2 -0.5033 0.3139
22 12 -1 -0.4407 -0.9544
22 12 0 0.2551 -0.2762
22 12 1 0.4732 -0.6312
22 12 2 -0.0613 -1.3851
22 12 3 0.3757 -0.0351
22 12 4 0.1526 -0.5759
22 13 -3 -0.2043 0.3086
22 13 -2 -0.3551 0.3858
22 13 -1 -1.0601 -1.3111
22 13 0 -0.2018 -0.6888
22 13 1 0.4963 -0.4356
22 13 2 0.1413 -0.5287
22 13 3 -0.8806 -0.4502
22 14 -2 0.1674 0.5884
22 14 -1 -1.0673 -0.9002
22 14 0 -0.2363 -0.6621
22 14 1 0.2896 0.1595
22 14 2 -0.2061 -1.4208
23 0 -9 2.5086 0.1104
23 0 -8 1.1878 -0.1222
23 0 -7 0.8820 0.0364
23 0 -6 0.3929 -0.0622
23 0 -5 -0.0194 0.1616
23 0 -4 0.2419 -0.2256
23 0 -3 0.0691 0.1560
23 0 -2 -0.1108 0.0421
23 0 -1 -1.5736 -0.1890
23 0 0 1.3459 0.1976
23 0 1 -1.8802 -0.0994
23 0 2 0.1774 0.0456
23 0 3 -0.0668 -0.1108
23 0 4 0.5709 0.1827
23 0 5 -0.1347 -0.1421
23 0 6 0.1396 -0.0196
23 0 7 0.1843 0.1600
23 0 8 0.6246 -0.1488
23 0 9 -0.9841 0.0951
23 0 10 -0.0839 -0.1835
23 1 -8 0.2203 -1.3751
23 1 -7 0.4169 0.1100
23 1 -6 0.3754 1.2449
23 1 -5 -0.7698 1.0566
23 1 -4 1.6801 0.2654
23 1 -3 1.0186 -1.3070
23 1 -2 0.2037 -2.2082
23 1 -1 -0.3938 -2.0914
23 1 0 1.3438 1.7791
23 1 1 -1.9788 2.6108
23 1 2 -0.4911 -0.6271
23 1 3 -0.2505 -4.5656
23 1 4 0.2251 -0.3171
23 1 5 0.2483 -0.8446
23 1 6 -0.1563 1.6990
23 1 7 -0.3008 0.7568
23 1 8 0.6189 -2.4097
23 1 9 -0.3926 -2.1899
23 2 -8 -0.3980 -1.3193
23 2 -7 0.3128 -0.1968
23 2 -6 -0.4122 0.5560
23 2 -5 -0.5056 0.1458
23 2 -4 1.2879 -0.0446
23 2 -3 1.3531 -1.7772
23 2 -2 1.0346 -2.4290
23 2 -1 -0.5249 -0.7365
23 2 0 0.7279 3.4280
23 2 1 -0.9047 2.6873
23 2 2 -0.7407 -1.1611
23 2 3 -0.8282 -5.8411
23 2 4 0.4778 0.3581
23 2 5 -0.3427 -0.6729
23 2 6 -1.1693 1.5549
23 2 7 0.0586 -0.2014
23 2 8 0.0892 -3.3674
23 2 9 0.2804 -0.6046
23 3 -8 0.3243 -0.7953
23 3 -7 0.3925 -0.6849
23 3 -6 -0.1730 0.4559
23 3 -5 0.0636 0.0197
23 3 -4 0.3094 0.4602
23 3 -3 0.5543 -0.3861
23 3 -2 1.6381 -0.5947
23 3 -1 -1.6436 0.4279
23 3 0 0.9267 3.5610
23 3 1 0.0996 0.7143
23 3 2 -1.1419 -0.1240
23 3 3 -0.5632 -3.6723
23 3 4 -0.1903 1.3370
23 3 5 -0.0515 -1.1338
23 3 6 0.4502 0.5913
23 3 7 -0.1903 -0.4895
23 3 8 0.5008 -1.4742
23 3 9 0.2862 0.9682
23 4 -8 0.8404 0.1744
23 4 -7 0.1575 0.7068
23 4 -6 -0.0278 2.4390
23 4 -5 0.1432 -0.7054
23 4 -4 -0.3272 -0.0248
23 4 -3 -0.0096 0.9236
23 4 -2 1.6256 -0.8441
23 4 -1 -0.3551 -0.0399
23 4 0 0.8626 2.1624
23 4 1 0.2777 -0.6853
23 4 2 -1.1130 1.0648
23 4 3 -0.3289 -1.0888
23 4 4 -1.1998 1.0148
23 4 5 1.7602 -0.8527
23 4 6 0.7542 0.1407
23 4 7 -0.5587 0.5567
23 4 8 0.9954 -0.6583
23 5 -8 0.1686 0.5923
23 5 -7 -0.0235 2.9394
23 5 -6 -0.3307 2.4010
23 5 -5 0.0423 -2.2727
23 5 -4 -0.8056 -0.1980
23 5 -3 -0.0554 1.1243
23 5 -2 1.2376 -1.9404
23 5 -1 0.1866 0.0420
23 5 0 -0.0741 0.1618
23 5 1 0.0796 0.8137
23 5 2 -0.9006 0.8708
23 5 3 0.0256 0.7247
23 5 4 -0.7943 0.7755
23 5 5 1.6282 0.8082
23 5 6 -0.6681 0.4639
23 5 7 0.1349 1.8288
23 5 8 0.3159 -0.8443
23 6 -7 -0.0647 2.8091
23 6 -6 0.5110 1.2684
23 6 -5 -1.0039 -1.0339
23 6 -4 0.2263 0.9088
23 6 -3 -0.0399 0.4864
23 6 -2 -0.1716 -1.0133
23 6 -1 -0.6336 -0.8116
23 6 0 -0.8036 0.5296
23 6 1 0.1765 2.0421
23 6 2 -0.7616 -0.1325
23 6 3 0.6586 2.3322
23 6 4 -0.4449 -0.2349
23 6 5 0.3802 2.3228
23 6 6 -0.3363 1.0562
23 6 7 0.5073 1.5695
23 6 8 0.0795 0.1442
23 7 -7 -0.3380 1.2738
23 7 -6 0.6592 2.6625
23 7 -5 -1.4939 1.6122
23 7 -4 1.0887 0.5624
23 7 -3 0.1451 0.0299
23 7 -2 -1.1766 -0.1405
23 7 -1 -0.2127 -1.3565
23 7 0 -0.4750 0.7006
23 7 1 0.8629 1.4530
23 7 2 -0.6219 -1.0564
23 7 3 0.6620 2.1949
23 7 4 -0.3841 -1.1268
23 7 5 0.7018 2.2180
23 7 6 -0.1362 0.6780
23 7 7 0.3233 0.7526
23 8 -6 -0.3475 3.4365
23 8 -5 -0.7551 2.0300
23 8 -4 0.2613 -0.4784
23 8 -3 0.3337 0.1405
23 8 -2 -1.1980 1.1705
23 8 -1 0.4232 -1.2350
23 8 0 -0.0248 -0.5208
23 8 1 1.0625 1.5301
23 8 2 -0.8929 -1.5436
23 8 3 0.5380 1.1602
23 8 4 0.3024 -0.4047
23 8 5 0.6486 0.5395
23 8 6 -0.5425 0.2440
23 9 -6 -0.1195 1.4593
23 9 -5 -0.9081 1.0764
23 9 -4 0.1276 0.0707
23 9 -3 0.0146 0.8351
23 9 -2 -1.3952 1.8134
23 9 -1 0.4547 -1.1912
23 9 0 -0.2991 0.0651
23 9 1 0.5460 1.3805
23 9 2 -1.1209 -0.5108
23 9 3 0.8023 -0.4579
23 9 4 0.1450 0.0138
23 9 5 -0.0780 -0.9444
23 9 6 -0.2498 0.1774
23 10 -5 -1.2544 0.1987
23 10 -4 0.5592 1.1666
23 10 -3 -0.1325 0.4194
23 10 -2 -1.1027 0.4891
23 10 -1 0.0686 -0.1564
23 10 0 0.1170 0.5863
23 10 1 0.1659 0.9101
23 10 2 -0.2507 -0.5524
23 10 3 0.8178 -1.9267
23 10 4 -0.6813 -0.7197
23 10 5 0.1409 -1.0374
23 11 -4 0.3055 0.7296
23 11 -3 0.3356 -0.5950
23 11 -2 -0.7512 0.1173
23 11 -1 -0.2486 -0.0549
23 11 0 0.2391 0.1343
23 11 1 0.2956 0.3369
23 11 2 0.7928 -1.3132
23 11 3 0.4051 -1.3868
23 11 4 -0.4793 -1.0084
23 12 -3 0.1514 -0.3828
23 12 -2 -0.4892 0.2850
23 12 -1 -0.4270 -0.9434
23 12 0 -0.6786 -0.1668
23 12 1 0.3888 -0.0730
23 12 2 0.5908 0.0415
23 12 3 -0.1426 -0.8680
23 13 -1 -0.4460 -1.2594
23 13 0 -0.5719 -0.2565
23 13 1 -0.1741 0.3124
24 0 -8 -0.9104 0.2212
24 0 -7 0.0520 -0.1446
24 0 -6 0.6215 -0.0137
24 0 -5 -1.4326 0.0615
24 0 -4 1.7487 0.0067
24 0 -3 1.4342 -0.0330
24 0 -2 -0.0589 -0.0764
24 0 -1 -0.3198 0.2604
24 0 0 1.7734 -0.3320
24 0 1 -1.9815 0.1990
24 0 2 -0.3372 0.0201
24 0 3 -0.1195 -0.1425
24 0 4 -0.1175 0.0967
24 0 5 0.6859 -0.0321
24 0 6 0.9958 0.0586
24 0 7 0.0627 -0.1470
24 0 8 0.2630 0.2493
24 0 9 -0.8535 -0.2556
24 1 -8 -1.6187 0.3979
24 1 -7 0.0075 0.9934
24 1 -6 0.5443 0.7205
24 1 -5 -1.1060 -0.1997
24 1 -4 1.2653 -0.9898
24 1 -3 1.1912 -1.7680
24 1 -2 0.4405 -2.8544
24 1 -1 -0.3937 0.1159
24 1 0 0.8261 1.6718
24 1 1 -1.7712 2.3515
24 1 2 -0.1546 -0.8486
24 1 3 -0.6176 -4.3820
24 1 4 0.5391 0.8104
24 1 5 0.4982 -0.2561
24 1 6 0.4318 1.0162
24 1 7 0.3772 -0.1674
24 1 8 0.1493 -3.3753
24 1 9 -0.5400 -0.7059
24 2 -8 -0.8080 0.5756
24 2 -7 0.0863 0.8697
24 2 -6 0.6019 0.1825
24 2 -5 -0.2773 -0.1475
24 2 -4 0.5912 -1.2504
24 2 -3 0.4232 -1.2988
24 2 -2 1.3138 -1.9488
24 2 -1 -0.8824 0.2966
24 2 0 0.5837 3.2802
24 2 1 -1.1560 1.6320
24 2 2 -0.8138 -0.4381
24 2 3 -0.4825 -4.6662
24 2 4 0.8304 2.0368
24 2 5 -0.4607 -0.7197
24 2 6 0.8143 0.2224
24 2 7 0.2169 0.0921
24 2 8 0.4144 -3.5040
24 3 -8 0.4869 0.5715
24 3 -7 0.8305 0.5197
24 3 -6 0.3142 1.6694
24 3 -5 0.2090 -0.1595
24 3 -4 0.0952 -0.3861
24 3 -3 -0.3253 0.1283
24 3 -2 0.9785 -1.1704
24 3 -1 0.3129 -0.4524
24 3 0 0.7675 2.6076
24 3 1 -0.9460 -0.6150
24 3 2 -1.1632 0.8118
24 3 3 -0.4251 -2.3559
24 3 4 0.2820 1.1812
24 3 5 0.2071 -0.6429
24 3 6 1.0281 -0.7064
24 3 7 -0.4841 0.6582
24 3 8 0.2884 -1.4076
24 4 -7 1.0960 2.0228
24 4 -6 0.2153 2.4985
24 4 -5 0.5982 -1.0800
24 4 -4 -0.1099 -0.4188
24 4 -3 -0.1769 0.9701
24 4 -2 0.6812 -2.4869
24 4 -1 0.6522 -0.5591
24 4 0 0.7729 -0.1113
24 4 1 -1.8416 -0.6424
24 4 2 -1.3403 1.0375
24 4 3 -0.3287 -0.4821
24 4 4 -0.4287 0.2724
24 4 5 1.2749 0.8271
24 4 6 0.0237 -1.2135
24 4 7 -0.6627 1.8786
24 4 8 0.3281 -0.8153
24 5 -7 0.5178 2.6029
24 5 -6 0.8510 1.1504
24 5 -5 -0.2320 -1.2794
24 5 -4 0.3208 0.4327
24 5 -3 0.8415 0.6852
24 5 -2 -0.2153 -2.3056
24 5 -1 -0.0436 -0.8408
24 5 0 0.3579 -1.1948
24 5 1 -1.6968 1.5558
24 5 2 -1.0921 -0.4594
24 5 3 0.0757 1.4808
24 5 4 -0.7480 -0.1848
24 5 5 0.7394 1.9791
24 5 6 -0.7379 -0.1644
24 5 7 0.1061 1.6991
24 6 -7 0.4832 0.8839
24 6 -6 0.6581 1.3053
24 6 -5 -1.4008 0.4110
24 6 -4 0.8851 1.1953
24 6 -3 0.8665 -0.0791
24 6 -2 -1.3717 -1.5772
24 6 -1 0.2094 -1.2858
24 6 0 -0.1742 -0.6117
24 6 1 0.5197 1.9112
24 6 2 -0.7070 -1.5672
24 6 3 0.3974 1.9960
24 6 4 -0.1641 -1.6193
24 6 5 0.4155 2.6023
24 6 6 -0.4972 0.2442
24 6 7 0.3244 0.5709
24 7 -6 -0.2004 2.1839
24 7 -5 -1.2171 1.9686
24 7 -4 0.3410 -0.2366
24 7 -3 0.6046 -0.2781
24 7 -2 -1.3813 -0.9070
24 7 -1 0.3054 -1.2865
24 7 0 0.7274 -1.0303
24 7 1 0.9690 1.2675
24 7 2 -0.4235 -1.6101
24 7 3 0.2246 0.9531
24 7 4 0.6494 -1.7700
24 7 5 1.1013 2.1282
24 7 6 -0.2589 -0.3350
24 8 -6 -0.0177 1.1820
24 8 -5 -1.2783 1.4746
24 8 -4 -0.4823 -0.7447
24 8 -3 0.8212 0.4659
24 8 -2 -1.4436 0.2650
24 8 -1 0.4136 -1.3432
24 8 0 1.0932 -0.8272
24 8 1 0.3591 1.4493
24 8 2 -0.6098 -0.5555
24 8 3 0.1150 0.4163
24 8 4 0.5239 -0.7536
24 8 5 0.7982 0.5244
24 8 6 -0.3474 0.0785
24 9 -5 -1.6178 0.2459
24 9 -4 -0.7398 0.6659
24 9 -3 0.2257 0.7448
24 9 -2 -1.1437 0.0199
24 9 -1 -0.1490 -0.4878
24 9 0 0.6490 0.1623
24 9 1 0.5733 1.3506
24 9 2 -0.7014 0.3496
24 9 3 0.6031 -0.6685
24 9 4 -0.6807 -0.7130
24 9 5 0.0609 -0.4485
24 10 -4 -0.6107 0.6544
24 10 -3 -0.1060 -0.0031
24 10 -2 -0.5399 -0.5145
24 10 -1 -0.8788 0.4107
24 10 0 0.4719 0.2155
24 10 1 -0.0726 0.3670
24 10 2 0.7171 -0.3663
24 10 3 0.1196 -1.4100
24 10 4 -1.2011 -1.0127
24 11 -3 0.0541 -0.2261
24 11 -2 -0.2433 -0.1493
24 11 -1 -0.3197 0.0740
24 11 0 -0.3643 -0.1520
24 11 1 -0.4357 -0.4557
24 11 2 1.3345 -0.3522
24 11 3 -0.4352 -0.7034
25 0 -8 -2.8516 -0.0477
25 0 -7 -0.4025 0.0114
25 0 -6 0.8635 0.0816
25 0 -5 -0.7553 -0.2092
25 0 -4 1.1530 0.2275
25 0 -3 0.6585 -0.1232
25 0 -2 0.5701 -0.0069
25 0 -1 -0.3199 0.0401
25 0 0 0.5845 0.0110
25 0 1 -2.1405 -0.0400
25 0 2 -0.2577 -0.0406
25 0 3 -1.1058 0.1619
25 0 4 -0.2402 -0.2312
25 0 5 1.0630 0.1658
25 0 6 0.3455 -0.0185
25 0 7 0.2508 -0.0512
25 0 8 0.3591 0.0385
25 1 -7 -0.5921 1.0251
25 1 -6 0.9860 -0.0567
25 1 -5 -0.2645 -0.5717
25 1 -4 0.7330 -1.7204
25 1 -3 -0.2136 -1.5523
25 1 -2 1.0274 -0.5280
25 1 -1 -0.8419 -0.3934
25 1 0 0.8137 2.7062
25 1 1 -1.5865 0.8757
25 1 2 -0.7594 -1.0916
25 1 3 -0.7390 -2.1349
25 1 4 0.1128 1.6813
25 1 5 0.1472 -0.1010
25 1 6 0.4879 -0.2067
25 1 7 -0.4513 -0.2245
25 1 8 0.6235 -2.5760
25 2 -7 0.4258 0.7663
25 2 -6 0.6440 0.7187
25 2 -5 0.2124 -0.2297
25 2 -4 0.4012 -1.2521
25 2 -3 -0.3133 -1.3508
25 2 -2 0.3360 0.2488
25 2 -1 -0.0644 -1.2179
25 2 0 0.8460 3.2534
25 2 1 -1.1118 -0.0231
25 2 2 -1.2742 -0.9660
25 2 3 -0.1871 -1.7711
25 2 4 0.6314 1.8928
25 2 5 -0.1188 -0.3774
25 2 6 1.0276 -0.8000
25 2 7 -0.5611 0.1255
25 2 8 0.1833 -2.0588
25 3 -7 1.1251 1.3662
25 3 -6 -0.1433 2.0527
25 3 -5 0.8063 0.1428
25 3 -4 0.2264 -0.3028
25 3 -3 -0.0167 -0.7387
25 3 -2 0.7485 -0.7754
25 3 -1 0.7217 -1.7481
25 3 0 0.7544 0.6930
25 3 1 -1.2793 -0.5807
25 3 2 -2.0579 -0.1789
25 3 3 -0.1637 -1.3345
25 3 4 0.5382 0.5751
25 3 5 0.1105 0.7613
25 3 6 0.8204 -1.4332
25 3 7 -0.8290 1.2146
25 4 -7 0.4405 1.9462
25 4 -6 0.5475 1.4004
25 4 -5 0.1626 -0.2437
25 4 -4 0.1636 0.6025
25 4 -3 0.7260 -0.4740
25 4 -2 0.7031 -1.1763
25 4 -1 0.4323 -2.0118
25 4 0 0.6921 -1.6068
25 4 1 -1.8194 1.1159
25 4 2 -1.5785 -0.5779
25 4 3 0.1200 0.0451
25 4 4 -0.0363 -0.2413
25 4 5 0.8266 1.8876
25 4 6 -0.1239 -0.7917
25 4 7 -0.5841 1.4829
25 5 -7 0.5452 0.9427
25 5 -6 0.9040 0.1387
25 5 -5 -0.6204 0.0226
25 5 -4 0.3367 2.1894
25 5 -3 1.2811 -0.9164
25 5 -2 -0.9161 -0.5972
25 5 -1 0.8188 -1.3943
25 5 0 -0.3164 -2.3432
25 5 1 -0.4753 2.8497
25 5 2 -0.8047 -1.5973
25 5 3 -0.0559 1.5647
25 5 4 0.0997 -1.4767
25 5 5 1.3347 2.0604
25 5 6 -0.3961 0.0994
25 5 7 0.5932 0.6162
25 6 -6 -0.2510 0.2229
25 6 -5 -0.6335 1.1003
25 6 -4 0.4075 1.6899
25 6 -3 0.8295 -1.8754
25 6 -2 -1.0577 -0.4842
25 6 -1 0.8463 -0.5825
25 6 0 0.1363 -2.5118
25 6 1 1.1199 1.8933
25 6 2 -1.0070 -1.5398
25 6 3 -0.1620 1.1780
25 6 4 0.3259 -2.6360
25 6 5 1.2392 2.0201
25 6 6 0.2900 -0.3074
25 7 -5 -1.0026 0.7419
25 7 -4 -0.1528 -0.0956
25 7 -3 0.8755 -1.5923
25 7 -2 -0.9434 -0.4955
25 7 -1 0.6889 -0.5614
25 7 0 1.3851 -1.8701
25 7 1 0.8124 0.5263
25 7 2 -0.4474 -0.3017
25 7 3 -0.1555 0.9053
25 7 4 0.3840 -2.0670
25 7 5 1.1591 1.3949
25 8 -5 -1.1677 -0.3823
25 8 -4 -0.8475 0.1424
25 8 -3 1.0840 -0.4842
25 8 -2 -0.9604 -0.8525
25 8 -1 0.5310 -0.2998
25 8 0 0.9325 -0.7318
25 8 1 0.7655 1.0815
25 8 2 -0.3185 0.3458
25 8 3 0.2531 1.2706
25 8 4 -0.2610 -1.2112
25 8 5 0.5647 0.2975
25 9 -4 -1.0968 0.6974
25 9 -3 0.6161 -0.3759
25 9 -2 -0.0764 -1.1301
25 9 -1 -0.2739 0.3317
25 9 0 0.5685 -0.0448
25 9 1 0.2973 0.9564
25 9 2 -0.0972 -0.3317
25 9 3 0.4753 0.4725
25 9 4 -1.5229 -0.8997
25 10 -2 0.1579 -0.7361
25 10 -1 -0.2622 0.8145
25 10 0 0.0917 -0.4323
25 10 1 -0.6000 -0.3202
25 10 2 0.8526 -0.6890
26 0 -7 -0.7063 0.0682
26 0 -6 1.1935 -0.0784
26 0 -5 0.2265 0.1391
26 0 -4 0.9789 -0.1760
26 0 -3 -0.8898 0.0550
26 0 -2 1.3382 0.1269
26 0 -1 -2.0974 -0.2543
26 0 0 1.2934 0.2088
26 0 1 -1.0239 -0.1029
26 0 2 -1.4078 0.0597
26 0 3 -1.0026 -0.1285
26 0 4 -0.2723 0.1838
26 0 5 0.1727 -0.0701
26 0 6 0.1702 -0.0846
26 0 7 -1.0055 0.1960
26 0 8 0.6808 -0.3114
26 1 -7 -0.3523 0.1100
26 1 -6 0.9179 -0.0283
26 1 -5 0.1480 -0.4495
26 1 -4 0.8039 -1.1161
26 1 -3 -0.1507 -0.3876
26 1 -2 0.7485 0.8691
26 1 -1 -1.7193 -0.6439
26 1 0 1.4685 2.6789
26 1 1 -0.2355 -0.4929
26 1 2 -1.2692 -0.7165
26 1 3 -0.7510 -0.6363
26 1 4 -0.0602 1.3373
26 1 5 -0.1344 -0.4901
26 1 6 0.2044 -0.4866
26 1 7 -0.9602 -0.2837
26 1 8 0.4221 -0.9775
26 2 -7 0.2886 0.5783
26 2 -6 -0.4585 0.6467
26 2 -5 0.2225 0.1526
26 2 -4 -0.1143 -0.6501
26 2 -3 0.2337 -0.3524
26 2 -2 1.0732 0.4993
26 2 -1 -0.7841 -0.9508
26 2 0 1.0915 1.7496
26 2 1 0.3012 -0.6914
26 2 2 -1.4898 -0.4432
26 2 3 0.0346 -1.3011
26 2 4 0.5030 0.8172
26 2 5 -0.5533 -0.3685
26 2 6 0.4050 -0.8429
26 2 7 -1.1364 0.3074
26 3 -6 -0.4463 0.9885
26 3 -5 0.2100 0.1730
26 3 -4 -0.4292 -0.0245
26 3 -3 0.0246 -0.9357
26 3 -2 1.9474 -0.0138
26 3 -1 -0.4379 -1.9632
26 3 0 0.1361 -0.4835
26 3 1 -0.1140 0.3426
26 3 2 -1.9134 -0.1838
26 3 3 0.7003 -1.0848
26 3 4 0.6370 0.2711
26 3 5 -0.1869 0.4256
26 3 6 0.6484 -0.2811
26 3 7 -1.1574 0.6317
26 4 -6 0.3314 0.2101
26 4 -5 -0.1499 -0.3090
26 4 -4 -0.2201 1.5497
26 4 -3 0.4713 -0.9945
26 4 -2 0.8121 -0.2911
26 4 -1 0.7616 -1.5733
26 4 0 -0.7010 -1.8081
26 4 1 -0.3714 1.7431
26 4 2 -0.7499 -0.0636
26 4 3 -0.0154 0.5660
26 4 4 0.4905 -0.1550
26 4 5 1.0215 0.9766
26 4 6 0.1255 0.3787
26 5 -6 -0.2137 -0.6518
26 5 -5 -0.2120 0.7097
26 5 -4 0.0542 2.5326
26 5 -3 0.1705 -1.6303
26 5 -2 -0.3291 -0.2215
26 5 -1 1.1251 -0.2881
26 5 0 -0.4970 -2.3752
26 5 1 0.6954 1.6793
26 5 2 -0.4852 -0.5918
26 5 3 -0.4262 1.4645
26 5 4 0.4143 -1.2027
26 5 5 1.1700 0.9358
26 5 6 0.3578 0.4185
26 6 -5 -0.0997 0.8357
26 6 -4 0.4581 1.4162
26 6 -3 -0.1547 -2.2406
26 6 -2 -0.3075 0.0414
26 6 -1 0.3531 -0.2570
26 6 0 0.3902 -1.6519
26 6 1 1.0770 -0.3428
26 6 2 -0.9075 -0.4406
26 6 3 -0.0036 1.1564
26 6 4 0.1639 -1.5654
26 6 5 0.8232 0.8542
26 7 -4 0.5379 0.4685
26 7 -3 0.5350 -1.1687
26 7 -2 -0.0899 -0.6268
26 7 -1 0.6325 -0.1925
26 7 0 0.4432 -0.6824
26 7 1 1.0646 -0.5282
26 7 2 -0.3479 0.2713
26 7 3 0.1095 1.0182
26 7 4 0.1144 -0.7628
26 8 -3 0.7980 -0.3510
26 8 -2 0.3685 -1.1522
26 8 -1 0.8754 -0.0212
26 8 0 0.2309 0.1850
26 8 1 0.8898 0.6979
26 8 2 0.0328 -0.3701
26 8 3 0.3746 1.0171
26 9 -2 0.3758 -0.7859
26 9 -1 0.5752 0.2511
26 9 0 0.0173 0.4033
26 9 1 -0.1160 0.0037
26 9 2 0.0743 -0.7116
27 0 -6 0.8846 -0.0857
27 0 -5 -0.0565 0.0897
27 0 -4 0.3612 -0.0797
27 0 -3 0.6770 0.0262
27 0 -2 0.2064 -0.0495
27 0 -1 -1.9490 0.1088
27 0 0 1.1199 -0.1446
27 0 1 0.9965 0.0527
27 0 2 -0.1514 0.1004
27 0 3 -0.9727 -0.1929
27 0 4 0.0673 0.2234
27 0 5 0.0531 -0.1033
27 0 6 -0.4431 0.0106
27 0 7 -0.8467 -0.0267
27 1 -6 0.2214 -0.1059
27 1 -5 -0.0946 -0.0873
27 1 -4 -0.4686 -0.2320
27 1 -3 1.0533 1.0361
27 1 -2 0.1656 0.0190
27 1 -1 -1.4678 0.7731
27 1 0 0.4872 1.3099
27 1 1 0.9493 -0.7823
27 1 2 0.3814 0.5372
27 1 3 -0.2874 -0.8981
27 1 4 0.4372 -0.0617
27 1 5 0.1411 -0.7356
27 1 6 -0.4480 -0.5560
27 1 7 -0.5098 0.0700
27 2 -6 -0.4104 0.0090
27 2 -5 -0.1169 0.1110
27 2 -4 -0.9397 -0.2036
27 2 -3 0.7935 0.2893
27 2 -2 0.7907 0.1270
27 2 -1 -0.5522 -0.0186
27 2 0 -0.2922 0.3588
27 2 1 0.0805 0.0579
27 2 2 -0.5352 0.3598
27 2 3 0.4743 -1.1090
27 2 4 0.1629 -0.2860
27 2 5 -0.5049 -1.2185
27 2 6 -0.0001 -0.0726
27 3 -6 -0.4351 0.1039
27 3 -5 -0.0531 -0.8013
27 3 -4 -1.1718 0.3444
27 3 -3 0.6055 -0.3214
27 3 -2 0.2796 -0.6106
27 3 -1 0.6292 -0.8463
27 3 0 -0.7322 -0.6654
27 3 1 -0.3589 0.7535
27 3 2 -0.3518 0.7782
27 3 3 0.4908 0.0130
27 3 4 0.0358 0.2499
27 3 5 -0.0844 -0.6832
27 3 6 -0.0061 0.2583
27 4 -5 0.0460 -0.3121
27 4 -4 -0.7395 1.5025
27 4 -3 0.4248 -0.0735
27 4 -2 -0.6407 -1.6009
27 4 -1 0.8269 -0.1248
27 4 0 -0.2846 -1.1202
27 4 1 -0.1830 0.6337
27 4 2 0.3751 0.9991
27 4 3 -0.2282 1.1566
27 4 4 0.3705 0.3713
27 4 5 0.4002 -0.0969
27 5 -5 0.1589 1.1059
27 5 -4 0.1125 1.5126
27 5 -3 0.2880 -0.6610
27 5 -2 -0.6898 -0.6112
27 5 -1 0.0920 -0.3992
27 5 0 0.3593 -0.6380
27 5 1 0.1470 -0.4737
27 5 2 0.0382 -0.2168
27 5 3 -0.3106 1.6038
27 5 4 0.1875 -0.3052
27 5 5 0.0291 0.1985
27 6 -4 0.3422 0.6162
27 6 -3 0.3848 -0.4598
27 6 -2 -0.2191 0.2056
27 6 -1 -0.2636 -0.7236
27 6 0 0.3993 -0.1573
27 6 1 0.5993 -1.1714
27 6 2 -0.0382 -0.3217
27 6 3 0.3490 0.9263
27 6 4 0.1948 -0.1130
27 7 -3 0.4676 0.2741
27 7 -2 0.3824 -0.1209
27 7 -1 0.0291 -0.2876
27 7 0 0.2878 0.0541
27 7 1 0.5808 0.0834
27 7 2 0.3364 -0.2581
27 7 3 0.3394 0.3239
27 8 0 0.0979 0.7762
28 0 -6 0.4305 -0.0536
28 0 -5 -0.0483 -0.1468
28 0 -4 -0.3462 0.0960
28 0 -3 1.0176 0.0013
28 0 -2 0.1138 -0.0612
28 0 -1 -0.9066 0.0360
28 0 0 -0.4524 0.0393
28 0 1 1.4704 -0.0614
28 0 2 0.8916 -0.0017
28 0 3 0.2501 0.1094
28 0 4 0.4679 -0.0720
28 0 5 0.8834 -0.0452
28 0 6 -0.7189 -0.0037
28 1 -6 0.1091 -0.0393
28 1 -5 -0.3827 -0.0275
28 1 -4 -0.4149 0.5410
28 1 -3 0.5974 0.5348
28 1 -2 -0.1687 0.1911
28 1 -1 -0.0247 0.8091
28 1 0 -0.5663 0.3218
28 1 1 0.5951 0.1332
28 1 2 0.3861 0.3648
28 1 3 0.6847 -0.7402
28 1 4 0.2428 -0.5665
28 1 5 0.4085 -1.3522
28 1 6 -0.5729 0.0386
28 2 -5 -0.2535 -0.6880
28 2 -4 -0.6608 0.6576
28 2 -3 0.8669 0.1110
28 2 -2 -1.6430 -0.0831
28 2 -1 0.8343 0.0310
28 2 0 -0.7457 -0.2053
28 2 1 -0.4862 0.7701
28 2 2 0.0001 0.1965
28 2 3 0.5015 -0.2177
28 2 4 -0.3905 -0.2724
28 2 5 0.1115 -1.5463
28 3 -5 0.2713 -1.0989
28 3 -4 -0.6678 0.9398
28 3 -3 1.0777 0.6016
28 3 -2 -1.6797 -1.5833
28 3 -1 0.4352 -0.3497
28 3 0 -0.1282 -0.3736
28 3 1 -0.1402 0.5815
28 3 2 0.0662 0.9243
28 3 3 0.2316 0.4994
28 3 4 -0.4469 0.3792
28 3 5 -0.0554 -0.9081
28 4 -4 -0.1977 1.2908
28 4 -3 0.9968 0.4412
28 4 -2 -1.0684 -1.5678
28 4 -1 -0.3403 -0.5139
28 4 0 0.5380 -0.2310
28 4 1 0.0204 0.1695
28 4 2 0.6110 0.5445
28 4 3 -0.1218 0.8759
28 4 4 -0.0249 0.2295
28 5 -3 0.8883 0.0694
28 5 -2 -0.7787 -0.0878
28 5 -1 -0.5717 -0.8374
28 5 0 0.0370 -0.3286
28 5 1 -0.0086 -0.3078
28 5 2 0.6381 -0.2060
28 5 3 0.1063 0.8679
28 6 -2 0.0495 0.5963
28 6 -1 -0.7309 -0.4786
28 6 0 0.1605 -0.7256
28 6 1 0.1796 0.1360
28 6 2 0.3988 -0.0732
29 0 -5 -0.4040 -0.0053
29 0 -4 0.3434 -0.0298
29 0 -3 -0.1096 0.0341
29 0 -2 -0.0864 0.0647
29 0 -1 -0.0718 -0.1126
29 0 0 -0.0380 0.0691
29 0 1 1.1877 0.0367
29 0 2 -0.4067 -0.0873
29 0 3 1.1270 0.0624
29 0 4 0.4730 0.0028
29 0 5 0.7998 -0.2506
29 1 -5 -0.6120 -0.3979
29 1 -4 0.5265 0.8474
29 1 -3 0.6043 0.4306
29 1 -2 -1.5615 -0.0323
29 1 -1 0.4673 0.4524
29 1 0 0.2678 -0.2533
29 1 1 0.6008 0.1287
29 1 2 -0.4121 0.0879
29 1 3 0.3745 -0.4834
29 1 4 -0.1238 -0.1801
29 1 5 0.3972 -0.8464
29 2 -4 0.2276 0.7019
29 2 -3 0.9430 1.2435
29 2 -2 -2.1573 -0.7817
29 2 -1 0.1933 -0.2995
29 2 0 0.0312 -0.2823
29 2 1 0.8916 0.0449
29 2 2 0.0311 0.2553
29 2 3 0.0680 0.0275
29 2 4 -0.2509 -0.1250
29 3 -3 0.8252 1.1569
29 3 -2 -1.0059 -1.1309
29 3 -1 -0.8637 -0.8553
29 3 0 0.0794 0.0471
29 3 1 0.7576 0.2054
29 3 2 0.3208 0.5173
29 3 3 0.1551 0.1982
29 4 -2 -0.3840 -0.7387
29 4 -1 -0.5281 -0.3842
29 4 0 -0.4110 -0.3312
29 4 1 -0.1231 0.2478
29 4 2 0.6711 0.5036
29 5 0 -0.5421 -1.0510
30 0 -4 0.2766 0.1750
30 0 -3 1.2505 -0.1144
30 0 -2 -1.5494 0.1107
30 0 -1 -0.0573 -0.0390
30 0 0 1.3748 0.0002
30 0 1 1.3844 -0.0218
30 0 2 -0.5047 0.0623
30 0 3 0.3348 -0.0552
30 0 4 -0.3408 -0.1168
30 1 -4 0.1107 0.4299
30 1 -3 1.3408 1.0586
30 1 -2 -1.8232 -0.2817
30 1 -1 -0.3624 -0.0453
30 1 0 0.7482 -0.5817
30 1 1 1.4471 -0.6710
30 1 2 0.1740 0.2535
30 1 3 -0.0868 -0.1207
30 1 4 -0.1744 -0.1092
30 2 -3 0.8094 1.2871
30 2 -2 -0.9161 -0.0496
30 2 -1 -0.5446 -0.9727
30 2 0 -0.0660 -0.3582
30 2 1 1.1328 -0.4784
30 2 2 0.4677 0.0231
30 2 3 -0.0499 0.4053
30 3 -1 -0.3635 -0.4364
30 3 0 -0.1453 0.0443
30 3 1 -0.1260 -0.1122
31 0 -3 1.5216 -0.0115
31 0 -2 -1.1276 0.0509
31 0 -1 -0.7989 -0.1317
31 0 0 0.9338 0.2704
31 0 1 1.2634 -0.3578
31 0 2 0.1026 0.3086
31 0 3 0.0133 -0.1610
31 1 -2 -0.5977 0.4479
31 1 -1 -0.4395 -0.7478
31 1 0 0.3223 -0.8115
31 1 1 0.8708 -0.5384
31 1 2 0.3741 0.0074
0 0 0 0.0 0.0
;
_shelx_fab_checksum              12780
_olex2_submission_special_instructions 'No special instructions were received'
loop_
_space_group_symop_operation_xyz
'x, y, z'
'-y, x-y, z'
'-x+y, -x, z'
'y, x, -z'
'x-y, -y, -z'
'-x, -x+y, -z'
loop_
_atom_site_label
_atom_site_type_symbol
_atom_site_fract_x
_atom_site_fract_y
_atom_site_fract_z
_atom_site_U_iso_or_equiv
_atom_site_adp_type
_atom_site_occupancy
_atom_site_site_symmetry_order
_atom_site_calc_flag
_atom_site_refinement_flags_posn
_atom_site_refinement_flags_adp
_atom_site_refinement_flags_occupancy
_atom_site_disorder_assembly
_atom_site_disorder_group
Zn2 Zn 0.37569(3) 0.62472(3) 0.43341(4) 0.03445(14) Uani 1 1 d . . . . .
Zn1 Zn 0.333333 0.666667 0.67950(6) 0.03519(18) Uani 1 3 d S T P . .
O7 O 0.333333 0.666667 0.4861(4) 0.0314(8) Uani 1 3 d S T P . .
O6 O -0.23363(15) 0.33280(16) 0.7113(3) 0.0423(7) Uani 1 1 d . . . . .
O2 O 0.23134(16) 0.55705(16) 0.5888(4) 0.0485(8) Uani 1 1 d . . . . .
O5 O -0.30887(16) 0.24166(17) 0.6615(4) 0.0483(8) Uani 1 1 d . . . . .
O1 O 0.30338(16) 0.58279(16) 0.7361(3) 0.0452(8) Uani 1 1 d . . . . .
N3 N 0.40882(16) 0.56729(15) 0.4739(3) 0.0335(7) Uani 1 1 d . . . . .
O4 O -0.14813(19) 0.2736(3) 0.5858(4) 0.0736(16) Uani 1 1 d . . . . .
N2 N -0.16558(19) 0.2837(2) 0.7991(4) 0.0529(12) Uani 1 1 d . . . . .
H2 H -0.150214 0.299407 0.876534 0.063 Uiso 1 1 calc R . . . .
O3 O 0.14282(19) 0.4520(3) 0.9075(4) 0.0716(15) Uani 1 1 d . . . . .
C10 C 0.1264(2) 0.4343(2) 0.7943(4) 0.0402(9) Uani 1 1 d . . . . .
C1 C 0.2569(2) 0.5448(2) 0.6772(4) 0.0373(8) Uani 1 1 d . . . . .
N1 N 0.16490(17) 0.44537(19) 0.6974(3) 0.0398(8) Uani 1 1 d . . . . .
H1 H 0.150647 0.431935 0.617929 0.048 Uiso 1 1 calc R . . . .
C11 C 0.06056(18) 0.39873(18) 0.7656(4) 0.0370(8) Uani 1 1 d D . . . .
C31 C 0.4233(2) 0.5553(2) 0.5907(4) 0.0393(10) Uani 1 1 d . . . . .
H31 H 0.413369 0.569929 0.667379 0.047 Uiso 1 1 calc R . . . .
C27 C 0.4211(3) 0.5450(2) 0.3673(5) 0.0464(11) Uani 1 1 d . . . . .
H27 H 0.408871 0.551592 0.283346 0.056 Uiso 1 1 calc R . . . .
C18 C -0.2591(2) 0.2772(2) 0.7122(4) 0.0416(10) Uani 1 1 d D . . . .
C3 C 0.2592(3) 0.4495(3) 0.6391(6) 0.0530(12) Uani 1 1 d . . . . .
H3A H 0.246650 0.445230 0.545514 0.064 Uiso 1 1 calc R . . . .
H3B H 0.303464 0.476030 0.642458 0.064 Uiso 1 1 calc R . . . .
C2 C 0.22959(19) 0.4786(2) 0.7157(4) 0.0383(9) Uani 1 1 d . . . . .
H2A H 0.237924 0.476908 0.811519 0.046 Uiso 1 1 calc R . . . .
C30 C 0.4522(2) 0.5224(2) 0.6059(4) 0.0426(10) Uani 1 1 d . . . . .
H30 H 0.461602 0.514495 0.691694 0.051 Uiso 1 1 calc R . . . .
C29 C 0.4677(2) 0.5007(2) 0.4947(4) 0.0370(8) Uani 1 1 d . . . . .
C19 C -0.2306(2) 0.2461(2) 0.7873(4) 0.0472(11) Uani 1 1 d D . . . .
H19 H -0.239656 0.208546 0.738834 0.057 Uiso 1 1 calc R . . . .
C28 C 0.4510(3) 0.5126(3) 0.3740(5) 0.0499(12) Uani 1 1 d . . . . .
H28 H 0.460039 0.498609 0.295285 0.060 Uiso 1 1 calc R . . . .
C26 C -0.3642(2) 0.1909(2) 0.9876(3) 0.069(2) Uani 1 1 d D . . . .
H26 H -0.354257 0.230997 1.007802 0.083 Uiso 1 1 calc R . . . .
C17 C -0.1288(2) 0.2951(3) 0.6988(5) 0.0579(16) Uani 1 1 d . . . . .
C14 C -0.0628(2) 0.3307(2) 0.7216(4) 0.0489(12) Uani 1 1 d D . . . .
C21 C -0.32019(17) 0.17939(18) 0.9365(4) 0.0591(17) Uani 1 1 d D . . . .
C22 C -0.3344(2) 0.1201(2) 0.9060(5) 0.082(3) Uani 1 1 d D . . . .
H22 H -0.304426 0.112438 0.871361 0.098 Uiso 1 1 calc R . . . .
C23 C -0.3935(3) 0.07223(18) 0.9274(5) 0.093(3) Uani 1 1 d D . . . .
H23 H -0.403715 0.032067 0.907281 0.112 Uiso 1 1 calc R . . . .
C15B C 0.0208(3) 0.4157(4) 0.8156(8) 0.0373(16) Uani 0.5 1 d D . . A 1
H15B H 0.036768 0.451458 0.866647 0.045 Uiso 0.5 1 calc R . . A 1
C25 C -0.4228(2) 0.1435(3) 1.0089(4) 0.099(4) Uani 1 1 d D . . . .
H25 H -0.452693 0.151331 1.043431 0.119 Uiso 1 1 calc R . . . .
C24 C -0.4372(2) 0.0845(3) 0.9789(5) 0.113(5) Uani 1 1 d D . . . .
H24 H -0.477010 0.052356 0.993479 0.136 Uiso 1 1 calc R . . . .
C20 C -0.2569(2) 0.2288(3) 0.9270(5) 0.0533(14) Uani 1 1 d D . . . .
H20A H -0.231540 0.217126 0.978444 0.064 Uiso 1 1 calc R . . . .
H20B H -0.253881 0.264933 0.969439 0.064 Uiso 1 1 calc R . . . .
C4 C 0.2431(3) 0.3893(2) 0.6928(6) 0.082(2) Uani 1 1 d D . . . .
C5 C 0.2814(3) 0.3864(3) 0.7883(7) 0.112(4) Uani 1 1 d D . . . .
H5 H 0.317235 0.421828 0.813712 0.134 Uiso 1 1 calc R . . . .
C12B C 0.0369(3) 0.3493(3) 0.6801(8) 0.0388(17) Uani 0.5 1 d D . . A 1
H12B H 0.063639 0.340060 0.634290 0.047 Uiso 0.5 1 calc R . . A 1
C9 C 0.1901(3) 0.3372(3) 0.6548(8) 0.125(5) Uani 1 1 d D . . . .
H9 H 0.164568 0.339638 0.590259 0.150 Uiso 1 1 calc R . . . .
C14B C -0.0411(3) 0.3831(3) 0.7951(8) 0.0430(19) Uani 0.5 1 d D . . A 1
H14B H -0.067145 0.396088 0.829595 0.052 Uiso 0.5 1 calc R . . A 1
C7 C 0.2128(6) 0.2787(3) 0.8069(11) 0.222(13) Uani 1 1 d D . . . .
H7 H 0.202452 0.240985 0.845610 0.267 Uiso 1 1 calc R . . . .
C13B C -0.0250(3) 0.3132(4) 0.6607(8) 0.0417(19) Uani 0.5 1 d D . . A 1
H13B H -0.040944 0.277893 0.607858 0.050 Uiso 0.5 1 calc R . . A 1
C13A C -0.0227(3) 0.3660(3) 0.6235(7) 0.054(3) Uani 0.5 1 d D . . A 2
H13A H -0.038412 0.364929 0.538036 0.065 Uiso 0.5 1 calc R . . A 2
C12A C 0.0390(3) 0.4028(4) 0.6425(5) 0.047(2) Uani 0.5 1 d D . . A 2
H12A H 0.064693 0.429050 0.575668 0.056 Uiso 0.5 1 calc R . . A 2
C15A C -0.0381(4) 0.3359(6) 0.8473(6) 0.073(4) Uani 0.5 1 d D . . A 2
H15A H -0.064422 0.313891 0.917707 0.087 Uiso 0.5 1 calc R . . A 2
C16A C 0.0232(3) 0.3717(5) 0.8748(6) 0.056(3) Uani 0.5 1 d D . . A 2
H16A H 0.038613 0.377316 0.962078 0.067 Uiso 0.5 1 calc R . . A 2
C6 C 0.2661(5) 0.3306(4) 0.8458(9) 0.166(8) Uani 1 1 d D . . . .
H6 H 0.291533 0.328008 0.910359 0.199 Uiso 1 1 calc R . . . .
C8 C 0.1749(4) 0.2818(3) 0.7118(10) 0.211(13) Uani 1 1 d D . . . .
H8 H 0.138993 0.246433 0.686159 0.253 Uiso 1 1 calc R . . . .
loop_
_atom_site_aniso_label
_atom_site_aniso_U_11
_atom_site_aniso_U_22
_atom_site_aniso_U_33
_atom_site_aniso_U_23
_atom_site_aniso_U_13
_atom_site_aniso_U_12
Zn2 0.0391(3) 0.0424(3) 0.0255(2) -0.00464(19) -0.00391(19) 0.02307(18)
Zn1 0.0432(3) 0.0432(3) 0.0192(3) 0.000 0.000 0.02160(13)
O7 0.0361(12) 0.0361(12) 0.0222(16) 0.000 0.000 0.0180(6)
O6 0.0412(16) 0.0419(17) 0.0289(13) -0.0003(12) -0.0084(12) 0.0097(13)
O2 0.0442(17) 0.0440(17) 0.0445(17) 0.0144(14) -0.0078(14) 0.0125(15)
O5 0.0403(17) 0.0441(17) 0.0495(19) 0.0039(14) -0.0197(14) 0.0128(14)
O1 0.0519(19) 0.0437(17) 0.0316(14) 0.0031(12) -0.0075(12) 0.0176(14)
N3 0.0389(17) 0.0370(17) 0.0267(13) -0.0035(11) -0.0082(11) 0.0205(15)
O4 0.044(2) 0.114(4) 0.0283(16) 0.015(2) -0.0120(14) 0.013(2)
N2 0.0379(19) 0.074(3) 0.0311(17) 0.0135(18) -0.0123(14) 0.016(2)
O3 0.0400(19) 0.110(4) 0.042(2) -0.037(2) -0.0068(15) 0.020(2)
C10 0.042(2) 0.044(2) 0.035(2) -0.0099(16) -0.0052(16) 0.0214(19)
C1 0.0382(19) 0.044(2) 0.0224(15) 0.0041(14) -0.0012(13) 0.0152(16)
N1 0.0345(17) 0.050(2) 0.0245(14) 0.0009(13) -0.0045(12) 0.0137(16)
C11 0.039(2) 0.040(2) 0.0322(18) -0.0016(15) -0.0063(15) 0.0189(17)
C31 0.044(2) 0.053(3) 0.0289(16) 0.0023(15) 0.0004(14) 0.030(2)
C27 0.065(3) 0.057(3) 0.0333(19) -0.0069(17) -0.0145(18) 0.043(2)
C18 0.044(2) 0.049(3) 0.0249(15) 0.0034(15) -0.0104(15) 0.018(2)
C3 0.054(3) 0.064(3) 0.050(3) -0.007(2) -0.008(2) 0.036(3)
C2 0.037(2) 0.043(2) 0.0295(16) 0.0008(14) -0.0071(14) 0.0168(16)
C30 0.046(2) 0.057(3) 0.0354(19) 0.0051(17) -0.0023(16) 0.033(2)
C29 0.0397(19) 0.0386(19) 0.0321(18) 0.0022(14) -0.0047(14) 0.0192(16)
C19 0.037(2) 0.055(3) 0.0372(19) 0.0128(18) -0.0116(16) 0.014(2)
C28 0.077(3) 0.057(3) 0.033(2) -0.0066(18) -0.009(2) 0.046(3)
C26 0.050(3) 0.090(5) 0.029(2) 0.000(2) -0.0030(19) 0.006(3)
C17 0.044(2) 0.077(4) 0.033(2) 0.017(2) -0.0122(18) 0.015(2)
C14 0.040(2) 0.062(3) 0.035(2) 0.015(2) -0.0089(17) 0.018(2)
C21 0.046(3) 0.066(3) 0.032(2) 0.021(2) -0.0118(19) 0.003(2)
C22 0.073(5) 0.073(5) 0.075(4) 0.030(4) -0.018(4) 0.018(4)
C23 0.082(5) 0.073(5) 0.081(5) 0.039(4) -0.020(4) 0.005(4)
C15B 0.046(4) 0.039(4) 0.029(3) -0.009(3) -0.008(3) 0.022(4)
C25 0.053(3) 0.150(9) 0.034(2) 0.023(3) 0.005(3) 0.006(5)
C24 0.074(5) 0.107(7) 0.059(4) 0.047(4) -0.023(4) -0.029(5)
C20 0.040(2) 0.068(3) 0.0308(19) 0.0156(19) -0.0062(16) 0.012(2)
C4 0.107(7) 0.065(4) 0.088(5) -0.016(4) -0.016(5) 0.053(5)
C5 0.171(12) 0.092(7) 0.117(8) -0.011(6) -0.040(8) 0.099(8)
C12B 0.034(4) 0.046(4) 0.031(4) -0.014(3) -0.014(3) 0.016(3)
C9 0.081(6) 0.068(5) 0.216(16) -0.029(8) -0.019(8) 0.030(5)
C14B 0.046(5) 0.048(5) 0.030(4) -0.004(3) -0.007(3) 0.020(4)
C7 0.34(4) 0.095(11) 0.28(3) 0.018(14) -0.03(2) 0.140(18)
C13B 0.041(4) 0.034(4) 0.036(4) -0.006(3) -0.014(3) 0.009(3)
C13A 0.042(5) 0.064(6) 0.036(4) 0.019(4) -0.006(4) 0.011(5)
C12A 0.049(5) 0.050(5) 0.029(4) -0.010(3) -0.009(3) 0.016(4)
C15A 0.042(5) 0.104(11) 0.053(6) 0.031(7) -0.005(5) 0.022(6)
C16A 0.061(6) 0.098(9) 0.021(3) -0.008(4) -0.008(4) 0.049(7)
C6 0.29(2) 0.128(11) 0.161(13) 0.008(10) -0.034(14) 0.165(15)
C8 0.32(4) 0.087(9) 0.20(2) 0.018(11) 0.05(2) 0.087(16)
loop_
_atom_type_symbol
_atom_type_description
_atom_type_scat_dispersion_real
_atom_type_scat_dispersion_imag
_atom_type_scat_source
C C 0.0027 0.0013 'International Tables Vol C Tables 4.2.6.8 and 6.1.1.4'
H H 0.0000 0.0000 'International Tables Vol C Tables 4.2.6.8 and 6.1.1.4'
N N 0.0052 0.0027 'International Tables Vol C Tables 4.2.6.8 and 6.1.1.4'
O O 0.0094 0.0050 'International Tables Vol C Tables 4.2.6.8 and 6.1.1.4'
Zn Zn 0.3425 1.2594 'International Tables Vol C Tables 4.2.6.8 and 6.1.1.4'
loop_
_geom_angle_atom_site_label_1
_geom_angle_atom_site_label_2
_geom_angle_atom_site_label_3
_geom_angle
_geom_angle_site_symmetry_1
_geom_angle_site_symmetry_3
_geom_angle_publ_flag
O7 Zn2 Zn1 37.17(11) . . ?
O7 Zn2 O6 111.77(13) . 5_666 ?
O7 Zn2 O2 88.70(12) . 2_665 ?
O7 Zn2 O5 101.69(12) . 6_556 ?
O7 Zn2 N3 151.30(15) . . ?
O6 Zn2 Zn1 134.15(10) 5_666 . ?
O6 Zn2 O2 93.20(16) 5_666 2_665 ?
O6 Zn2 O5 102.24(17) 5_666 6_556 ?
O6 Zn2 N3 94.37(14) 5_666 . ?
O2 Zn2 Zn1 62.49(9) 2_665 . ?
O5 Zn2 Zn1 114.87(11) 6_556 . ?
O5 Zn2 O2 156.43(16) 6_556 2_665 ?
O5 Zn2 N3 83.29(14) 6_556 . ?
N3 Zn2 Zn1 115.08(10) . . ?
N3 Zn2 O2 77.81(14) . 2_665 ?
Zn2 Zn1 Zn2 62.687(17) 3_565 . ?
Zn2 Zn1 Zn2 62.685(17) 2_665 . ?
Zn2 Zn1 Zn2 62.686(17) 3_565 2_665 ?
O7 Zn1 Zn2 36.915(10) . 2_665 ?
O7 Zn1 Zn2 36.915(10) . . ?
O7 Zn1 Zn2 36.915(10) . 3_565 ?
O7 Zn1 O1 106.88(10) . 2_665 ?
O7 Zn1 O1 106.89(10) . 3_565 ?
O7 Zn1 O1 106.89(10) . . ?
O1 Zn1 Zn2 82.47(11) 2_665 2_665 ?
O1 Zn1 Zn2 143.09(10) 2_665 3_565 ?
O1 Zn1 Zn2 143.09(10) . 2_665 ?
O1 Zn1 Zn2 91.62(10) . 3_565 ?
O1 Zn1 Zn2 91.62(10) 3_565 2_665 ?
O1 Zn1 Zn2 82.47(11) 3_565 3_565 ?
O1 Zn1 Zn2 82.47(11) . . ?
O1 Zn1 Zn2 143.09(10) 3_565 . ?
O1 Zn1 Zn2 91.62(10) 2_665 . ?
O1 Zn1 O1 111.93(9) . 2_665 ?
O1 Zn1 O1 111.93(9) 3_565 2_665 ?
O1 Zn1 O1 111.93(9) 3_565 . ?
Zn2 O7 Zn2 112.78(10) 3_565 . ?
Zn2 O7 Zn2 112.78(10) 3_565 2_665 ?
Zn2 O7 Zn2 112.78(10) 2_665 . ?
Zn2 O7 Zn1 105.92(11) 2_665 . ?
Zn2 O7 Zn1 105.92(11) . . ?
Zn2 O7 Zn1 105.92(11) 3_565 . ?
C18 O6 Zn2 120.3(3) . 5_566 ?
C1 O2 Zn2 141.7(3) . 3_565 ?
C18 O5 Zn2 136.1(3) . 6_556 ?
C1 O1 Zn1 114.3(3) . . ?
C31 N3 Zn2 127.1(3) . . ?
C31 N3 C27 118.3(4) . . ?
C27 N3 Zn2 114.4(3) . . ?
C19 N2 H2 118.7 . . ?
C17 N2 H2 118.7 . . ?
C17 N2 C19 122.7(4) . . ?
O3 C10 N1 122.3(5) . . ?
O3 C10 C11 118.8(4) . . ?
N1 C10 C11 118.9(4) . . ?
O2 C1 O1 124.5(4) . . ?
O2 C1 C2 117.3(4) . . ?
O1 C1 C2 118.2(4) . . ?
C10 N1 H1 118.5 . . ?
C10 N1 C2 123.0(4) . . ?
C2 N1 H1 118.5 . . ?
C15B C11 C10 121.4(4) . . ?
C15B C11 C12B 117.2(5) . . ?
C12B C11 C10 121.3(4) . . ?
C12A C11 C10 120.0(5) . . ?
C12A C11 C16A 123.2(6) . . ?
C16A C11 C10 115.7(4) . . ?
N3 C31 H31 118.7 . . ?
N3 C31 C30 122.6(4) . . ?
C30 C31 H31 118.7 . . ?
N3 C27 H27 118.7 . . ?
N3 C27 C28 122.5(4) . . ?
C28 C27 H27 118.7 . . ?
O6 C18 O5 126.6(4) . . ?
O6 C18 C19 119.4(4) . . ?
O5 C18 C19 113.9(4) . . ?
H3A C3 H3B 107.9 . . ?
C2 C3 H3A 109.2 . . ?
C2 C3 H3B 109.2 . . ?
C4 C3 H3A 109.2 . . ?
C4 C3 H3B 109.2 . . ?
C4 C3 C2 112.0(5) . . ?
C1 C2 H2A 107.8 . . ?
N1 C2 C1 112.0(4) . . ?
N1 C2 C3 110.7(4) . . ?
N1 C2 H2A 107.8 . . ?
C3 C2 C1 110.6(4) . . ?
C3 C2 H2A 107.8 . . ?
C31 C30 H30 120.1 . . ?
C31 C30 C29 119.9(4) . . ?
C29 C30 H30 120.1 . . ?
C30 C29 C29 122.0(5) . 4_556 ?
C28 C29 C30 116.4(4) . . ?
C28 C29 C29 121.6(5) . 4_556 ?
N2 C19 C18 112.6(4) . . ?
N2 C19 H19 108.5 . . ?
N2 C19 C20 108.0(4) . . ?
C18 C19 H19 108.5 . . ?
C18 C19 C20 110.7(5) . . ?
C20 C19 H19 108.5 . . ?
C27 C28 H28 119.9 . . ?
C29 C28 C27 120.2(5) . . ?
C29 C28 H28 119.9 . . ?
C21 C26 H26 119.9 . . ?
C25 C26 H26 119.9 . . ?
C25 C26 C21 120.2(4) . . ?
O4 C17 N2 121.6(5) . . ?
O4 C17 C14 119.2(5) . . ?
N2 C17 C14 119.1(4) . . ?
C14B C14 C17 117.4(5) . . ?
C14B C14 C13B 122.8(5) . . ?
C13B C14 C17 119.6(5) . . ?
C13A C14 C17 122.2(5) . . ?
C13A C14 C15A 115.9(6) . . ?
C15A C14 C17 121.5(5) . . ?
C26 C21 C22 120.5(3) . . ?
C26 C21 C20 119.9(4) . . ?
C22 C21 C20 119.3(5) . . ?
C21 C22 H22 120.3 . . ?
C21 C22 C23 119.3(2) . . ?
C23 C22 H22 120.3 . . ?
C22 C23 H23 120.3 . . ?
C24 C23 C22 119.5(2) . . ?
C24 C23 H23 120.3 . . ?
C11 C15B H15B 118.2 . . ?
C11 C15B C14B 123.6(6) . . ?
C14B C15B H15B 118.2 . . ?
C26 C25 H25 120.2 . . ?
C26 C25 C24 119.6(4) . . ?
C24 C25 H25 120.2 . . ?
C23 C24 H24 119.6 . . ?
C25 C24 C23 120.9(3) . . ?
C25 C24 H24 119.6 . . ?
C19 C20 H20A 108.2 . . ?
C19 C20 H20B 108.2 . . ?
C21 C20 C19 116.3(4) . . ?
C21 C20 H20A 108.2 . . ?
C21 C20 H20B 108.2 . . ?
H20A C20 H20B 107.4 . . ?
C5 C4 C3 117.8(5) . . ?
C9 C4 C3 121.5(5) . . ?
C9 C4 C5 120.6(3) . . ?
C4 C5 H5 120.3 . . ?
C4 C5 C6 119.4(2) . . ?
C6 C5 H5 120.3 . . ?
C11 C12B H12B 119.3 . . ?
C13B C12B C11 121.5(6) . . ?
C13B C12B H12B 119.3 . . ?
C4 C9 H9 120.0 . . ?
C8 C9 C4 120.1(4) . . ?
C8 C9 H9 120.0 . . ?
C14 C14B C15B 116.5(6) . . ?
C14 C14B H14B 121.8 . . ?
C15B C14B H14B 121.8 . . ?
C6 C7 H7 119.6 . . ?
C8 C7 H7 119.6 . . ?
C8 C7 C6 120.9(3) . . ?
C14 C13B H13B 121.1 . . ?
C12B C13B C14 117.8(6) . . ?
C12B C13B H13B 121.1 . . ?
C14 C13A H13A 117.9 . . ?
C14 C13A C12A 124.2(7) . . ?
C12A C13A H13A 117.9 . . ?
C11 C12A C13A 115.7(7) . . ?
C11 C12A H12A 122.2 . . ?
C13A C12A H12A 122.2 . . ?
C14 C15A H15A 118.3 . . ?
C16A C15A C14 123.5(7) . . ?
C16A C15A H15A 118.3 . . ?
C11 C16A H16A 122.1 . . ?
C15A C16A C11 115.8(7) . . ?
C15A C16A H16A 122.1 . . ?
C5 C6 H6 120.3 . . ?
C7 C6 C5 119.5(2) . . ?
C7 C6 H6 120.3 . . ?
C9 C8 C7 119.6(4) . . ?
C9 C8 H8 120.2 . . ?
C7 C8 H8 120.2 . . ?
loop_
_geom_bond_atom_site_label_1
_geom_bond_atom_site_label_2
_geom_bond_distance
_geom_bond_site_symmetry_2
_geom_bond_publ_flag
Zn2 Zn1 3.1190(6) . ?
Zn2 O7 1.9481(12) . ?
Zn2 O6 1.981(3) 5_666 ?
Zn2 O2 2.209(3) 2_665 ?
Zn2 O5 2.056(3) 6_556 ?
Zn2 N3 2.077(4) . ?
Zn1 O7 1.959(4) . ?
Zn1 O1 1.974(3) . ?
Zn1 O1 1.974(3) 2_665 ?
Zn1 O1 1.974(3) 3_565 ?
O6 C18 1.236(6) . ?
O2 C1 1.240(5) . ?
O5 C18 1.250(5) . ?
O1 C1 1.251(5) . ?
N3 C31 1.322(5) . ?
N3 C27 1.331(6) . ?
O4 C17 1.260(7) . ?
N2 H2 0.8800 . ?
N2 C19 1.455(6) . ?
N2 C17 1.317(8) . ?
O3 C10 1.228(6) . ?
C10 N1 1.320(6) . ?
C10 C11 1.493(6) . ?
C1 C2 1.530(6) . ?
N1 H1 0.8800 . ?
N1 C2 1.450(5) . ?
C11 C15B 1.389(3) . ?
C11 C12B 1.400(3) . ?
C11 C12A 1.389(3) . ?
C11 C16A 1.399(3) . ?
C31 H31 0.9500 . ?
C31 C30 1.387(6) . ?
C27 H27 0.9500 . ?
C27 C28 1.387(7) . ?
C18 C19 1.529(6) . ?
C3 H3A 0.9900 . ?
C3 H3B 0.9900 . ?
C3 C2 1.517(7) . ?
C3 C4 1.489(8) . ?
C2 H2A 1.0000 . ?
C30 H30 0.9500 . ?
C30 C29 1.399(7) . ?
C29 C29 1.471(9) 4_556 ?
C29 C28 1.380(6) . ?
C19 H19 1.0000 . ?
C19 C20 1.535(7) . ?
C28 H28 0.9500 . ?
C26 H26 0.9500 . ?
C26 C21 1.402(3) . ?
C26 C25 1.399(3) . ?
C17 C14 1.487(7) . ?
C14 C14B 1.387(3) . ?
C14 C13B 1.400(3) . ?
C14 C13A 1.391(3) . ?
C14 C15A 1.399(3) . ?
C21 C22 1.410(2) . ?
C21 C20 1.481(6) . ?
C22 H22 0.9500 . ?
C22 C23 1.412(2) . ?
C23 H23 0.9500 . ?
C23 C24 1.409(2) . ?
C15B H15B 0.9500 . ?
C15B C14B 1.392(3) . ?
C25 H25 0.9500 . ?
C25 C24 1.401(3) . ?
C24 H24 0.9500 . ?
C20 H20A 0.9900 . ?
C20 H20B 0.9900 . ?
C4 C5 1.4063(18) . ?
C4 C9 1.4014(19) . ?
C5 H5 0.9500 . ?
C5 C6 1.4088(18) . ?
C12B H12B 0.9500 . ?
C12B C13B 1.397(3) . ?
C9 H9 0.9500 . ?
C9 C8 1.398(2) . ?
C14B H14B 0.9500 . ?
C7 H7 0.9500 . ?
C7 C6 1.4057(19) . ?
C7 C8 1.400(2) . ?
C13B H13B 0.9500 . ?
C13A H13A 0.9500 . ?
C13A C12A 1.393(3) . ?
C12A H12A 0.9500 . ?
C15A H15A 0.9500 . ?
C15A C16A 1.397(3) . ?
C16A H16A 0.9500 . ?
C6 H6 0.9500 . ?
C8 H8 0.9500 . ?
loop_
_smtbx_masks_void_nr
_smtbx_masks_void_average_x
_smtbx_masks_void_average_y
_smtbx_masks_void_average_z
_smtbx_masks_void_volume
_smtbx_masks_void_count_electrons
_smtbx_masks_void_content
1 0.000 0.000 -0.299 1064.3 300.8 ?
2 0.333 0.667 0.108 0.4 0.1 ?
3 0.667 0.333 0.892 0.4 0.1 ?
