#------------------------------------------------------------------------------
#$Date: 2020-09-06 11:14:41 +0300 (Sun, 06 Sep 2020) $
#$Revision: 255959 $
#$URL: file:///home/coder/svn-repositories/cod/cif/7/12/69/7126980.cif $
#------------------------------------------------------------------------------
#
# This file is available in the Crystallography Open Database (COD),
# http://www.crystallography.net/
#
# All data on this site have been placed in the public domain by the
# contributors.
#
data_7126980
loop_
_publ_author_name
'Song, Xueling'
'Peng, Chengdong'
'Xu, Xiaoxiang'
'Yin, Jinlin'
'Fei, Honghan'
_publ_section_title
;
 Efficient, broadband self-trapped white-light emission from
 haloplumbate-based metal-organic frameworks.
;
_journal_issue                   69
_journal_name_full
'Chemical communications (Cambridge, England)'
_journal_page_first              10078
_journal_page_last               10081
_journal_paper_doi               10.1039/d0cc04473c
_journal_volume                  56
_journal_year                    2020
_chemical_formula_moiety         'C6 H2 Cl O4 Pb S, C2 H8 N'
_chemical_formula_sum            'C8 H10 Cl N O4 Pb S'
_chemical_formula_weight         458.87
_space_group_crystal_system      hexagonal
_space_group_IT_number           169
_space_group_name_Hall           'P 61'
_space_group_name_H-M_alt        'P 61'
_atom_sites_solution_hydrogens   geom
_atom_sites_solution_primary     iterative
_audit_creation_date             2020-06-10
_audit_creation_method
;
Olex2 1.2
(compiled 2018.05.29 svn.r3508 for OlexSys, GUI svn.r5506)
;
_audit_update_record
;
2020-06-29 deposited with the CCDC.	2020-07-22 downloaded from the CCDC.
;
_cell_angle_alpha                90
_cell_angle_beta                 90
_cell_angle_gamma                120
_cell_formula_units_Z            6
_cell_length_a                   10.0345(9)
_cell_length_b                   10.0345(9)
_cell_length_c                   21.669(2)
_cell_measurement_reflns_used    4970
_cell_measurement_temperature    296(2)
_cell_measurement_theta_max      25.78
_cell_measurement_theta_min      2.34
_cell_volume                     1889.6(3)
_computing_molecular_graphics    'Olex2 (Dolomanov et al., 2009)'
_computing_publication_material  'Olex2 (Dolomanov et al., 2009)'
_computing_structure_refinement  'ShelXL (Sheldrick, 2015)'
_computing_structure_solution    'olex2.solve (Bourhis et al., 2015)'
_diffrn_ambient_temperature      296.15
_diffrn_measured_fraction_theta_full 0.997
_diffrn_measured_fraction_theta_max 0.997
_diffrn_measurement_device_type  'Bruker APEX-II CCD'
_diffrn_measurement_method       '\f and \w scans'
_diffrn_radiation_type           MoK\a
_diffrn_radiation_wavelength     0.71073
_diffrn_reflns_av_R_equivalents  0.0445
_diffrn_reflns_av_unetI/netI     0.0440
_diffrn_reflns_Laue_measured_fraction_full 0.997
_diffrn_reflns_Laue_measured_fraction_max 0.997
_diffrn_reflns_limit_h_max       12
_diffrn_reflns_limit_h_min       -13
_diffrn_reflns_limit_k_max       13
_diffrn_reflns_limit_k_min       -13
_diffrn_reflns_limit_l_max       25
_diffrn_reflns_limit_l_min       -28
_diffrn_reflns_number            13945
_diffrn_reflns_point_group_measured_fraction_full 0.973
_diffrn_reflns_point_group_measured_fraction_max 0.963
_diffrn_reflns_theta_full        25.242
_diffrn_reflns_theta_max         27.568
_diffrn_reflns_theta_min         2.525
_diffrn_standards_number         0
_exptl_absorpt_coefficient_mu    13.768
_exptl_absorpt_correction_type   none
_exptl_crystal_density_diffrn    2.420
_exptl_crystal_description       bulk
_exptl_crystal_F_000             1272
_refine_diff_density_max         1.032
_refine_diff_density_min         -0.401
_refine_diff_density_rms         0.106
_refine_ls_abs_structure_details
;
 Flack x determined using 1088 quotients [(I+)-(I-)]/[(I+)+(I-)]
 (Parsons, Flack and Wagner, Acta Cryst. B69 (2013) 249-259).
;
_refine_ls_abs_structure_Flack   0.001(7)
_refine_ls_extinction_method     none
_refine_ls_goodness_of_fit_ref   1.009
_refine_ls_hydrogen_treatment    constr
_refine_ls_matrix_type           full
_refine_ls_number_parameters     175
_refine_ls_number_reflns         2806
_refine_ls_number_restraints     82
_refine_ls_restrained_S_all      0.998
_refine_ls_R_factor_all          0.0301
_refine_ls_R_factor_gt           0.0238
_refine_ls_shift/su_max          0.000
_refine_ls_shift/su_mean         0.000
_refine_ls_structure_factor_coef Fsqd
_refine_ls_weighting_details
'w=1/[\s^2^(Fo^2^)+(0.0097P)^2^] where P=(Fo^2^+2Fc^2^)/3'
_refine_ls_weighting_scheme      calc
_refine_ls_wR_factor_gt          0.0444
_refine_ls_wR_factor_ref         0.0458
_reflns_Friedel_coverage         0.883
_reflns_Friedel_fraction_full    0.946
_reflns_Friedel_fraction_max     0.928
_reflns_number_gt                2513
_reflns_number_total             2806
_reflns_threshold_expression     'I > 2\s(I)'
_iucr_refine_instructions_details
;

    90507a_a.res created by SHELXL-2014/7

TITL 90507a_a.res in P6(1)
REM Old TITL 90507a in P6(5)
REM SHELXT solution in P6(1)
REM R1 0.077, Rweak 0.015, Alpha 0.006, Orientation as input
REM Flack x = 0.057 ( 0.009 ) from Parsons' quotients
REM Formula found by SHELXT: C7 Cl O4 Pb S
CELL 0.71073 10.0345 10.0345 21.6691 90 90 120
ZERR 6 0.0009 0.0009 0.0021 0 0 0
LATT -1
SYMM -Y,+X-Y,0.333+Z
SYMM +Y-X,-X,0.667+Z
SYMM -X,-Y,0.5+Z
SYMM +Y,-X+Y,0.833+Z
SYMM -Y+X,+X,0.167+Z
SFAC C H Cl N O Pb S
UNIT 48 60 6 6 24 6 6
DFIX 1.45 0.01 N1 C7 N1 C8
SADI 0.01 N1 C7 N1 C8 N1' C7' N1' C8'
SADI C7 C8 C7' C8'
DELU N1 > C8'
SIMU 0.01 0.02 2 N1 > C8'
 
L.S. 20
PLAN  4
TEMP 23
BIND O2 Pb1
BOND $H
LIST 4
fmap 2
acta
OMIT 0 1 2
OMIT 0 1 -2
OMIT 0 1 3
OMIT 0 1 -3
OMIT 0 1 0
REM <olex2.extras>
REM <HklSrc "%.\\90507a_a.hkl">
REM </olex2.extras>
 
WGHT    0.009700
FVAR       0.27534   0.61842
PB1   6    1.065933    0.165767    0.599940    11.00000    0.03490    0.03169 =
         0.02197   -0.00066    0.00313    0.01669
S1    7    0.577673    0.084356    0.434329    11.00000    0.04023    0.05586 =
         0.03990   -0.01523   -0.01051    0.03308
CL1   3    1.227710    0.201404    0.715221    11.00000    0.04044    0.05388 =
         0.04274   -0.00218   -0.00799    0.01792
O1    5    0.791094    0.131176    0.542239    11.00000    0.07710    0.09671 =
         0.05483   -0.02861   -0.01878    0.05930
C1    1    0.820762    0.078687    0.496867    11.00000    0.04172    0.03108 =
         0.03277   -0.00298   -0.00237    0.01566
O2    5    0.933855    0.059881    0.492975    11.00000    0.03271    0.08019 =
         0.03769    0.00084   -0.00611    0.02937
C2    1    0.715312    0.030860    0.442188    11.00000    0.03039    0.04254 =
         0.03751   -0.00204   -0.00727    0.02238
O3    5    0.337620    0.071893    0.347840    11.00000    0.03463    0.04931 =
         0.03641   -0.00695   -0.00409    0.02528
C3    1    0.716430   -0.050386    0.392158    11.00000    0.04844    0.05564 =
         0.05109   -0.01469   -0.00738    0.03859
AFIX  43
H3    2    0.785176   -0.086347    0.387569    11.00000   -1.20000
AFIX   0
C4    1    0.603672   -0.074814    0.348025    11.00000    0.03884    0.06581 =
         0.05008   -0.02873   -0.01650    0.03380
AFIX  43
H4    2    0.586657   -0.132866    0.312401    11.00000   -1.20000
AFIX   0
O4    5    0.342933   -0.093377    0.281890    11.00000    0.05434    0.06501 =
         0.05345   -0.02432   -0.02057    0.03947
C5    1    0.521559   -0.003967    0.363110    11.00000    0.02629    0.04099 =
         0.04319   -0.00733   -0.00788    0.01826
C6    1    0.390876   -0.008376    0.329297    11.00000    0.03019    0.03843 =
         0.03604   -0.00477   -0.01059    0.01974
 
PART 1
N1    4    0.604411    0.124062    0.650176    21.00000    0.06762    0.09725 =
         0.04760    0.00300   -0.01351    0.04368
AFIX  23
H1A   2    0.635138    0.133249    0.689252    21.00000   -1.20000
H1B   2    0.681640    0.133277    0.626888    21.00000   -1.20000
AFIX   0
C7    1    0.584822    0.253318    0.636723    21.00000    0.05791    0.08978 =
         0.05144    0.01017    0.00970    0.04485
AFIX  33
H7A   2    0.679594    0.346988    0.644393    21.00000   -1.50000
H7B   2    0.556383    0.249718    0.594197    21.00000   -1.50000
H7C   2    0.505390    0.249687    0.662583    21.00000   -1.50000
AFIX   0
C8    1    0.478506   -0.030049    0.642356    21.00000    0.08679    0.08159 =
         0.06278    0.00716   -0.01931    0.04225
AFIX  33
H8A   2    0.511156   -0.102000    0.653321    21.00000   -1.50000
H8B   2    0.394604   -0.045597    0.668453    21.00000   -1.50000
H8C   2    0.445598   -0.045566    0.600067    21.00000   -1.50000
AFIX   0
 
PART 0
PART 2
N1'   4    0.540113    0.110917    0.607427   -21.00000    0.06187    0.09764 =
         0.05010    0.00149   -0.01052    0.04601
AFIX  23
H1'A  2    0.609760    0.092396    0.590206   -21.00000   -1.20000
H1'B  2    0.463981    0.082449    0.580317   -21.00000   -1.20000
AFIX   0
C7'   1    0.610259    0.274085    0.615956   -21.00000    0.06920    0.10119 =
         0.06546    0.00045   -0.00169    0.04853
AFIX 137
H7'A  2    0.703716    0.325327    0.592427   -21.00000   -1.50000
H7'B  2    0.633110    0.298386    0.658889   -21.00000   -1.50000
H7'C  2    0.540893    0.307734    0.602261   -21.00000   -1.50000
AFIX   0
C8'   1    0.478812    0.012701    0.660545   -21.00000    0.07528    0.10779 =
         0.04583    0.00183   -0.02480    0.03177
AFIX 137
H8'A  2    0.369744   -0.052912    0.655731   -21.00000   -1.50000
H8'B  2    0.499119    0.074647    0.696893   -21.00000   -1.50000
H8'C  2    0.526654   -0.049194    0.664469   -21.00000   -1.50000
AFIX   0
HKLF 4
 
REM  90507a_a.res in P6(1)
REM R1 =  0.0238 for    2513 Fo > 4sig(Fo)  and  0.0301 for all    2806 data
REM    175 parameters refined using     82 restraints
 
END  
     
WGHT      0.0097      0.0000 

REM Highest difference peak  1.032,  deepest hole -0.401,  1-sigma level  0.106
Q1    1   0.9832  0.0768  0.6032  11.00000  0.05    1.03
Q2    1   1.1131  0.1011  0.6000  11.00000  0.05    1.01
Q3    1   1.0362  0.2446  0.5997  11.00000  0.05    0.70
Q4    1   1.0632  0.1638  0.6431  11.00000  0.05    0.70

  REM The information below was added by Olex2.
  REM
  REM R1 = 0.0238 for 2513 Fo > 4sig(Fo) and 0.0301 for all 13994 data
  REM n/a parameters refined using n/a restraints
  REM Highest difference peak 1.03, deepest hole -0.40
  REM Mean Shift 0, Max Shift 0.000.

  REM +++ Tabular Listing of Refinement Information +++
  REM R1_all = 0.0301
  REM R1_gt = 0.0238
  REM wR_ref = 0.0458
  REM GOOF = 1.009
  REM Shift_max = 0.000
  REM Shift_mean = 0
  REM Reflections_all = 13994
  REM Reflections_gt = 2513
  REM Parameters = n/a
  REM Hole = -0.40
  REM Peak = 1.03
  REM Flack = 0.001(7)

  
;
_cod_data_source_file            d0cc04473c2.cif
_cod_data_source_block           90507a_a
_cod_depositor_comments
'Adding full bibliography for 7126979--7126980.cif.'
_cod_original_cell_volume        1889.6(4)
_cod_database_code               7126980
_shelx_shelxl_version_number     2014/7
_shelx_space_group_comment
;
The symmetry employed for this shelxl refinement is uniquely defined
by the following loop, which should always be used as a source of
symmetry information in preference to the above space-group names.
They are only intended as comments.
;
_olex2_refinement_description
;
1. Fixed Uiso
 At 1.2 times of:
  All C(H) groups, All N(H,H) groups
 At 1.5 times of:
  All C(H,H,H) groups
2. Restrained distances
 N1-C7 = N1-C8
 1.45 with sigma of 0.01
 N1-C7 \\sim N1-C8 \\sim N1'-C7' \\sim N1'-C8'
 with sigma of 0.01
 C7-C8 \\sim C7'-C8'
 with sigma of 0.02
3. Rigid bond restraints
 N1, C7, C8, N1', C7', C8'
 with sigma for 1-2 distances of 0.01 and sigma for 1-3 distances of 0.01
4. Uiso/Uaniso restraints and constraints
N1 \\sim C7 \\sim C8 \\sim N1' \\sim C7' \\sim C8': within 2A with sigma of
0.01 and sigma for terminal atoms of 0.02
5. Others
 Sof(N1')=Sof(H1'A)=Sof(H1'B)=Sof(C7')=Sof(H7'A)=Sof(H7'B)=Sof(H7'C)=Sof(C8')=
 Sof(H8'A)=Sof(H8'B)=Sof(H8'C)=1-FVAR(1)
 Sof(N1)=Sof(H1A)=Sof(H1B)=Sof(C7)=Sof(H7A)=Sof(H7B)=Sof(H7C)=Sof(C8)=Sof(H8A)=
 Sof(H8B)=Sof(H8C)=FVAR(1)
6.a Secondary CH2 refined with riding coordinates:
 N1(H1A,H1B), N1'(H1'A,H1'B)
6.b Me refined with riding coordinates:
 C7(H7A,H7B,H7C), C8(H8A,H8B,H8C)
6.c Aromatic/amide H refined with riding coordinates:
 C3(H3), C4(H4)
6.d Idealised Me refined as rotating group:
 C7'(H7'A,H7'B,H7'C), C8'(H8'A,H8'B,H8'C)
;
_olex2_submission_special_instructions 'No special instructions were received'
loop_
_space_group_symop_operation_xyz
'x, y, z'
'-y, x-y, z+1/3'
'-x+y, -x, z+2/3'
'-x, -y, z+1/2'
'y, -x+y, z+5/6'
'x-y, x, z+1/6'
loop_
_atom_site_label
_atom_site_type_symbol
_atom_site_fract_x
_atom_site_fract_y
_atom_site_fract_z
_atom_site_U_iso_or_equiv
_atom_site_adp_type
_atom_site_occupancy
_atom_site_site_symmetry_order
_atom_site_calc_flag
_atom_site_refinement_flags_posn
_atom_site_refinement_flags_adp
_atom_site_refinement_flags_occupancy
_atom_site_disorder_assembly
_atom_site_disorder_group
Pb1 Pb 1.06593(3) 0.16577(3) 0.59994(3) 0.02950(9) Uani 1 1 d . . . . .
S1 S 0.5777(3) 0.0844(3) 0.43433(13) 0.0413(5) Uani 1 1 d . . . . .
Cl1 Cl 1.2277(3) 0.2014(3) 0.71522(12) 0.0482(6) Uani 1 1 d . . . . .
O1 O 0.7911(10) 0.1312(10) 0.5422(4) 0.069(2) Uani 1 1 d . . . . .
C1 C 0.8208(11) 0.0787(10) 0.4969(4) 0.036(2) Uani 1 1 d . . . . .
O2 O 0.9339(7) 0.0599(8) 0.4930(3) 0.0497(18) Uani 1 1 d . . . . .
C2 C 0.7153(9) 0.0309(10) 0.4422(4) 0.035(2) Uani 1 1 d . . . . .
O3 O 0.3376(7) 0.0719(8) 0.3478(3) 0.0382(15) Uani 1 1 d . . . . .
C3 C 0.7164(12) -0.0504(12) 0.3922(5) 0.046(3) Uani 1 1 d . . . . .
H3 H 0.7852 -0.0863 0.3876 0.055 Uiso 1 1 calc R . . . .
C4 C 0.6037(10) -0.0748(13) 0.3480(5) 0.048(3) Uani 1 1 d . . . . .
H4 H 0.5867 -0.1329 0.3124 0.058 Uiso 1 1 calc R . . . .
O4 O 0.3429(8) -0.0934(8) 0.2819(3) 0.053(2) Uani 1 1 d . . . . .
C5 C 0.5216(10) -0.0040(10) 0.3631(4) 0.036(2) Uani 1 1 d . . . . .
C6 C 0.3909(10) -0.0084(10) 0.3293(4) 0.034(2) Uani 1 1 d . . . . .
N1 N 0.6044(18) 0.1241(16) 0.6502(8) 0.070(4) Uani 0.618(17) 1 d D U P A 1
H1A H 0.6351 0.1332 0.6893 0.084 Uiso 0.618(17) 1 calc R . P A 1
H1B H 0.6816 0.1333 0.6269 0.084 Uiso 0.618(17) 1 calc R . P A 1
C7 C 0.585(3) 0.253(2) 0.6367(11) 0.063(5) Uani 0.618(17) 1 d D U P A 1
H7A H 0.6796 0.3470 0.6444 0.094 Uiso 0.618(17) 1 calc R . P A 1
H7B H 0.5564 0.2497 0.5942 0.094 Uiso 0.618(17) 1 calc R . P A 1
H7C H 0.5054 0.2497 0.6626 0.094 Uiso 0.618(17) 1 calc R . P A 1
C8 C 0.479(3) -0.030(2) 0.6424(13) 0.077(7) Uani 0.618(17) 1 d D U P A 1
H8A H 0.5112 -0.1020 0.6533 0.115 Uiso 0.618(17) 1 calc R . P A 1
H8B H 0.3946 -0.0456 0.6685 0.115 Uiso 0.618(17) 1 calc R . P A 1
H8C H 0.4456 -0.0456 0.6001 0.115 Uiso 0.618(17) 1 calc R . P A 1
N1' N 0.540(3) 0.111(3) 0.6074(12) 0.067(5) Uani 0.382(17) 1 d D U P A 2
H1'A H 0.6098 0.0924 0.5902 0.081 Uiso 0.382(17) 1 calc R . P A 2
H1'B H 0.4640 0.0824 0.5803 0.081 Uiso 0.382(17) 1 calc R . P A 2
C7' C 0.610(6) 0.274(3) 0.616(2) 0.076(9) Uani 0.382(17) 1 d D U P A 2
H7'A H 0.7037 0.3253 0.5924 0.114 Uiso 0.382(17) 1 calc GR . P A 2
H7'B H 0.6331 0.2984 0.6589 0.114 Uiso 0.382(17) 1 calc GR . P A 2
H7'C H 0.5409 0.3077 0.6023 0.114 Uiso 0.382(17) 1 calc GR . P A 2
C8' C 0.479(6) 0.013(4) 0.6605(16) 0.083(11) Uani 0.382(17) 1 d D U P A 2
H8'A H 0.3697 -0.0529 0.6557 0.124 Uiso 0.382(17) 1 calc GR . P A 2
H8'B H 0.4991 0.0746 0.6969 0.124 Uiso 0.382(17) 1 calc GR . P A 2
H8'C H 0.5267 -0.0492 0.6645 0.124 Uiso 0.382(17) 1 calc GR . P A 2
loop_
_atom_site_aniso_label
_atom_site_aniso_U_11
_atom_site_aniso_U_22
_atom_site_aniso_U_33
_atom_site_aniso_U_23
_atom_site_aniso_U_13
_atom_site_aniso_U_12
Pb1 0.03490(18) 0.03169(17) 0.02197(13) -0.00066(14) 0.00313(15) 0.01669(15)
S1 0.0402(11) 0.0559(14) 0.0399(12) -0.0152(13) -0.0105(12) 0.0331(11)
Cl1 0.0404(13) 0.0539(16) 0.0427(15) -0.0022(12) -0.0080(11) 0.0179(12)
O1 0.077(6) 0.097(6) 0.055(5) -0.029(5) -0.019(4) 0.059(5)
C1 0.042(5) 0.031(5) 0.033(5) -0.003(4) -0.002(4) 0.016(4)
O2 0.033(4) 0.080(5) 0.038(4) 0.001(4) -0.006(3) 0.029(4)
C2 0.030(4) 0.043(5) 0.038(5) -0.002(4) -0.007(4) 0.022(4)
O3 0.035(3) 0.049(4) 0.036(4) -0.007(3) -0.004(3) 0.025(3)
C3 0.048(6) 0.056(6) 0.051(6) -0.015(5) -0.007(5) 0.039(5)
C4 0.039(6) 0.066(7) 0.050(6) -0.029(5) -0.017(5) 0.034(5)
O4 0.054(4) 0.065(5) 0.053(5) -0.024(4) -0.021(3) 0.039(4)
C5 0.026(5) 0.041(5) 0.043(6) -0.007(4) -0.008(4) 0.018(4)
C6 0.030(5) 0.038(5) 0.036(5) -0.005(4) -0.011(4) 0.020(4)
N1 0.068(8) 0.097(9) 0.048(9) 0.003(7) -0.014(7) 0.044(7)
C7 0.058(11) 0.090(10) 0.051(13) 0.010(9) 0.010(9) 0.045(9)
C8 0.087(12) 0.082(10) 0.063(14) 0.007(11) -0.019(12) 0.042(10)
N1' 0.062(10) 0.098(10) 0.050(11) 0.001(9) -0.011(9) 0.046(9)
C7' 0.069(15) 0.101(12) 0.065(18) 0.000(12) -0.002(14) 0.049(13)
C8' 0.075(14) 0.108(16) 0.046(15) 0.002(13) -0.025(13) 0.032(15)
loop_
_atom_type_symbol
_atom_type_description
_atom_type_scat_dispersion_real
_atom_type_scat_dispersion_imag
_atom_type_scat_source
C C 0.0033 0.0016 'International Tables Vol C Tables 4.2.6.8 and 6.1.1.4'
H H 0.0000 0.0000 'International Tables Vol C Tables 4.2.6.8 and 6.1.1.4'
Cl Cl 0.1484 0.1585 'International Tables Vol C Tables 4.2.6.8 and 6.1.1.4'
N N 0.0061 0.0033 'International Tables Vol C Tables 4.2.6.8 and 6.1.1.4'
O O 0.0106 0.0060 'International Tables Vol C Tables 4.2.6.8 and 6.1.1.4'
Pb Pb -3.3944 10.1111 'International Tables Vol C Tables 4.2.6.8 and 6.1.1.4'
S S 0.1246 0.1234 'International Tables Vol C Tables 4.2.6.8 and 6.1.1.4'
loop_
_geom_angle_atom_site_label_1
_geom_angle_atom_site_label_2
_geom_angle_atom_site_label_3
_geom_angle
_geom_angle_site_symmetry_1
_geom_angle_site_symmetry_3
_geom_angle_publ_flag
Cl1 Pb1 Cl1 89.63(5) . 5_664 ?
O2 Pb1 Cl1 161.96(16) . . ?
O2 Pb1 Cl1 78.09(17) 6_545 . ?
O2 Pb1 Cl1 73.57(15) . 5_664 ?
O2 Pb1 Cl1 88.87(18) 6_545 5_664 ?
O2 Pb1 O2 94.69(18) 6_545 . ?
O2 Pb1 O3 161.1(2) 6_545 6_655 ?
O2 Pb1 O3 73.1(2) . 6_655 ?
O2 Pb1 O3 73.3(2) 6_545 2_655 ?
O2 Pb1 O3 118.4(2) . 2_655 ?
O2 Pb1 O4 122.1(2) 6_545 2_655 ?
O3 Pb1 Cl1 75.75(15) 2_655 . ?
O3 Pb1 Cl1 74.07(15) 6_655 5_664 ?
O3 Pb1 Cl1 158.81(14) 2_655 5_664 ?
O3 Pb1 Cl1 109.14(16) 6_655 . ?
O3 Pb1 O3 124.96(15) 6_655 2_655 ?
O4 Pb1 Cl1 148.19(15) 2_655 5_664 ?
O4 Pb1 Cl1 90.06(18) 2_655 . ?
O4 Pb1 O2 107.7(2) 2_655 . ?
O4 Pb1 O3 76.0(2) 2_655 6_655 ?
O4 Pb1 O3 48.9(2) 2_655 2_655 ?
C2 S1 C5 92.0(4) . . ?
Pb1 Cl1 Pb1 81.29(6) . 6_545 ?
O1 C1 O2 124.0(9) . . ?
O1 C1 C2 119.3(9) . . ?
O2 C1 C2 116.7(8) . . ?
Pb1 O2 Pb1 98.7(2) 5_664 . ?
C1 O2 Pb1 148.6(6) . 5_664 ?
C1 O2 Pb1 101.2(6) . . ?
C1 C2 S1 121.7(7) . . ?
C3 C2 S1 110.9(7) . . ?
C3 C2 C1 127.3(8) . . ?
Pb1 O3 Pb1 93.11(18) 5_564 3_664 ?
C6 O3 Pb1 144.7(6) . 5_564 ?
C6 O3 Pb1 90.8(5) . 3_664 ?
C2 C3 H3 123.2 . . ?
C2 C3 C4 113.6(8) . . ?
C4 C3 H3 123.2 . . ?
C3 C4 H4 123.6 . . ?
C5 C4 C3 112.8(9) . . ?
C5 C4 H4 123.6 . . ?
C6 O4 Pb1 95.3(5) . 3_664 ?
C4 C5 S1 110.7(7) . . ?
C4 C5 C6 128.2(9) . . ?
C6 C5 S1 120.9(7) . . ?
O3 C6 O4 124.1(8) . . ?
O3 C6 C5 118.9(8) . . ?
O4 C6 C5 116.9(8) . . ?
H1A N1 H1B 106.9 . . ?
C7 N1 H1A 107.2 . . ?
C7 N1 H1B 107.2 . . ?
C7 N1 C8 120.3(19) . . ?
C8 N1 H1A 107.2 . . ?
C8 N1 H1B 107.2 . . ?
N1 C7 H7A 109.5 . . ?
N1 C7 H7B 109.5 . . ?
N1 C7 H7C 109.5 . . ?
H7A C7 H7B 109.5 . . ?
H7A C7 H7C 109.5 . . ?
H7B C7 H7C 109.5 . . ?
N1 C8 H8A 109.5 . . ?
N1 C8 H8B 109.5 . . ?
N1 C8 H8C 109.5 . . ?
H8A C8 H8B 109.5 . . ?
H8A C8 H8C 109.5 . . ?
H8B C8 H8C 109.5 . . ?
H1'A N1' H1'B 107.1 . . ?
C7' N1' H1'A 107.7 . . ?
C7' N1' H1'B 107.7 . . ?
C7' N1' C8' 118(2) . . ?
C8' N1' H1'A 107.7 . . ?
C8' N1' H1'B 107.7 . . ?
N1' C7' H7'A 109.5 . . ?
N1' C7' H7'B 109.5 . . ?
N1' C7' H7'C 109.5 . . ?
H7'A C7' H7'B 109.5 . . ?
H7'A C7' H7'C 109.5 . . ?
H7'B C7' H7'C 109.5 . . ?
N1' C8' H8'A 109.5 . . ?
N1' C8' H8'B 109.5 . . ?
N1' C8' H8'C 109.5 . . ?
H8'A C8' H8'B 109.5 . . ?
H8'A C8' H8'C 109.5 . . ?
H8'B C8' H8'C 109.5 . . ?
loop_
_geom_bond_atom_site_label_1
_geom_bond_atom_site_label_2
_geom_bond_distance
_geom_bond_site_symmetry_2
_geom_bond_publ_flag
Pb1 Cl1 3.070(3) 5_664 ?
Pb1 Cl1 2.902(3) . ?
Pb1 O2 2.617(7) . ?
Pb1 O2 2.513(7) 6_545 ?
Pb1 O3 2.721(6) 2_655 ?
Pb1 O3 2.639(6) 6_655 ?
Pb1 O4 2.609(6) 2_655 ?
S1 C2 1.722(8) . ?
S1 C5 1.728(10) . ?
Cl1 Pb1 3.070(3) 6_545 ?
O1 C1 1.220(12) . ?
C1 O2 1.243(11) . ?
C1 C2 1.499(13) . ?
O2 Pb1 2.513(7) 5_664 ?
C2 C3 1.360(13) . ?
O3 Pb1 2.639(6) 5_564 ?
O3 Pb1 2.721(6) 3_664 ?
O3 C6 1.235(10) . ?
C3 H3 0.9300 . ?
C3 C4 1.406(14) . ?
C4 H4 0.9300 . ?
C4 C5 1.370(13) . ?
O4 Pb1 2.609(6) 3_664 ?
O4 C6 1.266(10) . ?
C5 C6 1.483(12) . ?
N1 H1A 0.8900 . ?
N1 H1B 0.8900 . ?
N1 C7 1.436(10) . ?
N1 C8 1.436(10) . ?
C7 H7A 0.9600 . ?
C7 H7B 0.9600 . ?
C7 H7C 0.9600 . ?
C8 H8A 0.9600 . ?
C8 H8B 0.9600 . ?
C8 H8C 0.9600 . ?
N1' H1'A 0.8900 . ?
N1' H1'B 0.8900 . ?
N1' C7' 1.435(14) . ?
N1' C8' 1.438(14) . ?
C7' H7'A 0.9600 . ?
C7' H7'B 0.9600 . ?
C7' H7'C 0.9600 . ?
C8' H8'A 0.9600 . ?
C8' H8'B 0.9600 . ?
C8' H8'C 0.9600 . ?
loop_
_refln_index_h
_refln_index_k
_refln_index_l
_refln_F_squared_meas
_refln_F_squared_sigma
0 -1 0 9447.15 493.55
0 -1 0 9364.06 493.55
-1 1 0 9999 493.05
0 1 0 9859.61 494.25
1 -1 0 9667.83 492.75
-1 0 0 9299.47 493.85
-1 0 0 9586.84 493.55
-2 1 0 244.18 16.8
-2 1 0 244.78 16.4
1 -2 0 243.58 14.4
-1 2 0 247.28 17
-1 -1 0 240.38 14.3
2 -1 0 241.18 15.4
-2 2 0 1757.32 91.59
0 -2 0 1742.33 94.89
0 -2 0 1807.72 95.09
-2 0 0 1781.02 95.79
0 2 0 1806.22 92.79
2 -2 0 1650.63 94.89
-2 0 0 1806.42 92.79
1 2 0 792.72 43
-3 1 0 774.22 46.6
-3 1 0 769.72 44.8
-1 -2 0 739.53 47.6
-1 -2 0 815.02 45.6
-2 3 0 873.21 43.5
-2 3 0 744.13 46.3
1 -3 0 2039.4 115.09
1 -3 0 2059.79 111.69
-3 2 0 2092.69 111.89
-3 2 0 2155.18 113.59
-1 3 0 2182.88 112.89
3 -2 0 2209.28 113.19
-2 -1 0 2070.59 110.59
-3 3 0 929.11 50.59
0 -3 0 930.31 55.89
0 -3 0 967.3 55.59
3 -3 0 909.21 55.49
-3 0 0 949.31 56.49
-3 0 0 991.3 52.39
0 3 0 961.4 52.39
3 -4 0 1168.28 72.79
1 3 0 1223.78 66.69
-4 1 0 1175.78 71.39
-4 1 0 1186.58 68.39
-3 4 0 1397.46 65.59
-1 -3 0 1207.18 70.09
-1 -3 0 1206.28 72.69
2 2 0 842.52 46.7
-4 2 0 876.91 50.59
-4 2 0 915.71 50.89
2 -4 0 851.91 46.5
-2 4 0 759.92 50.19
-2 -2 0 855.41 53.39
-2 -2 0 895.61 49
4 -2 0 866.11 48.6
1 -4 0 1435.86 79.89
-4 3 0 1463.65 78.69
-4 3 0 1475.25 82.69
4 -3 0 1492.45 81.69
-3 -1 0 1426.46 77.69
-1 4 0 1421.16 80.09
-4 4 0 1123.69 58.59
-4 4 0 1148.89 66.29
0 -4 0 1126.19 65.29
0 -4 0 981.2 64.59
-4 0 0 1077.09 60.79
-4 0 0 1059.69 66.49
0 4 0 1124.79 61.29
4 -4 0 1081.79 65.49
-5 1 0 33 8.7
4 -5 0 22.2 11.9
-5 1 0 28.2 11.8
1 4 0 26.9 7.1
-1 -4 0 27.4 12.7
-1 -4 0 23.3 10.4
-4 5 0 31 11
2 3 0 450.35 26.8
-5 2 0 437.56 30.2
-2 -3 0 432.56 30.2
-3 5 0 442.66 32.6
-2 -3 0 389.76 35.2
-5 3 0 1010.9 58.39
2 -5 0 976 61.79
-5 3 0 928.81 56.29
2 -5 0 961.4 53.49
-3 -2 0 999.2 54.49
-3 -2 0 941.21 53.19
-2 5 0 951.4 57.69
5 -3 0 909.41 55.49
-5 4 0 2319.47 120.69
1 -5 0 2216.18 123.09
1 -5 0 2159.58 127.29
-4 -1 0 2284.77 120.39
-4 -1 0 2291.37 128.69
5 -4 0 2271.87 125.19
0 -5 0 918.31 57.69
-5 5 0 882.41 47.6
-5 5 0 857.51 56.29
0 -5 0 863.31 55.79
5 -5 0 865.61 56.89
-5 0 0 792.12 57.89
-5 0 0 894.91 51.09
5 -6 0 46.5 15.4
-6 1 0 97.29 18.8
-6 1 0 85.79 12.7
-1 -5 0 54.29 14.9
-5 6 0 61.79 15.4
-1 -5 0 88.19 18
-6 2 0 1072.79 62.59
4 -6 0 1075.39 69.19
-6 2 0 1099.69 66.49
-2 -4 0 1029.7 68.39
-2 -4 0 1008 63.29
-4 6 0 1033.7 65.49
3 -6 0 211.78 14.6
3 -6 0 285.47 27
-6 3 0 199.88 21.6
-6 3 0 161.08 20.1
-3 6 0 203.68 22.6
-3 -3 0 185.88 24.7
-6 4 0 335.77 29.1
2 -6 0 336.67 23.8
-6 4 0 332.57 25.3
2 -6 0 320.87 32.4
-4 -2 0 345.07 22.8
-2 6 0 315.47 27.7
6 -4 0 261.77 25.2
1 -6 0 250.67 23
-6 5 0 239.58 19.2
1 -6 0 250.97 29.2
-5 -1 0 279.97 31.2
-5 -1 0 230.48 19.3
-1 6 0 247.88 23.3
6 -5 0 245.38 25.4
0 -6 0 307.87 31.8
0 -6 0 271.87 29.1
-6 6 0 301.47 19.9
0 6 0 299.47 25.6
6 -6 0 340.77 32.5
-6 0 0 286.37 33.7
-6 0 0 340.67 24.9
6 -7 0 258.87 32.1
1 6 0 272.17 23.1
-7 1 0 240.68 22.9
-7 1 0 244.08 31.7
-1 -6 0 233.78 29.6
-1 -6 0 237.08 29.5
-6 7 0 202.78 27.5
-7 2 0 1933.01 105.79
2 5 0 1806.22 102.09
-7 2 0 1907.91 110.69
5 -7 0 1978.1 113.69
-2 -5 0 1898.01 108.49
-2 -5 0 1767.22 111.99
-5 7 0 1832.32 109.39
-7 3 0 2873.31 155.68
3 4 0 2814.12 151.58
-7 3 0 2829.42 153.78
-4 7 0 2813.22 155.98
-3 -4 0 2788.32 152.98
-3 -4 0 2644.94 159.68
-7 4 0 613.74 44.2
-7 4 0 643.44 42.8
3 -7 0 601.04 36.3
4 3 0 605.44 37.2
3 -7 0 625.84 48.6
-3 7 0 603.14 43.9
7 -4 0 598.24 40.5
2 -7 0 36.6 16.6
2 -7 0 48.7 11.2
-7 5 0 65.49 12.3
-7 5 0 70.89 16.6
-2 7 0 35.2 13.7
7 -5 0 57.99 13.9
-5 -2 0 67.19 11.3
1 -7 0 627.94 43.9
1 -7 0 622.24 51.39
7 -6 0 664.23 47.3
-6 -1 0 638.84 40.6
-6 -1 0 628.24 53.19
-1 7 0 602.74 43.8
0 -7 0 373.26 37
0 -7 0 519.25 43.8
-7 7 0 431.06 46.1
7 -7 0 495.55 42.8
-7 0 0 500.65 46.5
-7 0 0 417.96 32.1
0 7 0 417.06 34.2
7 -8 0 5 16.9
-8 1 0 3.6 17.9
-8 1 0 -1.4 10.2
1 7 0 12 11.1
-1 -7 0 14.7 16.6
-1 -7 0 -0.3 15.5
-7 8 0 21.5 17.7
2 6 0 1010.8 58.09
-8 2 0 976.8 68.29
-8 2 0 895.01 59.99
6 -8 0 949.31 69.69
-6 8 0 930.51 65.89
-2 -6 0 985.6 65.39
-2 -6 0 957.2 68.49
3 5 0 2982.1 158.78
-8 3 0 3000.5 167.58
-8 3 0 2977.4 163.68
-3 -5 0 2823.22 171.08
-5 8 0 3072.89 167.48
-3 -5 0 2944.21 164.58
-8 4 0 2246.08 127.69
4 4 0 2249.07 121.19
-8 4 0 2246.88 127.99
-4 -4 0 2147.39 134.79
-4 -4 0 2225.98 125.19
-4 8 0 2325.57 129.59
3 -8 0 381.66 43.1
-8 5 0 458.95 39
-8 5 0 435.96 35.2
5 3 0 410.56 29.6
3 -8 0 420.86 29.2
-3 8 0 449.86 37.7
-5 -3 0 473.05 33
8 -5 0 433.16 34.3
2 -8 0 133.49 17.5
-8 6 0 85.79 20.6
2 -8 0 134.79 26.5
8 -6 0 118.89 20
-6 -2 0 113.19 27.9
-2 8 0 117.49 20.4
-6 -2 0 115.29 15.6
1 -8 0 552.84 49
-8 7 0 467.05 43.8
1 -8 0 529.45 40.6
-7 -1 0 499.85 35.6
-7 -1 0 508.05 51.79
8 -7 0 510.65 44.4
-1 8 0 478.55 40.2
0 -8 0 282.37 32.9
-8 8 0 256.87 34.4
0 -8 0 334.07 39.1
-8 0 0 301.67 27.9
0 8 0 316.97 31.8
-8 0 0 285.27 40.5
8 -8 0 264.37 35.2
8 -9 0 10.3 21.2
-9 1 0 37.8 14.5
-9 1 0 0.6 20.1
-1 -8 0 22.4 18.4
-8 9 0 5.7 18
-1 -8 0 47.5 20.8
-9 2 0 131.29 29.8
7 -9 0 162.48 30.2
-9 2 0 149.49 21.6
-2 -7 0 169.18 27.7
-7 9 0 107.09 25.7
-2 -7 0 149.49 28.2
-9 3 0 859.31 64.19
-9 3 0 773.12 57.09
6 -9 0 925.61 67.69
-3 -6 0 799.82 65.39
-3 -6 0 842.72 59.49
-6 9 0 867.41 62.09
5 -9 0 1650.93 105.79
-9 4 0 1485.45 95.79
-9 4 0 1716.83 99.69
-5 9 0 1675.03 99.59
-4 -5 0 1474.85 104.29
-4 -5 0 1620.24 95.99
4 -9 0 551.74 53.19
-9 5 0 481.65 42.4
-9 5 0 529.75 44.1
-5 -4 0 566.34 53.69
-4 9 0 519.95 44.6
6 3 0 -0.5 9.9
-9 6 0 -6 15.5
3 -9 0 37.8 21.6
-6 -3 0 4.3 18.5
-3 9 0 11.5 15.3
9 -6 0 -6.1 11.7
2 -9 0 446.26 47.2
-9 7 0 288.47 38.4
-7 -2 0 378.76 30.4
9 -7 0 422.06 39
-2 9 0 400.96 38.4
-7 -2 0 458.75 50.99
1 -9 0 513.25 42.8
1 -9 0 556.04 52.49
-9 8 0 399.46 45.7
-8 -1 0 518.35 38.3
-8 -1 0 458.75 54.59
-1 9 0 561.84 44.8
9 -8 0 541.95 46.8
-9 9 0 174.78 31.2
0 -9 0 180.88 32.1
0 -9 0 106.99 24.1
-9 0 0 136.09 34.2
9 -9 0 116.59 27.5
-9 0 0 162.58 22
9 -10 0 108.39 28.8
-10 1 0 72.09 29.9
-10 1 0 79.19 18.9
-1 -9 0 94.19 26.6
-1 -9 0 41.2 21.2
-9 10 0 94.39 26.3
-10 2 0 34.3 16.6
8 -10 0 50.39 27.1
-10 2 0 18.4 23.3
-2 -8 0 16.2 19.8
-8 10 0 16.7 20.6
-2 -8 0 26.8 20.6
-10 3 0 1.2 19.8
7 -10 0 27 22.9
-10 3 0 30.4 15.9
-7 10 0 6.6 19.1
-3 -7 0 21.7 17.6
-3 -7 0 -1.4 20.5
-10 4 0 118.09 23.2
-10 4 0 114.29 25.9
6 -10 0 124.39 30.2
-4 -6 0 162.58 32.2
-6 10 0 111.49 24.6
5 -10 0 108.99 29
-10 5 0 105.59 22.7
-5 10 0 112.79 24.6
-5 -5 0 110.69 31.2
4 -10 0 9.5 23.5
-10 6 0 7.1 16.7
-4 10 0 11.4 17.5
-6 -4 0 1.8 22.4
3 -10 0 103.99 28.9
-10 7 0 63.59 23
10 -7 0 92.29 20.8
-7 -3 0 64.29 28.3
-3 10 0 55.99 20.5
2 -10 0 16.9 23.7
-10 8 0 92.89 24.8
-8 -2 0 44.6 28.6
10 -8 0 68.49 20.7
-2 10 0 45.1 19.1
1 -10 0 48.7 25.8
-10 9 0 9.1 20.6
-9 -1 0 24.7 28.4
10 -9 0 32.2 20.3
-10 10 0 29.1 23.4
0 -10 0 -4.6 23.2
10 -10 0 32.6 22.4
-10 0 0 21 28.2
-11 1 0 8.5 27.2
10 -11 0 2.5 23.1
-10 11 0 17.5 24.1
-1 -10 0 19 20.4
-1 -10 0 -12.5 23.7
9 -11 0 69.09 29.8
-11 2 0 93.49 30.8
-11 2 0 104.29 22.9
-9 11 0 104.19 29.9
-2 -9 0 109.19 28.4
8 -11 0 117.99 33.4
-11 3 0 133.39 31.6
-11 3 0 104.79 22.9
-3 -8 0 154.38 31.5
-8 11 0 146.79 31.5
7 -11 0 50.09 27.5
-11 4 0 6.8 19.4
-11 4 0 14.7 18.2
-7 11 0 52.99 23.9
-4 -7 0 32.1 25
-11 5 0 57.59 21.3
6 -11 0 44.2 25.7
-6 11 0 35.2 21.3
-5 -6 0 44.6 27.5
5 -11 0 47.3 27.8
-11 6 0 73.29 22.4
-5 11 0 65.99 24
-6 -5 0 80.99 31
4 -11 0 276.27 42.7
-11 7 0 208.48 33.6
-4 11 0 249.08 34.4
-7 -4 0 212.88 41.2
3 -11 0 70.49 29.9
-11 8 0 55.19 25.2
11 -8 0 49 20.3
-3 11 0 71.29 22.2
-8 -3 0 112.89 33.4
-11 9 0 -26.3 18.2
2 -11 0 -26.5 23
-9 -2 0 -11.7 26.4
11 -9 0 -12.8 16.1
1 -11 0 71.69 32
-11 10 0 119.19 32.5
-10 -1 0 118.79 37.3
11 -10 0 117.19 28.6
0 -11 0 71.29 31.3
-11 11 0 30.9 26.8
-11 0 0 25.3 30.2
11 -11 0 12.8 24
-12 2 0 157.78 38.7
10 -12 0 66.99 30.7
-10 12 0 96.29 32
-2 -10 0 58.19 27.1
9 -12 0 176.08 41.8
-12 3 0 201.08 38.9
-12 3 0 152.88 28.4
-9 12 0 205.58 36.5
-3 -9 0 144.09 33.7
8 -12 0 209.88 42
-12 4 0 177.18 30
-4 -8 0 185.78 37.3
-8 12 0 161.08 33.9
-12 5 0 142.19 28.5
7 -12 0 109.59 35.2
-7 12 0 164.88 33.3
-5 -7 0 147.89 36
-12 6 0 209.78 33.8
6 -12 0 298.37 46.8
-6 12 0 244.08 37
-6 -6 0 306.17 47.9
-12 7 0 228.38 35.7
5 -12 0 297.97 46.9
-5 12 0 232.98 35.9
-7 -5 0 369.26 51.99
-12 8 0 60.49 25.9
4 -12 0 10 29
-8 -4 0 70.99 34.3
-12 9 0 26.3 24.1
3 -12 0 23.7 28.8
-9 -3 0 44.9 34.1
-12 10 0 462.35 56.69
2 -12 0 533.75 62.69
12 -10 0 493.55 50.79
-10 -2 0 507.25 65.99
-13 6 0 17.9 21.7
7 -13 0 16.8 31.8
-6 -7 0 5.9 28
-7 13 0 21.6 24.2
-13 7 0 50.09 25.3
6 -13 0 90.79 37.4
-7 -6 0 69.69 35.5
-6 13 0 63.29 27.8
-1 0 -1 3898.71 196.18
0 1 -1 3931.81 194.78
1 -1 -1 3851.31 195.68
1 -1 -1 3819.42 193.88
-1 0 -1 3950.1 194.38
-1 1 1 3650.83 193.68
0 -1 1 3464.95 195.28
-1 1 1 3818.62 195.38
1 0 1 3680.63 194.48
0 -1 1 3708.13 195.38
0 -1 -1 3877.21 195.18
0 -1 -1 3977.6 196.38
0 -1 -1 3832.12 196.28
-1 0 1 3686.53 196.98
0 1 1 3607.64 195.18
-1 -1 -1 3114.19 154.38
2 -1 -1 3023.6 155.68
-1 2 -1 2953.2 156.68
1 -2 1 2866.11 157.88
1 -2 1 3025.7 154.98
-2 1 1 2969 156.48
-2 -1 -1 2038.2 107.99
3 -2 -1 1990.8 110.59
-1 3 -1 2090.19 110.69
1 -3 1 2072.29 109.49
-3 2 1 2155.98 109.79
1 -3 1 2090.99 113.09
-2 0 -1 6435.66 327.87
2 -2 -1 6250.77 326.37
2 -2 -1 5971.6 330.07
0 2 -1 6583.54 328.37
-2 0 -1 6332.37 330.77
-2 2 1 6565.44 326.67
0 -2 1 6298.37 329.97
0 -2 1 6458.35 330.27
-2 1 -1 3110.99 154.48
-2 1 -1 3003.5 154.28
1 -2 -1 2899.51 152.58
-1 2 1 2947.61 154.28
2 -1 1 2954.6 153.58
-1 -1 1 3004.8 153.08
-1 2 1 2765.62 152.38
-1 -1 1 2950.9 153.18
0 -2 -1 6496.55 340.27
0 -2 -1 6292.07 339.77
-2 2 -1 6588.54 337.37
0 2 1 6883.51 338.17
-2 0 1 6572.14 341.17
2 -2 1 6547.44 340.57
-2 0 1 6553.94 338.47
-1 -2 -1 1565.84 85.29
3 -1 -1 1616.94 80.59
-1 -2 -1 1650.53 82.99
-2 3 -1 1576.34 84.09
1 2 1 1475.15 79.99
-3 1 1 1414.06 83.59
-3 1 1 1398.26 82.19
4 -2 -1 292.87 19.9
-2 -2 -1 271.87 25.3
2 -4 1 293.57 18.1
-4 2 1 276.37 22
2 2 1 293.27 17.7
-4 2 1 287.27 21.4
-3 -2 -1 1364.06 72.29
-2 5 -1 1386.96 77.59
5 -3 -1 1316.77 75.09
2 -5 1 1235.68 80.09
-5 3 1 1371.06 75.69
-5 3 1 1353.06 77.39
2 -5 1 1334.67 72.99
4 -3 -1 272.17 20.4
-1 4 -1 278.47 18.9
1 -4 1 182.28 16.8
-4 3 1 174.08 15.9
-3 0 -1 1658.53 82.19
0 3 -1 1651.63 82.79
3 -3 -1 1598.04 86.19
-3 0 -1 1585.54 86.49
3 -3 -1 1647.94 79.49
-3 3 1 1450.25 79.99
0 -3 1 1290.37 84.29
0 -3 1 1360.26 84.99
-3 1 -1 1606.84 80.69
2 -3 -1 1511.75 83.39
-3 1 -1 1530.55 82.29
1 2 -1 1629.44 79.09
-2 3 1 1336.97 76.79
-2 3 1 1456.55 81.69
-1 -2 1 1423.46 83.29
-1 -2 1 1446.96 80.69
-3 2 -1 2122.99 111.69
1 -3 -1 2065.79 109.79
1 -3 -1 2018.9 112.89
-3 2 -1 1995.7 109.89
-2 -1 1 2126.39 108.89
3 -2 1 2092.99 110.59
-1 3 1 2077.19 110.59
0 -3 -1 1599.14 83.89
-3 3 -1 1673.73 79.69
0 -3 -1 1648.44 84.59
-3 0 1 1326.97 84.39
3 -3 1 1459.85 84.39
0 3 1 1449.46 80.79
-3 0 1 1389.06 80.79
-1 -3 -1 176.08 16.5
-3 4 -1 157.68 17.3
-1 -3 -1 205.48 19.8
3 -4 1 129.09 17.1
-4 1 1 157.88 14.5
-4 1 1 131.19 16.6
1 3 1 138.69 11.9
-2 -3 -1 1369.76 83.69
-3 5 -1 1384.06 81.19
-5 2 1 1461.75 79.69
2 3 1 1402.16 75.39
6 -3 -1 1290.47 71.39
-3 6 -1 1378.06 76.39
-3 -3 -1 1309.07 79.99
3 -6 1 1173.08 79.19
3 3 1 1256.87 68.79
3 -6 1 1219.28 68.29
-6 3 1 1270.27 74.59
7 -4 -1 1927.21 103.29
-3 7 -1 1955.1 107.39
-4 -3 -1 1892.71 103.09
-4 -3 -1 1944.51 113.59
-7 4 1 1753.62 106.19
-7 4 1 1855.81 106.69
3 -7 1 1744.13 99.39
3 -7 1 1763.32 111.79
-2 6 -1 1175.98 68.79
-4 -2 -1 1132.89 63.29
6 -4 -1 1058.69 66.69
-6 4 1 1184.08 66.39
-6 4 1 1228.58 70.49
2 -6 1 1121.39 64.69
2 -6 1 1132.99 72.79
5 -4 -1 408.56 31.1
-4 -1 -1 400.76 34.6
-4 -1 -1 391.26 25.1
-1 5 -1 400.86 28.6
1 -5 1 392.36 28.4
1 -5 1 375.66 33
-5 4 1 397.06 25.9
-4 0 -1 28.9 11.9
4 -4 -1 26.7 10.1
-4 0 -1 21.3 6
0 4 -1 16.1 6.7
-4 4 1 21.2 9.6
0 -4 1 8.8 6.8
0 -4 1 22.9 9.6
-4 4 1 14.6 4
-4 1 -1 208.78 16.5
3 -4 -1 215.28 21.6
1 3 -1 208.48 15
-1 -3 1 167.18 20.4
-1 -3 1 165.18 18
2 2 -1 288.57 18.6
-4 2 -1 285.27 22.1
-4 2 -1 319.07 22.7
2 -4 -1 271.97 17.7
-2 -2 1 288.77 20.4
-2 -2 1 284.87 25.1
-2 4 1 296.37 22.9
1 -4 -1 246.18 22.2
-4 3 -1 272.47 17.7
-4 3 -1 289.87 20.9
1 -4 -1 268.17 19.2
4 -3 1 162.48 18
-3 -1 1 182.28 15.3
-1 4 1 150.68 17.2
0 -4 -1 6.8 8.9
-4 4 -1 21.6 5.5
0 -4 -1 11.2 9.3
4 -4 1 24.5 10.1
-4 0 1 7.6 10.4
0 4 1 28.5 7.4
-4 0 1 24.2 6.8
-4 5 -1 1431.06 90.89
-1 -4 -1 1449.35 90.19
-4 5 -1 1466.65 83.39
-1 -4 -1 1464.25 92.19
4 -5 1 1792.72 94.69
-5 1 1 1744.23 88.79
-5 1 1 1764.22 93.79
1 4 1 1707.53 86.19
-4 6 -1 1321.07 75.89
-2 -4 -1 1279.27 73.29
-2 -4 -1 1266.67 78.09
2 4 1 1237.88 68.09
-6 2 1 1200.28 71.99
-6 2 1 1146.59 74.59
-4 7 -1 841.82 60.69
-3 -4 -1 869.41 65.09
-3 -4 -1 999.6 59.09
-7 3 1 960.9 61.39
-7 3 1 991.8 59.79
-4 -4 -1 588.24 41.8
-4 8 -1 567.14 46.2
-4 -4 -1 541.15 51.29
-8 4 1 596.34 44.8
4 -8 1 564.94 49.8
-8 4 1 556.84 43.3
4 4 1 578.64 36.6
-4 9 -1 746.73 54.59
-5 -4 -1 803.02 51.79
-5 -4 -1 795.22 63.99
4 -9 1 597.54 59.19
-9 5 1 677.23 53.09
-9 5 1 649.34 52.59
-5 -3 -1 1144.29 71.59
-3 8 -1 1121.59 76.29
8 -5 -1 1106.39 72.89
-8 5 1 1334.67 74.69
3 -8 1 1256.67 69.79
-8 5 1 1259.07 78.19
5 3 1 1338.37 69.39
3 -8 1 1236.78 84.49
7 -5 -1 1025.7 62.19
-2 7 -1 995.8 62.79
-5 -2 -1 1068.89 56.99
-7 5 1 969.9 58.49
2 -7 1 930.41 58.09
-7 5 1 965.9 64.29
2 -7 1 889.11 67.09
-5 -1 -1 268.37 30.2
-5 -1 -1 219.58 16.9
-1 6 -1 241.68 22.1
6 -5 -1 233.18 23.9
-6 5 1 147.29 15.4
1 -6 1 138.29 18.7
1 -6 1 111.99 21.8
0 5 -1 1042.1 60.39
-5 0 -1 1031.5 59.09
-5 0 -1 1013.2 67.29
5 -5 -1 1022.6 65.09
-5 5 1 1023 64.99
0 -5 1 1090.69 64.59
0 -5 1 1064.59 66.09
4 -5 -1 1463.95 88.99
-5 1 -1 1431.76 82.79
-5 1 -1 1472.85 88.29
-1 -4 1 1680.93 89.69
-1 -4 1 1371.16 85.59
-4 5 1 1646.44 87.79
2 3 -1 1395.56 75.49
-5 2 -1 1351.76 78.29
-2 -3 1 1436.56 78.49
-3 5 1 1345.07 80.09
-2 -3 1 1422.76 83.89
2 -5 -1 1332.67 72.89
-5 3 -1 1394.66 76.09
-5 3 -1 1373.06 77.49
2 -5 -1 1301.57 80.19
-3 -2 1 1326.37 72.99
-2 5 1 1281.37 76.19
-3 -2 1 1382.96 73.79
5 -3 1 1294.87 75.09
-5 4 -1 391.46 30.8
1 -5 -1 378.36 32
1 -5 -1 399.76 28.3
-5 4 -1 354.86 24.9
5 -4 1 346.97 28.9
-4 -1 1 343.07 32.9
-4 -1 1 351.16 24.3
-5 5 -1 1070.09 58.29
0 -5 -1 996.4 66.09
0 -5 -1 1009.7 65.19
5 -5 1 1162.68 67.89
-5 0 1 1048.5 60.89
-5 0 1 1128.39 69.49
-5 6 -1 2324.77 124.39
-1 -5 -1 2418.26 124.29
-1 -5 -1 2381.06 126.09
-5 6 -1 2274.67 113.59
-6 1 1 1933.91 118.39
5 -6 1 1975 124.69
-6 1 1 1921.91 124.09
-2 -5 -1 1385.66 86.99
-2 -5 -1 1462.75 83.29
-5 7 -1 1418.26 84.79
5 -7 1 1332.67 86.29
-7 2 1 1319.67 85.09
-7 2 1 1296.77 79.99
-5 8 -1 136.59 22.5
-3 -5 -1 118.69 19.5
-3 -5 -1 83.89 23.5
-8 3 1 79.59 20.7
-8 3 1 117.19 19.6
3 5 1 96.99 13.4
-4 -5 -1 125.59 28.8
-4 -5 -1 173.98 23.6
-5 9 -1 172.98 27.3
-9 4 1 167.48 24.8
-9 4 1 141.79 24
5 -9 1 131.19 27.4
-5 10 -1 475.15 47.5
-5 -5 -1 487.75 54.39
5 -10 1 467.45 51.99
-10 5 1 555.84 45.8
-5 11 -1 81.69 23.5
-6 -5 -1 85.89 31.8
-11 6 1 82.49 24.3
5 -11 1 76.39 29.6
-4 10 -1 294.27 36.4
-6 -4 -1 363.76 47.6
4 -10 1 281.67 42.5
-10 6 1 317.37 37.7
9 -6 -1 649.93 45.2
-6 -3 -1 602.34 57.09
-3 9 -1 634.84 48.4
-9 6 1 472.95 47.3
3 -9 1 575.04 55.99
-2 8 -1 411.56 40.8
8 -6 -1 499.45 41.3
-6 -2 -1 535.65 35.5
-6 -2 -1 476.85 50.19
-8 6 1 624.34 46.1
2 -8 1 565.44 38
2 -8 1 631.04 51.19
7 -6 -1 67.79 17
-1 7 -1 85.89 16.2
-6 -1 -1 81.49 12.2
-6 -1 -1 79.29 21.3
1 -7 1 57.19 14.5
1 -7 1 75.59 19.8
-6 0 -1 618.84 49.3
0 6 -1 664.13 42.8
-6 0 -1 637.84 40.9
6 -6 -1 699.63 48.9
0 -6 1 658.13 46.4
-6 6 1 611.44 47.5
0 -6 1 648.74 48.8
1 5 -1 2303.37 119.39
-6 1 -1 2383.86 120.59
5 -6 -1 2418.46 128.09
-6 1 -1 2624.14 129.29
-1 -5 1 1977.1 123.69
-5 6 1 1814.62 123.29
-1 -5 1 1932.61 124.69
-6 2 -1 1252.67 74.99
4 -6 -1 1237.28 77.19
-6 2 -1 1241.08 70.99
-4 6 1 1192.68 73.69
-2 -4 1 1171.38 71.99
-2 -4 1 1221.58 77.09
3 -6 -1 1332.57 69.09
-6 3 -1 1282.47 76.09
-6 3 -1 1358.96 76.59
-3 -3 1 1238.58 73.39
-3 -3 1 1263.97 81.19
-3 6 1 1258.47 76.39
2 -6 -1 1097.89 72.49
2 -6 -1 1099.89 63.89
-6 4 -1 1116.99 65.49
-6 4 -1 1064.49 68.09
6 -4 1 1133.79 66.89
-4 -2 1 1120.79 63.39
-2 6 1 1139.19 67.29
-4 -2 1 1204.28 63.59
1 -6 -1 196.08 24.8
-6 5 -1 218.88 27
1 -6 -1 256.27 22.5
-6 5 -1 200.98 17.3
-1 6 1 170.58 20
-5 -1 1 143.89 16.2
6 -5 1 108.49 18.5
-5 -1 1 126.99 23.3
0 -6 -1 663.43 48.2
0 -6 -1 602.74 45.8
-6 6 -1 630.64 37
-6 0 1 649.83 50.99
6 -6 1 598.24 47.8
0 6 1 647.74 42
-6 0 1 673.33 41.4
-6 7 -1 1302.47 79.29
-1 -6 -1 1270.07 80.19
-1 -6 -1 1286.47 78.89
-7 1 1 1180.08 80.89
1 6 1 1190.68 71.39
6 -7 1 1250.27 81.59
-7 1 1 1225.78 73.09
-2 -6 -1 819.32 55.69
-6 8 -1 769.42 56.19
-2 -6 -1 737.03 58.89
-8 2 1 751.72 58.59
-8 2 1 749.13 50.29
6 -8 1 815.52 60.69
2 6 1 676.13 46.3
-3 -6 -1 596.54 45.9
-3 -6 -1 570.04 52.19
-6 9 -1 534.45 46.9
-9 3 1 508.55 47
-9 3 1 500.55 41.6
6 -9 1 491.15 50.89
-6 10 -1 477.15 48
-4 -6 -1 570.74 55.59
-10 4 1 564.44 49.6
-10 4 1 501.55 44.9
6 -10 1 591.34 56.69
-5 -6 -1 124.89 34
-6 11 -1 204.08 33.1
6 -11 1 165.28 36.2
-11 5 1 150.28 27.1
-6 12 -1 17.4 22.7
-6 -6 -1 8.9 29.1
-12 6 1 6.1 20.2
6 -12 1 23.2 28.1
-6 13 -1 29.6 24.6
-7 -6 -1 40.5 33.7
-13 7 1 65.19 27.3
6 -13 1 16.2 32.3
-7 -5 -1 14.9 28.6
-5 12 -1 25.9 22.8
-12 7 1 14.8 21.9
5 -12 1 -2.1 26.4
-4 11 -1 8.5 19.2
-7 -4 -1 23.4 26.5
4 -11 1 23.2 25.8
-11 7 1 6.8 20.1
-7 -3 -1 33.6 24.2
10 -7 -1 22.9 15
-3 10 -1 16.1 16.8
3 -10 1 27.5 25
-10 7 1 32.1 20.7
-2 9 -1 94.99 20.9
9 -7 -1 69.49 18.6
-7 -2 -1 83.89 17.3
-7 -2 -1 84.79 29
-9 7 1 52.29 19.8
2 -9 1 79.09 25.2
2 -9 1 80.09 16.3
8 -7 -1 139.59 23.8
-7 -1 -1 105.69 16
-1 8 -1 107.59 19.7
-7 -1 -1 99.99 28.3
1 -8 1 134.19 20.2
1 -8 1 96.89 25.2
-8 7 1 112.19 21.5
-7 0 -1 363.26 29.7
7 -7 -1 386.86 39
0 7 -1 375.46 32.7
-7 0 -1 396.86 43.1
0 -7 1 484.05 41.7
-7 7 1 423.46 39
0 -7 1 446.16 37.6
-7 1 -1 1263.07 71.99
-7 1 -1 1310.77 82.39
6 -7 -1 1248.88 80.19
1 6 -1 1254.57 71.69
-1 -6 1 1146.69 77.89
-1 -6 1 1157.38 78.09
-6 7 1 1229.78 78.99
5 -7 -1 1617.24 92.19
2 5 -1 1483.25 79.89
-7 2 -1 1476.35 88.49
-7 2 -1 1444.26 82.29
-2 -5 1 1284.17 83.99
-5 7 1 1358.96 85.99
-2 -5 1 1263.87 88.29
3 4 -1 910.51 53.09
-7 3 -1 905.41 57.49
-7 3 -1 904.91 60.19
-3 -4 1 883.31 56.99
-4 7 1 906.21 59.59
-3 -4 1 977.1 65.79
3 -7 -1 1905.21 113.49
3 -7 -1 1877.41 100.29
4 3 -1 1906.51 101.79
-7 4 -1 1887.41 106.59
-7 4 -1 1987.8 108.59
-3 7 1 1665.33 106.49
-7 5 -1 993.5 62.99
2 -7 -1 1033.4 57.39
2 -7 -1 988.6 67.09
-2 7 1 895.81 59.59
-5 -2 1 920.31 54.59
7 -5 1 864.21 58.99
-5 -2 1 937.91 55.69
1 -7 -1 67.89 19.9
1 -7 -1 75.19 15.4
-7 6 -1 79.29 17
-6 -1 1 30.9 19.4
7 -6 1 68.79 16.8
-1 7 1 69.79 15.2
-6 -1 1 56.39 11.8
0 -7 -1 369.66 36.7
0 -7 -1 365.96 39
7 -7 1 386.76 39.1
0 7 1 425.46 32.3
-7 0 1 411.46 31.1
-7 0 1 399.96 43.2
-7 8 -1 693.33 51.79
-1 -7 -1 679.03 52.19
-1 -7 -1 615.84 51.09
-8 1 1 631.64 56.29
7 -8 1 665.23 55.49
1 7 1 616.04 43.9
-8 1 1 609.34 44.2
-2 -7 -1 671.53 57.39
-7 9 -1 713.83 56.99
-2 -7 -1 693.63 55.19
7 -9 1 754.72 61.79
-9 2 1 676.13 59.49
-9 2 1 667.83 48.9
-7 10 -1 635.44 56.19
-3 -7 -1 686.53 60.09
-3 -7 -1 732.73 55.49
-10 3 1 605.74 49.9
-10 3 1 631.94 57.39
7 -10 1 640.94 61.89
-4 -7 -1 141.29 32.8
-7 11 -1 118.19 29.3
-11 4 1 126.29 24.9
7 -11 1 146.59 34.4
-5 -7 -1 30.4 28
-7 12 -1 10.9 22.2
-12 5 1 48.2 20.9
7 -12 1 6 27.2
-6 -7 -1 59.29 33.5
-7 13 -1 105.59 30.7
7 -13 1 95.39 38.5
-13 6 1 128.19 29.2
-8 -4 -1 155.78 41.7
-4 12 -1 171.78 31.8
-12 8 1 131.99 33
4 -12 1 159.38 37
-3 11 -1 125.79 26.8
11 -8 -1 86.19 22.7
-8 -3 -1 138.69 35.2
3 -11 1 135.39 34.6
-11 8 1 105.29 29.1
10 -8 -1 262.37 32.8
-2 10 -1 249.68 32.7
-8 -2 -1 325.77 48.2
-10 8 1 187.98 33.1
2 -10 1 239.18 39.7
-8 -1 -1 127.89 18.5
9 -8 -1 138.49 25.7
-1 9 -1 157.98 25.3
-8 -1 -1 141.49 34.1
1 -9 1 160.88 31.8
-9 8 1 141.89 26.9
1 -9 1 142.39 22.6
-8 0 -1 100.29 16.7
0 8 -1 125.39 20.8
8 -8 -1 114.39 25.2
-8 0 -1 95.79 28.5
0 -8 1 143.79 27.4
0 -8 1 140.39 23.3
-8 8 1 127.09 26.1
-8 1 -1 665.23 44.5
-8 1 -1 740.13 57.39
1 7 -1 659.33 44.7
7 -8 -1 576.34 53.09
-1 -7 1 616.94 52.29
-1 -7 1 606.14 50.29
-7 8 1 619.74 51.89
2 6 -1 746.13 46.7
-8 2 -1 747.43 49.5
6 -8 -1 751.82 58.09
-8 2 -1 721.73 56.39
-2 -6 1 712.73 53.39
-6 8 1 683.63 54.39
-2 -6 1 668.73 56.89
-8 3 -1 161.38 21.1
5 -8 -1 126.89 25.9
3 5 -1 110.49 14.6
-8 3 -1 113.79 22.8
-3 -5 1 91.79 23.1
-5 8 1 86.39 19.6
-3 -5 1 122.79 19.7
-8 4 -1 541.65 43.2
-8 4 -1 597.74 44.6
4 4 -1 592.94 36.7
-4 -4 1 500.95 49.9
-4 -4 1 555.34 40.3
-4 8 1 534.35 43.6
3 -8 -1 1149.69 65.19
5 3 -1 1078.69 65.59
-8 5 -1 1139.69 70.29
3 -8 -1 1152.18 79.59
-8 5 -1 1061.39 73.19
8 -5 1 1223.18 70.69
-3 8 1 1273.77 73.79
2 -8 -1 454.05 48.8
2 -8 -1 506.95 38.8
-8 6 -1 504.15 45.4
-6 -2 1 681.13 55.09
-6 -2 1 597.34 38.5
-2 8 1 619.14 43.9
8 -6 1 616.34 44.9
-8 7 -1 86.89 21
1 -8 -1 131.89 20.6
1 -8 -1 97.99 24.8
-7 -1 1 123.79 16.8
8 -7 1 130.89 23.3
-1 8 1 114.89 19.7
-7 -1 1 98.89 26.7
0 -8 -1 89.39 21.2
0 -8 -1 103.29 26
-8 8 -1 96.99 24.6
-8 0 1 138.09 19.1
-8 0 1 166.88 32
8 -8 1 104.69 23.9
0 8 1 136.49 20.6
-1 -8 -1 206.68 32
-8 9 -1 161.88 29.8
-1 -8 -1 176.48 29.5
-9 1 1 160.88 22.5
8 -9 1 149.99 30.1
-9 1 1 146.59 32
-8 10 -1 233.28 36.7
-2 -8 -1 244.88 34.4
-2 -8 -1 195.68 32.9
-10 2 1 202.88 27.2
-10 2 1 234.78 38.3
8 -10 1 192.28 36.1
-3 -8 -1 155.18 33.2
-8 11 -1 128.79 30.8
-11 3 1 88.89 22.6
-11 3 1 124.89 31.2
8 -11 1 131.99 33.9
-4 -8 -1 -1.6 22.8
-8 12 -1 1.7 23.1
-12 4 1 -4.2 17.6
8 -12 1 -27.5 26.3
-9 -3 -1 206.38 45
-12 9 1 132.19 32.6
3 -12 1 88.89 34.5
11 -9 -1 268.27 36
-9 -2 -1 275.07 46.9
-11 9 1 250.47 38.1
2 -11 1 279.77 45.1
10 -9 -1 246.08 35.1
-9 -1 -1 252.27 43.6
1 -10 1 282.57 41.7
-10 9 1 221.08 36
-9 0 -1 46.1 14.5
9 -9 -1 52.59 22.9
-9 0 -1 56.69 27.5
0 -9 1 68.09 20.8
-9 9 1 46.5 21.5
0 -9 1 45.7 23.2
-9 1 -1 164.68 33.2
8 -9 -1 176.98 32.6
-9 1 -1 164.88 22.2
-1 -8 1 172.78 29
-1 -8 1 131.39 27.6
-8 9 1 164.98 28.2
-9 2 -1 691.63 58.99
7 -9 -1 688.33 57.69
2 7 -1 615.84 51.19
-9 2 -1 645.74 45.9
-7 9 1 614.64 53.49
-2 -7 1 634.74 52.59
-2 -7 1 581.64 52.99
-9 3 -1 524.85 41.6
3 6 -1 548.65 38
-9 3 -1 537.55 48.7
6 -9 -1 519.25 51.59
-6 9 1 541.75 47.2
-3 -6 1 576.14 45.5
-3 -6 1 424.46 48.7
-9 4 -1 140.89 25.1
4 5 -1 155.08 17.9
5 -9 -1 174.68 31.1
-9 4 -1 161.78 24.3
-5 9 1 145.79 24.4
-4 -5 1 118.39 21.3
-4 -5 1 152.08 30.6
-9 5 -1 760.62 53.19
-9 5 -1 778.92 54.69
4 -9 -1 782.82 62.99
5 4 -1 731.43 46.3
-4 9 1 656.93 53.19
-5 -4 1 679.63 61.79
-9 6 -1 586.94 50.79
6 3 -1 650.33 42.2
3 -9 -1 705.63 58.89
-3 9 1 604.14 49.5
9 -6 1 683.93 48
-6 -3 1 627.74 59.09
-9 7 -1 86.49 22.2
2 -9 -1 80.89 25
9 -7 1 46.6 17.9
-2 9 1 66.29 18.9
-7 -2 1 47.1 24.9
-7 -2 1 59.59 14.4
1 -9 -1 160.78 24.5
-9 8 -1 142.59 28.6
1 -9 -1 144.59 30.9
9 -8 1 157.28 26.8
-8 -1 1 209.28 37.7
-8 -1 1 172.28 21.3
-1 9 1 173.48 26
-9 9 -1 64.79 21.3
0 -9 -1 55.19 20.5
0 -9 -1 26.2 22.9
-9 0 1 56.19 16.4
9 -9 1 36.2 21.1
-9 0 1 94.29 30.5
-1 -9 -1 28.4 21.9
-1 -9 -1 28.4 19.4
-9 10 -1 22 22.5
9 -10 1 -5.8 20.4
-10 1 1 19 26.1
-10 1 1 33.7 16.5
-2 -9 -1 22 22.6
-2 -9 -1 16.4 20.4
-9 11 -1 9.2 21.5
9 -11 1 -6.7 22.8
-11 2 1 18.5 16.6
-11 2 1 42 27.3
-9 12 -1 6.2 24.6
-3 -9 -1 21.7 25.3
-12 3 1 17.3 18.9
-12 3 1 40.1 27.1
9 -12 1 2.1 27.8
12 -10 -1 114.59 27.9
-10 -2 -1 39.6 36
2 -12 1 78.19 32.6
-12 10 1 63.69 29.1
11 -10 -1 214.58 34.9
-10 -1 -1 229.38 47.2
-11 10 1 252.67 40.3
1 -11 1 215.68 41.3
-10 0 -1 278.77 46.9
10 -10 -1 322.87 41.8
0 -10 1 292.27 53.99
0 -10 1 279.97 42.1
-10 10 1 262.57 39.2
-10 1 -1 4 14.1
9 -10 -1 -0.3 21
-10 1 -1 1 23.2
-1 -9 1 28.6 22.7
-1 -9 1 3.5 19.1
-9 10 1 12.1 21.6
-10 2 -1 246.48 39.3
8 -10 -1 268.97 39
-10 2 -1 231.18 27.9
-2 -8 1 219.58 34.4
-8 10 1 183.28 31.7
-2 -8 1 215.88 32.2
7 -10 -1 802.62 63.39
-10 3 -1 619.74 48.7
-10 3 -1 731.03 59.79
-7 10 1 563.94 54.69
-3 -7 1 529.65 55.79
-10 4 -1 500.85 45.1
6 -10 -1 495.55 53.59
-10 4 -1 554.14 50.09
-4 -6 1 550.24 55.29
-6 10 1 566.44 50.59
5 -10 -1 695.63 60.89
-10 5 -1 531.75 48.4
-5 -5 1 651.63 60.79
-5 10 1 585.44 51.19
-10 6 -1 274.07 36
4 -10 -1 382.76 47.2
-4 10 1 336.47 37.8
-6 -4 1 339.27 45
3 -10 -1 11 21.6
-10 7 -1 11.4 18.2
-7 -3 1 23.6 25.5
-3 10 1 46 18.5
2 -10 -1 247.18 38
-10 8 -1 250.87 36.4
10 -8 1 227.58 32.2
-8 -2 1 212.28 40.2
-2 10 1 192.88 37
-10 9 -1 247.38 37.3
1 -10 -1 299.17 41.6
-9 -1 1 299.77 45.6
10 -9 1 227.58 34.9
-10 10 -1 216.38 37.3
0 -10 -1 209.98 37.6
-10 0 1 211.38 40.9
10 -10 1 260.47 37.9
-1 -10 -1 166.68 31.6
-1 -10 -1 122.09 31.8
-10 11 -1 118.39 32.5
-11 1 1 199.38 41.3
10 -11 1 107.59 31.4
-10 12 -1 82.59 31.2
-2 -10 -1 39 24.6
-12 2 1 55.99 29.5
10 -12 1 26.2 28.9
11 -11 -1 163.58 34.3
-11 0 -1 238.68 45.9
0 -11 1 121.09 36.8
-11 11 1 138.49 35.2
-11 1 -1 103.69 34.9
10 -11 -1 155.28 34.3
-1 -10 1 161.38 35.3
-1 -10 1 102.89 27.6
-10 11 1 158.68 34.2
-11 2 -1 -4.8 15.1
9 -11 -1 -8.7 23.4
-11 2 -1 21.2 27.3
-9 11 1 -1.8 21.5
-2 -9 1 17.7 21.6
-11 3 -1 123.49 23
-11 3 -1 108.09 30.4
8 -11 -1 102.79 31.4
-8 11 1 68.49 25.8
-3 -8 1 103.29 27.9
7 -11 -1 127.49 33.1
-11 4 -1 123.89 29.6
-11 4 -1 108.99 23.6
-7 11 1 122.69 29.1
-4 -7 1 119.19 30.5
-11 5 -1 148.09 27.1
6 -11 -1 196.48 37.2
-5 -6 1 186.78 37.7
-6 11 1 182.88 31.5
5 -11 -1 151.98 34
-11 6 -1 107.99 26
-5 11 1 96.59 25.1
-6 -5 1 131.29 35.4
-11 7 -1 13.9 19.6
4 -11 -1 27 27.5
-4 11 1 13.5 18.7
-7 -4 1 48.2 28.3
3 -11 -1 110.29 34.4
-11 8 -1 117.99 29.2
-8 -3 1 156.78 38.3
-11 9 -1 263.97 38.5
2 -11 -1 294.27 45.7
-9 -2 1 277.97 47.7
11 -9 1 310.67 38.8
-11 10 -1 207.48 37.4
1 -11 -1 249.78 41.6
11 -10 1 237.08 36.7
-10 -1 1 178.98 42.4
-11 11 -1 157.68 35.2
0 -11 -1 164.38 37.1
11 -11 1 144.59 33.5
-11 0 1 142.69 41.1
10 -12 -1 36.4 30.2
-12 2 -1 119.29 36.6
-2 -10 1 28.7 24.4
-10 12 1 23.3 26.7
9 -12 -1 35.9 30.3
-12 3 -1 25.9 28.3
-12 3 -1 14.7 18.8
-3 -9 1 4 22.4
-9 12 1 -6 24.2
8 -12 -1 -26.6 25.1
-12 4 -1 25 19.8
-4 -8 1 11 24.1
-8 12 1 24.5 23.8
-12 5 -1 8 19
7 -12 -1 6.6 26.2
-5 -7 1 -7.6 22.1
-7 12 1 12.8 23.1
6 -12 -1 -13.7 24.3
-12 6 -1 33.1 21.3
-6 -6 1 -12.3 25.9
-6 12 1 40.4 22.9
5 -12 -1 -5.9 26.3
-12 7 -1 10.3 20.7
-7 -5 1 56.49 31.6
-5 12 1 23 21.7
4 -12 -1 182.28 40.8
-8 -4 1 166.68 41.8
3 -12 -1 219.58 42.2
-12 9 -1 184.78 35.9
-9 -3 1 109.39 38.6
-12 10 -1 110.39 31.6
2 -12 -1 122.29 38.1
-10 -2 1 144.69 43.1
12 -10 1 57.59 26
-13 6 -1 48 24.5
7 -13 -1 113.69 38.4
-6 -7 1 160.78 39.6
-7 13 1 109.79 31.4
-13 7 -1 13.9 23.6
6 -13 -1 35.6 30.7
-6 13 1 73.99 27.9
-7 -6 1 60.59 33.5
0 0 -2 2.1 1.5
0 0 2 2.4 1.4
0 1 -2 575.34 32.9
-1 0 -2 602.04 32.4
1 -1 -2 585.24 32.3
1 -1 -2 585.64 33.5
-1 1 2 631.04 33.3
1 0 2 632.04 32.6
0 -1 2 635.74 33.6
0 -1 -2 598.74 33.7
0 -1 -2 576.44 32.5
0 1 2 661.93 32.6
-1 0 2 638.64 34.7
-1 2 -2 441.86 23.4
2 -1 -2 431.26 21.8
-2 1 2 327.27 22.2
1 -2 2 350.86 20.8
1 -2 2 340.67 24.1
1 1 2 324.87 19.1
3 -2 -2 1805.02 98.09
-2 -1 -2 1801.32 94.89
-1 3 -2 1789.72 97.99
1 -3 2 1767.62 100.39
1 -3 2 1854.61 96.99
-3 2 2 1911.81 97.29
0 2 -2 1558.74 89.39
-2 0 -2 1460.35 91.29
-2 0 -2 1564.34 88.59
2 -2 -2 1512.55 87.79
2 -2 -2 1483.95 90.79
-2 2 2 1946.61 91.39
0 -2 2 1834.42 91.69
0 -2 2 1933.51 91.49
-2 2 2 1959.9 87.59
-2 1 -2 440.26 24.5
1 -2 -2 457.85 22.6
-2 1 -2 444.76 24.9
1 1 -2 420.26 23.1
-1 -1 2 354.06 22.8
-1 -1 2 322.77 22.8
-1 2 2 363.66 24
0 -2 -2 1461.05 91.39
0 -2 -2 1509.75 91.69
-2 2 -2 1554.84 89.59
-2 0 2 1908.81 90.99
-2 0 2 1923.01 94.09
0 2 2 1954.5 90.19
-1 -2 -2 1200.98 59.29
-2 3 -2 1218.58 59.59
3 -1 -2 1166.28 53.79
-3 1 2 890.81 57.19
-3 1 2 806.92 55.09
1 2 2 859.61 52.59
4 -2 -2 4625.44 227.68
-2 -2 -2 4402.16 232.18
-4 2 2 4284.97 229.28
2 2 2 4280.37 224.88
2 -4 2 4356.26 226.08
-4 2 2 4200.18 228.98
5 -3 -2 1953.1 109.79
-3 -2 -2 1933.71 106.19
-2 5 -2 1949.3 111.39
-3 -2 -2 1941.11 116.09
-5 3 2 2045.4 111.89
2 -5 2 2082.89 107.99
2 -5 2 2022.2 115.49
-5 3 2 2214.48 110.79
-3 -1 -2 1494.05 77.89
4 -3 -2 1480.05 82.09
1 -4 2 1448.96 80.59
-4 3 2 1446.16 79.29
3 -3 -2 855.81 52.19
0 3 -2 921.41 49.5
-3 0 -2 904.11 48.3
3 -3 -2 858.01 46
-3 0 -2 849.12 52.79
-3 1 -2 1225.18 67.79
2 -3 -2 1199.08 62.59
1 2 -2 1238.98 64.99
-3 1 -2 1218.28 65.99
2 -3 -2 1128.39 68.49
-3 2 -2 1821.12 97.19
1 -3 -2 1661.73 94.99
-3 2 -2 1868.51 95.79
-2 -1 2 1759.52 94.79
3 -2 2 1759.42 96.29
-2 -1 2 1822.42 93.79
-1 3 2 1840.02 96.09
-3 0 2 1395.96 71.09
3 -3 2 1326.17 75.99
-3 0 2 1349.66 77.39
0 3 2 1338.67 72.39
-3 0 2 1308.47 73.09
-1 -3 -2 3028.1 153.48
-4 1 2 2746.83 152.58
-4 1 2 2766.52 149.59
1 3 2 2750.72 146.69
-3 5 -2 2557.44 137.99
-2 -3 -2 2397.86 139.69
5 -2 -2 2401.26 132.49
2 3 2 2590.74 131.49
-5 2 2 2543.85 136.19
3 -5 2 2592.44 141.79
-3 6 -2 886.71 58.29
-3 -3 -2 791.12 54.29
-3 -3 -2 780.72 60.59
6 -3 -2 818.62 53.09
-6 3 2 1004.9 57.89
3 -6 2 1037 63.59
3 -6 2 1029 51.99
3 3 2 1017.7 51.29
-3 7 -2 511.25 38.8
-4 -3 -2 473.65 43.2
7 -4 -2 408.36 32.5
-4 -3 -2 504.35 33.6
4 3 2 468.25 28.8
3 -7 2 495.95 43.5
-7 4 2 445.26 36.7
3 -7 2 466.05 30
-2 6 -2 572.64 40.4
-4 -2 -2 576.84 34.6
6 -4 -2 564.54 39.4
2 -6 2 620.84 37
2 -6 2 577.14 44.9
-6 4 2 597.64 38.3
-6 4 2 599.34 41.7
-4 -1 -2 522.65 42.1
5 -4 -2 508.55 37.8
-1 5 -2 570.74 37.3
-4 -1 -2 588.04 32.9
1 -5 2 584.74 41.7
-5 4 2 549.05 33.3
1 -5 2 561.84 36.5
-4 0 -2 880.41 48.3
-4 0 -2 824.42 54.39
4 -4 -2 847.22 53.49
-4 4 2 830.62 52.79
0 -4 2 879.11 52.69
-4 1 -2 3150.98 159.28
1 3 -2 3161.78 158.48
3 -4 -2 3097.89 163.68
-1 -3 2 2763.12 162.68
-1 -3 2 2841.22 160.58
2 2 -2 4555.24 230.68
-4 2 -2 4801.42 233.88
-4 2 -2 4480.05 233.58
2 -4 -2 4535.35 229.88
-2 4 2 4089.49 232.88
-2 -2 2 4349.56 231.38
-2 -2 2 4203.88 237.08
-4 3 -2 1527.95 82.09
1 -4 -2 1478.05 79.79
1 -4 -2 1398.06 83.09
-4 3 -2 1504.45 79.09
-3 -1 2 1466.95 76.59
-1 4 2 1429.46 79.69
4 -3 2 1447.16 80.89
-3 -1 2 1418.16 90.79
-3 -1 2 1338.07 78.09
0 -4 -2 849.22 53.29
-4 4 -2 866.31 48.5
0 -4 -2 839.52 54.19
0 4 2 932.41 50.39
-4 0 2 872.61 50.59
-4 0 2 893.21 56.99
4 -4 2 900.51 54.99
-1 -4 -2 1505.95 80.89
-4 5 -2 1383.26 73.19
-1 -4 -2 1415.26 81.79
-4 5 -2 1448.36 81.59
-5 1 2 1391.76 82.29
1 4 2 1305.47 74.59
4 -5 2 1343.67 82.39
-5 1 2 1284.77 77.09
-4 6 -2 512.35 40.9
-2 -4 -2 516.45 43.5
-2 -4 -2 591.24 40.8
2 4 2 624.74 34.8
-6 2 2 596.64 39.4
-6 2 2 638.64 43.7
-3 -4 -2 21.6 11.5
-4 7 -2 22.7 14
-3 -4 -2 17.1 16.6
-7 3 2 58.09 15.4
3 4 2 55.39 8.7
-7 3 2 69.59 14.2
-4 -4 -2 60.99 22.8
-4 -4 -2 68.59 15
-4 8 -2 56.39 17.7
-8 4 2 75.39 17.7
-8 4 2 63.79 16.9
4 -8 2 66.59 19.9
-5 -4 -2 203.48 35.3
-4 9 -2 267.17 31.9
-5 -4 -2 193.78 24.4
4 -9 2 203.18 32.1
-9 5 2 197.58 27.5
-5 -3 -2 340.67 56.79
8 -5 -2 406.96 31.9
-5 -3 -2 427.96 31.5
-3 8 -2 418.36 36.5
-8 5 2 369.56 33.6
3 -8 2 352.76 42.3
3 -8 2 400.76 28.1
-8 5 2 324.87 35
7 -5 -2 1503.25 92.39
-5 -2 -2 1560.34 87.19
-2 7 -2 1507.45 92.99
2 -7 2 1773.42 101.29
2 -7 2 1626.64 89.99
-7 5 2 1665.13 89.39
-5 -1 -2 1721.63 99.49
-5 -1 -2 1702.63 109.69
6 -5 -2 1733.43 105.59
-1 6 -2 1777.12 103.59
1 -6 2 2045.6 110.49
-6 5 2 1972.7 98.69
1 -6 2 1988.7 104.39
-5 0 -2 1639.84 88.59
-5 0 -2 1645.04 97.09
5 -5 -2 1582.44 94.59
0 5 -2 1635.54 90.19
-5 5 2 1637.24 94.19
0 -5 2 1581.44 93.19
0 -5 2 1626.94 95.29
-5 1 -2 1392.36 74.79
4 -5 -2 1420.46 81.09
-5 1 -2 1248.38 79.39
-4 5 2 1318.17 78.79
-1 -4 2 1288.07 79.69
3 -5 -2 2552.54 131.39
-5 2 -2 2115.19 138.29
3 -5 -2 2587.74 142.59
-5 2 -2 2494.15 137.59
-2 -3 2 2676.63 137.69
-2 -3 2 2608.74 142.89
-3 5 2 2604.74 139.29
-3 5 2 2701.63 131.69
-5 3 -2 1978.3 109.29
2 -5 -2 1914.61 106.49
2 -5 -2 1911.11 113.19
-5 3 -2 1980 110.59
5 -3 2 1968 108.59
-3 -2 2 2091.79 106.69
-3 -2 2 2047.8 106.89
1 -5 -2 541.15 36
-5 4 -2 621.54 38.9
1 -5 -2 608.14 40.1
-5 4 -2 568.14 33.6
5 -4 2 490.75 36.3
-1 5 2 390.96 32.7
-4 -1 2 530.55 32.8
-4 -1 2 522.75 41.2
-5 5 -2 1641.24 86.99
0 -5 -2 1680.53 94.89
0 -5 -2 1577.04 93.19
0 5 2 1593.24 88.89
-5 0 2 1621.54 96.89
5 -5 2 1596.84 94.89
-5 0 2 1602.44 89.39
-1 -5 -2 619.04 42
-5 6 -2 644.04 32.7
-5 6 -2 647.34 43.5
-1 -5 -2 667.63 44.6
1 5 2 480.15 34.7
-6 1 2 484.95 42.9
5 -6 2 454.75 42.9
-6 1 2 498.45 36.8
-5 7 -2 95.29 19.4
-2 -5 -2 73.19 19.6
-2 -5 -2 88.89 16.3
-5 7 -2 72.79 10
2 5 2 56.29 11.4
-7 2 2 61.19 17.8
-7 2 2 44.5 12.9
-3 -5 -2 5.2 17.8
-3 -5 -2 27.2 13.4
-5 8 -2 26.2 15.7
-8 3 2 20.1 13.2
-8 3 2 29.6 16.2
-4 -5 -2 95.79 19.9
-4 -5 -2 82.19 25.8
-5 9 -2 122.19 24.2
5 -9 2 144.79 29.5
-9 4 2 130.59 22
-9 4 2 106.99 22.1
-5 10 -2 304.87 36.2
-5 -5 -2 226.48 39.7
-10 5 2 268.77 34.2
5 -10 2 300.37 42.4
-6 -5 -2 143.39 36.2
-5 11 -2 181.28 31.2
-11 6 2 175.78 30
5 -11 2 179.88 37.1
-6 -4 -2 560.94 57.19
-4 10 -2 501.75 45.9
-10 6 2 402.56 44.8
4 -10 2 492.65 52.89
-3 9 -2 345.77 39
9 -6 -2 372.16 34.1
-6 -3 -2 373.46 46
-9 6 2 383.96 38.9
3 -9 2 430.16 47.3
-2 8 -2 419.76 39.8
-6 -2 -2 479.25 32.5
8 -6 -2 387.76 36.9
-6 -2 -2 358.26 44.9
2 -8 2 593.84 36.9
2 -8 2 569.44 50.59
-8 6 2 538.15 42.8
-6 -1 -2 1303.57 85.39
-6 -1 -2 1221.28 71.69
7 -6 -2 1214.58 79.09
-1 7 -2 1275.17 76.99
1 -7 2 1382.56 84.09
1 -7 2 1301.57 76.49
-6 0 -2 1530.35 83.39
-6 0 -2 1466.55 93.39
0 6 -2 1485.45 85.29
6 -6 -2 1429.16 89.89
0 -6 2 1521.25 91.49
0 -6 2 1495.65 88.89
-6 6 2 1493.15 89.99
-6 1 -2 599.54 45.3
5 -6 -2 649.83 46.3
-6 1 -2 673.13 38.1
1 5 -2 612.44 37.2
-1 -5 2 504.35 41.4
-1 -5 2 504.95 42
-5 6 2 425.46 40.8
-6 2 -2 558.24 37.6
2 4 -2 528.25 35.3
4 -6 -2 576.64 44.4
-6 2 -2 536.35 41.5
-2 -4 2 629.74 45.4
-4 6 2 629.94 41.8
3 -6 -2 814.12 48.8
3 3 -2 844.62 51.39
-6 3 -2 928.61 56.19
-6 3 -2 768.52 55.59
-3 6 2 1032.7 57.89
-3 -3 2 1050.99 63.49
-3 -3 2 1029.8 54.49
-6 4 -2 517.45 40.4
2 -6 -2 521.55 43.6
2 -6 -2 574.04 36.3
6 -4 2 624.04 39.7
-4 -2 2 555.54 34.8
-4 -2 2 592.74 35.9
-2 6 2 583.74 39.6
-4 -2 2 560.94 55.79
-6 5 -2 1761.82 100.99
-6 5 -2 1693.03 106.69
1 -6 -2 1802.22 104.49
1 -6 -2 1695.03 107.89
-1 6 2 1941.61 103.69
-5 -1 2 1989 112.09
6 -5 2 1970.4 106.89
-5 -1 2 1975.9 101.89
0 -6 -2 1440.66 86.79
-6 6 -2 1397.96 78.49
0 -6 -2 1523.45 89.19
-6 0 2 1421.36 81.59
0 6 2 1423.86 81.89
6 -6 2 1449.55 88.49
-6 0 2 1483.05 91.19
-1 -6 -2 686.63 49.3
-6 7 -2 578.04 53.89
-1 -6 -2 663.53 49.9
-7 1 2 640.54 51.49
6 -7 2 678.93 52.69
-7 1 2 641.84 44.1
-2 -6 -2 107.89 20.1
-2 -6 -2 95.59 23
-6 8 -2 77.69 20.4
-8 2 2 66.89 16.4
6 -8 2 82.09 23.1
-8 2 2 49.2 19.7
-3 -6 -2 23.7 15.8
-3 -6 -2 28.4 21
-6 9 -2 12.5 17
6 -9 2 6.3 18.5
-9 3 2 4.5 16.7
-9 3 2 52.29 16.2
-6 10 -2 188.08 29.7
-4 -6 -2 229.28 29.2
-4 -6 -2 199.18 36.2
6 -10 2 194.28 37.1
-10 4 2 148.49 26.1
-10 4 2 185.68 30
-6 11 -2 278.17 36.8
-5 -6 -2 265.17 43.1
6 -11 2 238.18 42.5
-11 5 2 249.58 34.4
-6 -6 -2 97.09 33.7
-6 12 -2 120.29 28.9
6 -12 2 111.19 37.3
-12 6 2 81.59 25.5
-7 -6 -2 -16.9 30.9
-6 13 -2 50.59 27.3
6 -13 2 31 32.4
-7 -5 -2 -40.1 26
-5 12 -2 -2.4 20.6
5 -12 2 13.2 27.9
-12 7 2 7.1 21.3
-4 11 -2 401.46 42.4
-7 -4 -2 442.76 53.99
-11 7 2 248.18 38.2
4 -11 2 294.37 45.7
-7 -3 -2 629.74 63.29
10 -7 -2 628.94 48.8
-3 10 -2 645.84 53.49
-10 7 2 612.34 53.39
3 -10 2 624.64 60.69
9 -7 -2 218.08 29
-7 -2 -2 222.58 38.6
-2 9 -2 261.97 31.3
-9 7 2 290.17 34.8
2 -9 2 250.97 26.4
2 -9 2 262.17 37.9
8 -7 -2 45.6 17.5
-1 8 -2 58.69 16.9
-7 -1 -2 27.9 22
1 -8 2 67.59 22.4
1 -8 2 72.89 17.2
-8 7 2 52.29 19.3
-7 0 -2 969 73.29
7 -7 -2 1027.6 69.99
-7 0 -2 1011.1 60.99
0 7 -2 1019.8 64.29
0 -7 2 1115.09 71.69
-7 7 2 1079.29 70.39
0 -7 2 997.4 67.49
1 6 -2 721.43 44.5
-7 1 -2 695.03 53.99
6 -7 -2 705.53 52.89
-7 1 -2 690.13 43.9
-1 -6 2 594.04 48.8
-1 -6 2 662.93 50.79
-6 7 2 656.33 50.59
2 5 -2 81.29 12.5
5 -7 -2 70.69 19.4
-7 2 -2 92.39 14.9
-7 2 -2 65.99 18.8
-5 7 2 42.1 15.2
-2 -5 2 57.79 15.4
-2 -5 2 61.69 18.9
-7 3 -2 16.4 11.3
3 4 -2 35.6 9.5
-7 3 -2 48.7 14.9
-4 7 2 40.6 14.5
-3 -4 2 50.09 15.3
-3 -4 2 48.9 18.3
-7 4 -2 486.05 37.4
4 3 -2 440.16 31.3
3 -7 -2 490.05 29.6
-7 4 -2 467.15 36.7
-4 -3 2 504.75 33.2
-3 7 2 454.85 36.3
2 -7 -2 1547.95 97.29
2 -7 -2 1476.95 87.69
-7 5 -2 1454.75 92.79
-5 -2 2 1658.73 87.69
7 -5 2 1633.94 91.69
-2 7 2 1558.84 90.89
-5 -2 2 1574.14 85.59
-7 6 -2 1157.18 69.49
1 -7 -2 1249.18 74.69
1 -7 -2 1203.58 79.89
-7 6 -2 1137.29 83.09
7 -6 2 1241.38 76.89
-6 -1 2 1293.67 83.59
-6 -1 2 1241.98 71.19
-1 7 2 1281.17 73.49
0 -7 -2 920.41 69.89
0 -7 -2 999.1 68.29
0 7 2 1127.89 64.39
7 -7 2 1069.59 70.99
-7 0 2 1056.19 74.69
-7 0 2 1047 63.19
-1 -7 -2 589.04 49.2
-1 -7 -2 667.43 50.49
-7 8 -2 530.65 45.8
-8 1 2 512.75 40.1
7 -8 2 544.65 50.19
-8 1 2 533.95 50.49
-7 9 -2 190.58 29.6
-2 -7 -2 235.28 34.2
-2 -7 -2 183.58 28.5
-9 2 2 142.79 29.7
7 -9 2 203.28 33.4
-9 2 2 187.48 25
-3 -7 -2 273.57 33.6
-3 -7 -2 225.48 36.3
-7 10 -2 193.48 31
-10 3 2 211.78 33.3
-10 3 2 199.88 28
7 -10 2 212.78 38
-4 -7 -2 269.37 41.8
-7 11 -2 236.28 36.1
-11 4 2 262.27 34.1
7 -11 2 324.47 47.4
-5 -7 -2 354.76 52.09
-7 12 -2 364.26 46
-12 5 2 418.86 45.8
7 -12 2 417.86 56.79
-6 -7 -2 86.39 35.5
-7 13 -2 104.09 30.6
7 -13 2 65.99 37
-4 12 -2 102.59 28.7
-8 -4 -2 148.39 42
-12 8 2 93.99 29.4
4 -12 2 65.19 31.7
11 -8 -2 248.98 30.7
-3 11 -2 221.58 33.5
-8 -3 -2 184.78 42.6
-11 8 2 198.78 34.9
3 -11 2 194.88 37.6
-8 -2 -2 367.76 51.89
-2 10 -2 313.87 38
10 -8 -2 369.36 38
2 -10 2 389.66 48.5
-10 8 2 407.66 44.1
-1 9 -2 242.28 30.1
-8 -1 -2 234.48 39.3
9 -8 -2 200.78 30.5
1 -9 2 284.47 31.1
1 -9 2 240.18 37.3
-9 8 2 267.57 35.6
-8 0 -2 359.56 28.2
-8 0 -2 388.16 45.5
0 8 -2 298.97 32.3
8 -8 -2 343.27 38.8
0 -8 2 306.87 35.1
-8 8 2 276.27 36.8
0 -8 2 286.87 37.5
-8 1 -2 609.54 54.39
7 -8 -2 626.24 52.29
-8 1 -2 616.04 42.4
1 7 -2 630.34 43.6
-1 -7 2 590.44 50.19
-1 -7 2 692.23 51.29
-7 8 2 537.45 49.3
6 -8 -2 101.99 25.1
-8 2 -2 117.89 24.5
-8 2 -2 120.49 17.7
2 6 -2 104.59 15.6
-2 -6 2 94.59 23.2
-2 -6 2 81.19 19.7
-6 8 2 61.09 19.6
3 5 -2 38.7 11.2
5 -8 -2 35.1 19.2
-8 3 -2 23.8 16.7
-8 3 -2 16.1 12.4
-3 -5 2 32.3 13.3
-5 8 2 7.8 14.2
-3 -5 2 20.5 18.8
4 4 -2 57.29 11.8
-8 4 -2 23.8 13.7
-8 4 -2 80.79 18.6
-4 8 2 46.7 16.4
-4 -4 2 58.99 20.8
-4 -4 2 65.69 14
3 -8 -2 447.56 43.3
-8 5 -2 379.96 35.9
5 3 -2 362.26 28.1
-8 5 -2 405.06 34.1
3 -8 -2 397.26 32
-3 8 2 323.17 33.5
2 -8 -2 425.56 45.5
2 -8 -2 373.86 33.9
-8 6 -2 409.36 41
8 -6 2 534.95 40.1
-6 -2 2 508.35 34.5
-2 8 2 554.04 39.6
-6 -2 2 534.05 47.8
1 -8 -2 59.19 15.9
1 -8 -2 46.2 20.6
-8 7 -2 46 17.2
-7 -1 2 37 12.7
-1 8 2 61.09 15.8
8 -7 2 71.29 19.3
-7 -1 2 46.5 22.5
-8 8 -2 359.66 38.3
0 -8 -2 299.67 37.1
0 -8 -2 333.47 35.6
8 -8 2 217.28 32.3
-8 0 2 248.18 38.4
-8 0 2 278.87 28.3
-8 9 -2 641.44 54.09
-1 -8 -2 611.04 53.99
-1 -8 -2 636.34 52.99
8 -9 2 574.94 54.09
-9 1 2 512.55 42.6
-9 1 2 573.24 57.09
-8 10 -2 365.76 44.1
-2 -8 -2 398.66 43.9
-2 -8 -2 386.26 44.9
8 -10 2 420.56 49.3
-10 2 2 375.96 37.8
-10 2 2 347.67 45.3
-8 11 -2 92.49 28.5
-3 -8 -2 90.59 29.4
-11 3 2 91.09 27.6
-11 3 2 57.79 20.4
8 -11 2 69.59 31.1
-8 12 -2 175.98 34.7
-4 -8 -2 199.78 39.2
-12 4 2 178.38 30.5
8 -12 2 295.77 48.5
-9 -3 -2 68.69 36.2
3 -12 2 60.29 31.9
-12 9 2 46.5 26.7
11 -9 -2 101.49 25.3
-9 -2 -2 85.69 33.8
-11 9 2 98.79 28.4
2 -11 2 155.68 34.9
-1 10 -2 287.17 50.39
10 -9 -2 242.68 34.1
-9 -1 -2 243.08 44.4
-10 9 2 245.98 37
1 -10 2 258.57 40
9 -9 -2 621.34 54.69
0 9 -2 601.74 46.9
-9 0 -2 529.85 59.59
-9 9 2 481.45 52.09
0 -9 2 674.13 58.39
0 -9 2 515.25 47.7
8 -9 -2 637.54 56.19
1 8 -2 657.23 46.4
-9 1 -2 748.63 61.19
-9 1 -2 563.54 44.1
-8 9 2 574.74 52.79
-1 -8 2 612.44 53.89
-1 -8 2 510.95 49.7
-9 2 -2 184.08 23.7
2 7 -2 192.18 22.9
7 -9 -2 222.78 33.6
-9 2 -2 205.28 32.5
-7 9 2 231.88 32.3
-2 -7 2 173.58 30.1
-2 -7 2 188.58 28.8
3 6 -2 39.8 12.5
6 -9 -2 18.3 20.5
-9 3 -2 21.4 14.4
-9 3 -2 44.2 20.7
-3 -6 2 28.4 16.1
-3 -6 2 -0.3 17.7
-6 9 2 12.5 16.9
5 -9 -2 81.09 25.1
4 5 -2 105.59 16.6
-9 4 -2 111.79 23.4
-9 4 -2 113.89 20.5
-5 9 2 128.29 22.8
-4 -5 2 130.89 29.1
-9 5 -2 181.98 27
4 -9 -2 251.17 35.8
5 4 -2 210.48 22.5
-9 5 -2 249.08 29.3
-4 9 2 201.78 28
-5 -4 2 209.08 34.3
-9 6 -2 380.56 40.2
6 3 -2 399.96 31.3
3 -9 -2 413.86 46.9
-3 9 2 444.66 38.8
-6 -3 2 436.16 48.2
-9 7 -2 227.08 31.2
2 -9 -2 219.18 35.1
9 -7 2 235.28 30.1
-2 9 2 257.17 29.8
-7 -2 2 262.07 26.5
-7 -2 2 262.77 39.8
1 -9 -2 197.88 26.7
-9 8 -2 210.48 31.8
1 -9 -2 257.87 36.7
-8 -1 2 219.48 37.4
9 -8 2 281.97 34.3
-8 -1 2 249.18 26.5
0 -9 -2 641.04 49.6
0 -9 -2 612.14 57.69
-9 9 -2 521.45 51.79
-9 0 2 540.55 43.6
-9 0 2 627.84 59.09
9 -9 2 497.45 51.19
-9 10 -2 436.46 50.39
-1 -9 -2 430.96 46.7
-1 -9 -2 462.25 50.29
9 -10 2 469.25 50.99
-10 1 2 454.85 53.79
-10 1 2 468.55 40.9
-9 11 -2 58.49 26.5
-2 -9 -2 78.79 26.7
-2 -9 -2 113.29 28
-11 2 2 66.69 28.1
9 -11 2 99.39 31.7
-11 2 2 53.79 19.3
-3 -9 -2 34.8 25.2
-9 12 -2 13.2 24.6
-12 3 2 39.6 20.3
9 -12 2 -4 25.5
-12 3 2 80.79 30.5
12 -10 -2 19.8 26.4
-10 -2 -2 4.1 33.9
2 -12 2 -7.4 25.8
-12 10 2 20.4 25.3
11 -10 -2 28.6 22
-10 -1 -2 37.8 31.8
-11 10 2 57.29 27
1 -11 2 36.8 26.6
-10 0 -2 174.68 41.4
10 -10 -2 224.28 35.6
0 -10 2 180.08 37.2
0 -10 2 199.48 30.6
-10 10 2 181.78 34.7
-10 1 -2 509.95 57.69
9 -10 -2 431.06 51.49
-9 10 2 428.46 49.5
-1 -9 2 508.15 47.4
-1 -9 2 464.05 51.39
-10 2 -2 377.96 35.1
-10 2 -2 427.46 49.2
8 -10 -2 376.16 47.2
-8 10 2 320.27 41.2
-2 -8 2 298.27 40.3
-2 -8 2 357.36 42.1
-10 3 -2 248.68 36.7
-10 3 -2 224.28 28.9
7 -10 -2 372.96 44.7
-3 -7 2 265.57 38.3
-7 10 2 250.87 36
-10 4 -2 161.58 29
6 -10 -2 153.48 32.8
-10 4 -2 216.88 27.5
-4 -6 2 194.48 33.7
-6 10 2 189.48 31.2
5 -10 -2 264.27 41.1
-10 5 -2 275.17 33.2
-5 -5 2 187.08 37.1
-5 10 2 282.77 34.6
4 -10 -2 553.14 54.39
-10 6 -2 479.55 44.9
-4 10 2 418.46 42.6
-6 -4 2 479.65 53.59
-10 7 -2 574.04 52.79
3 -10 -2 704.93 61.49
-3 10 2 589.74 49.3
-7 -3 2 605.34 61.29
-10 8 -2 454.95 48.3
2 -10 -2 372.16 46.7
-8 -2 2 330.97 48.8
-8 -2 2 361.56 34.9
10 -8 2 398.46 42.2
-10 9 -2 269.47 37.8
1 -10 -2 249.88 38.9
-9 -1 2 181.98 24.8
-9 -1 2 232.08 41.7
10 -9 2 172.18 31.6
0 -10 -2 279.27 40.5
-10 10 -2 220.28 36.7
10 -10 2 189.98 34.4
-10 0 2 169.88 25.7
-10 0 2 209.88 41.5
-10 11 -2 82.09 29
-1 -10 -2 89.69 29.2
10 -11 2 108.29 30.4
-11 1 2 86.09 21.4
-11 1 2 78.59 31.9
-2 -10 -2 50.79 26.8
-10 12 -2 64.89 30
-12 2 2 99.89 33.1
-12 2 2 70.39 24.4
10 -12 2 91.59 32.5
-11 0 -2 30.7 32.7
11 -11 -2 79.09 29.2
-11 11 2 19.2 27.6
0 -11 2 85.99 31.1
10 -11 -2 146.99 33.7
-11 1 -2 117.49 37
-1 -10 2 123.69 28
-10 11 2 117.19 31.8
9 -11 -2 93.69 31
-11 2 -2 101.69 32.8
-9 11 2 72.49 27.7
-2 -9 2 88.79 27.3
-11 3 -2 67.69 20.4
-11 3 -2 90.89 29.5
8 -11 -2 77.99 29.3
-3 -8 2 110.09 28.8
-8 11 2 146.59 30.9
-11 4 -2 352.16 43.1
7 -11 -2 293.77 43.4
-11 4 -2 286.57 34.4
-4 -7 2 298.17 43.2
-7 11 2 300.07 39.6
6 -11 -2 260.37 41.8
-11 5 -2 278.27 34.3
-5 -6 2 221.48 40.1
-6 11 2 273.27 36.9
5 -11 -2 167.28 37.2
-11 6 -2 140.59 27.5
-5 11 2 209.68 31.7
-6 -5 2 151.38 36.7
-11 7 -2 372.06 42.8
4 -11 -2 411.96 52.29
-7 -4 2 296.67 48
-4 11 2 300.87 36.9
3 -11 -2 282.87 45.1
-11 8 -2 276.37 39
-8 -3 2 261.17 45.7
2 -11 -2 144.79 35.5
-11 9 -2 108.99 29.1
11 -9 2 125.09 27.5
-9 -2 2 121.09 36.9
-11 10 -2 6.3 23
1 -11 -2 57.29 29.2
11 -10 2 15.2 22.5
-10 -1 2 0.3 28.9
0 -11 -2 98.79 31.9
-11 11 -2 74.09 30.8
11 -11 2 82.89 28.5
-11 0 2 72.89 35.1
-12 2 -2 81.89 33.9
10 -12 -2 73.39 31.5
-2 -10 2 43 26.2
-10 12 2 50.19 27.9
9 -12 -2 31.6 28.4
-12 3 -2 28.8 27.6
-3 -9 2 41.7 26.3
-9 12 2 27.5 24.7
8 -12 -2 151.78 37.5
-12 4 -2 155.88 28
-4 -8 2 166.78 36
-8 12 2 201.98 35.6
-12 5 -2 377.76 43.9
7 -12 -2 379.06 52.69
-7 12 2 442.56 49.6
-5 -7 2 400.76 53.39
6 -12 -2 92.09 31.9
-12 6 -2 96.89 25.5
-6 -6 2 82.89 31.7
-6 12 2 65.39 25.5
5 -12 -2 19.1 27.6
-12 7 -2 -31.2 17.4
-5 12 2 0.8 18.8
-7 -5 2 -23.8 23.7
-12 8 -2 106.69 29.4
4 -12 -2 145.29 39.3
-8 -4 2 136.39 38.6
3 -12 -2 28.4 31.2
-9 -3 2 88.79 37.2
-12 10 -2 21 24.5
2 -12 -2 7 29.3
-10 -2 2 9.2 31.8
7 -13 -2 84.29 35.9
-7 13 2 66.79 27.7
-6 -7 2 129.49 37.6
6 -13 -2 12.1 30
-7 -6 2 57.09 32.8
0 0 -3 46.2 4.7
0 0 3 61.59 5.1
-1 0 -3 47.3 5.6
-1 1 3 54.49 6.1
0 -1 3 63.49 7.1
-1 1 -3 53.49 6.4
0 -1 -3 61.39 6.8
0 -1 -3 50.39 4.7
-1 0 3 49.7 6.4
0 1 3 49 4.4
-1 -1 -3 1404.26 76.69
2 -1 -3 1375.16 74.59
1 -2 3 1373.76 76.79
1 -2 3 1431.36 74.89
-2 1 3 1454.15 75.39
-2 -1 -3 1639.54 77.49
3 -2 -3 1577.34 81.29
-1 3 -3 1581.14 81.29
-3 2 3 1374.26 79.49
1 -3 3 1435.16 79.99
1 -3 3 1272.57 82.29
-2 0 -3 1686.23 89.59
0 2 -3 1609.44 90.49
-2 0 -3 1656.93 92.49
2 -2 -3 1635.84 91.79
0 -2 3 1761.42 91.99
-2 2 3 1803.62 91.59
0 -2 3 1794.72 91.89
1 1 -3 1358.46 74.29
1 -2 -3 1421.46 76.49
-2 1 -3 1381.06 74.99
-2 1 -3 1395.96 75.19
1 -2 -3 1413.26 73.49
-1 -1 3 1367.16 73.49
-1 -1 3 1430.06 74.59
-1 2 3 1424.66 74.69
-2 2 -3 1631.04 92.59
0 -2 -3 1564.44 91.89
0 2 3 1862.01 90.09
-2 0 3 1779.02 93.89
-2 0 3 1750.92 91.49
-3 1 3 126.29 14.7
1 2 3 134.29 8
1 2 3 129.99 8.6
-3 1 3 124.29 12.3
4 -2 -3 1452.35 71.39
-2 4 -3 1382.36 74.09
-2 -2 -3 1438.66 76.59
2 2 3 1251.17 67.69
-4 2 3 1279.07 72.89
2 -4 3 1130.19 74.69
2 -4 3 1256.77 69.99
-4 2 3 1215.28 72.59
-2 5 -3 1783.52 105.39
-3 -2 -3 1740.33 108.39
-3 -2 -3 1831.72 99.59
5 -3 -3 1821.62 103.69
-5 3 3 2049.79 104.39
2 -5 3 1987.3 109.49
2 -5 3 2063.09 102.49
-3 -1 -3 6761.62 344.27
4 -3 -3 6677.23 348.67
-4 3 3 6687.83 345.47
1 -4 3 6591.94 347.37
3 -3 -3 6361.06 322.07
-3 0 -3 6050.69 317.77
0 3 -3 6243.38 319.47
0 -3 3 6327.37 321.97
0 -3 3 6307.37 321.37
-3 3 3 5649.13 320.67
1 2 -3 61.49 7.9
2 -3 -3 63.69 6.2
2 -3 -3 63.99 11
-3 1 -3 66.09 10.3
-3 1 -3 61.19 8.7
-1 -2 3 95.69 12
-2 3 3 130.39 12.1
-3 2 -3 1628.94 79.99
1 -3 -3 1550.24 79.39
-3 2 -3 1669.93 81.89
-1 3 3 1342.37 79.39
-2 -1 3 1364.96 78.99
-2 -1 3 1357.66 77.09
0 -3 -3 6042.5 322.57
-3 3 -3 6179.98 319.77
-3 3 -3 6148.19 323.37
0 3 3 6237.18 319.87
-3 0 3 6301.67 325.17
-3 0 3 6211.78 321.17
3 -3 3 6206.18 323.57
-1 -3 -3 895.81 56.69
-4 1 3 749.73 55.29
-4 1 3 1042.8 54.69
1 3 3 1012.9 50.79
-3 5 -3 145.29 17.8
5 -2 -3 154.78 12.9
-2 -3 -3 127.49 19.6
-5 2 3 150.58 16.2
2 3 3 141.49 11.2
3 -5 3 172.68 21.6
6 -3 -3 185.48 17.3
-3 6 -3 214.98 23.6
-3 -3 -3 178.88 24.5
3 -6 3 320.57 29.2
7 -4 -3 44.4 11.1
-4 -3 -3 33.5 17.3
-3 7 -3 33.6 13.9
-7 4 3 53.59 14.8
4 3 3 63.29 8.3
3 -7 3 66.69 10.3
3 -7 3 41 17.2
-2 6 -3 1062.49 69.69
-4 -2 -3 1118.19 63.59
6 -4 -3 1061.89 68.59
-6 4 3 1247.28 67.19
2 -6 3 1245.38 67.09
2 -6 3 1363.46 76.69
-1 5 -3 3248.97 176.08
-4 -1 -3 3146.29 180.68
-4 -1 -3 3257.07 171.98
5 -4 -3 3172.28 177.18
-5 4 3 3338.27 178.28
-5 4 3 3386.66 172.18
1 -5 3 3420.46 176.08
1 -5 3 3350.16 180.78
0 4 -3 6439.86 353.86
-4 0 -3 7014.7 359.46
-4 0 -3 6759.62 352.36
4 -4 -3 6620.14 349.37
4 -4 -3 6842.12 357.76
0 -4 3 6907.01 356.96
-4 4 3 7159.98 357.46
3 -4 -3 897.31 58.39
-4 1 -3 885.81 54.09
-1 -3 3 1074.79 56.79
-1 -3 3 987.9 58.79
2 2 -3 1386.46 73.89
-4 2 -3 1430.96 76.69
2 -4 -3 1359.96 72.89
-4 2 -3 1415.86 76.79
-2 4 3 1283.87 75.89
-2 -2 3 1302.27 73.89
-4 3 -3 6880.21 349.96
-4 3 -3 7005.2 352.86
1 -4 -3 6827.72 353.86
1 -4 -3 6526.75 350.36
-3 -1 3 6484.55 349.47
4 -3 3 6674.43 351.86
-3 -1 3 6855.81 346.87
-3 -1 3 6717.73 355.46
-1 4 3 6712.73 350.26
0 -4 -3 6834.12 359.66
-4 4 -3 6698.33 363.16
0 -4 -3 6645.33 358.56
-4 4 -3 6830.52 354.36
-4 0 3 7136.79 362.06
-4 0 3 6652.73 351.86
0 4 3 6927.11 355.16
-4 0 3 6818.62 356.26
4 -4 3 7177.18 360.36
-1 -4 -3 1551.14 91.09
-1 -4 -3 1507.45 89.39
-4 5 -3 1477.25 90.09
-5 1 3 1608.44 91.99
1 4 3 1598.94 84.19
4 -5 3 1597.84 92.69
-5 1 3 1590.04 87.39
-4 6 -3 7.7 11.9
-2 -4 -3 40 11.5
-2 -4 -3 24.9 13.8
2 4 3 55.99 7.7
-6 2 3 57.19 14.6
-6 2 3 62.79 12.5
-3 -4 -3 12.1 10.3
-3 -4 -3 -2.3 14.2
-4 7 -3 -2.5 12.3
-7 3 3 20.9 12.4
-7 3 3 9.3 10.8
3 4 3 17.9 6.4
-4 -4 -3 36.3 20.2
-4 -4 -3 53.19 13.8
-4 8 -3 54.49 17.7
8 -4 -3 51.19 11.3
-8 4 3 66.99 16.7
-8 4 3 64.79 16.4
4 -8 3 56.59 20.7
-5 -4 -3 14.9 12.7
9 -5 -3 25.4 11.9
-4 9 -3 31.8 17.7
-5 -4 -3 36.5 22.8
4 -9 3 1.2 20
-9 5 3 5.9 15.4
-3 8 -3 167.88 24.2
-5 -3 -3 139.29 29
8 -5 -3 154.38 19.8
3 -8 3 171.38 18.1
-8 5 3 178.98 25.4
3 -8 3 184.08 28.3
-8 5 3 215.28 28.3
-5 -2 -3 59.69 9.1
7 -5 -3 65.69 14.2
-2 7 -3 20.8 12.3
2 -7 3 27.3 16.9
2 -7 3 34.6 10
-7 5 3 20.4 9
-5 -1 -3 479.75 41
-5 -1 -3 469.65 28.1
6 -5 -3 405.16 34.3
-1 6 -3 421.96 33.3
-6 5 3 435.06 26.3
1 -6 3 431.56 38.3
-6 5 3 438.66 35.6
1 -6 3 455.55 33.1
5 -5 -3 2457.15 138.19
-5 0 -3 2466.75 131.59
-5 0 -3 2394.76 139.79
0 5 -3 2417.46 133.59
-5 5 3 2490.95 137.69
0 -5 3 2636.74 138.99
0 -5 3 2447.06 136.69
-5 1 -3 1557.74 85.39
4 -5 -3 1562.04 91.39
-5 1 -3 1505.35 90.99
1 4 -3 1541.55 85.39
-4 5 3 1586.14 89.69
-1 -4 3 1548.05 90.69
3 -5 -3 152.08 20.2
3 -5 -3 154.78 9.9
2 3 -3 176.98 15
-5 2 -3 146.59 18.9
-5 2 -3 153.78 16.9
-2 -3 3 148.89 16.8
-2 -3 3 145.79 21.1
-3 5 3 174.68 19.1
-5 3 -3 1793.52 109.49
2 -5 -3 1872.81 105.99
-3 -2 3 2080.89 106.89
-3 -2 3 2128.19 105.79
1 -5 -3 3080.19 171.18
1 -5 -3 3051.39 174.88
-5 4 -3 3076.89 169.58
-5 4 -3 3062.99 173.18
-4 -1 3 3430.16 166.38
5 -4 3 3353.26 173.68
-4 -1 3 3253.17 169.78
-1 5 3 3201.48 170.58
-4 -1 3 3275.47 177.28
0 -5 -3 2301.87 133.89
-5 5 -3 2447.66 128.69
0 -5 -3 2454.65 135.69
-5 0 3 2468.45 131.09
0 5 3 2388.96 129.89
-5 0 3 2442.56 138.09
5 -5 3 2472.35 136.19
-1 -5 -3 169.68 24.6
-5 6 -3 202.78 26.1
-5 6 -3 242.28 17.6
-1 -5 -3 287.17 27
-6 1 3 281.77 23.4
5 -6 3 267.37 30
1 5 3 303.07 20.4
-6 1 3 235.18 28.7
-5 7 -3 32.2 6.7
-5 7 -3 25.7 13.5
-2 -5 -3 56.29 17.6
-2 -5 -3 19.2 12.2
2 5 3 31.2 8.5
-7 2 3 30 15.3
-7 2 3 44.3 12.9
-3 -5 -3 10.3 12.7
-3 -5 -3 21.4 19.2
-5 8 -3 -7 13.8
-8 3 3 12 13.8
-8 3 3 12.8 12.5
-4 -5 -3 0.4 12.8
-4 -5 -3 14.5 20.9
-5 9 -3 21.2 17
-9 4 3 -11.1 12.9
-9 4 3 10.5 14.5
5 -9 3 -1.6 18.2
-5 10 -3 135.29 26.1
-5 -5 -3 141.49 33
5 -10 3 90.29 30.5
-10 5 3 72.39 21.4
-6 -5 -3 453.85 55.89
-5 11 -3 461.15 45.8
-11 6 3 322.47 40.8
5 -11 3 303.07 46.8
-6 -4 -3 100.89 31.8
-4 10 -3 100.69 24.2
-10 6 3 91.19 23.3
4 -10 3 112.49 30.4
-6 -3 -3 326.57 42.2
9 -6 -3 319.97 29.7
-3 9 -3 306.07 33.9
3 -9 3 242.38 37.5
-9 6 3 195.58 29.9
-2 8 -3 729.63 54.99
8 -6 -3 714.43 54.59
-6 -2 -3 862.41 65.29
-6 -2 -3 795.72 47.9
2 -8 3 847.22 51.89
2 -8 3 900.71 64.19
-8 6 3 852.51 58.49
-6 -1 -3 468.75 43.9
-6 -1 -3 469.95 31
-1 7 -3 437.56 36.5
7 -6 -3 440.86 38.4
1 -7 3 483.35 36.5
1 -7 3 518.25 44.4
0 6 -3 22.5 10.6
-6 0 -3 17.1 8.1
6 -6 -3 0.6 11.7
-6 0 -3 17.2 16.4
0 -6 3 35.5 12.9
0 -6 3 13 13
-6 6 3 33.3 14.3
-6 1 -3 195.08 26.6
1 5 -3 236.38 21.8
5 -6 -3 233.38 28
-6 1 -3 250.17 21.2
-1 -5 3 297.87 27.7
-1 -5 3 273.57 27.9
-5 6 3 284.97 27.6
-6 2 -3 25.8 9.6
2 4 -3 28.2 8.9
-6 2 -3 22.9 12.6
4 -6 -3 19.8 13.3
-2 -4 3 53.79 15.3
-4 6 3 48.5 13.7
3 3 -3 209.38 18.3
-6 3 -3 175.68 22.2
3 -6 -3 208.28 15
-6 3 -3 214.28 22.2
-3 -3 3 340.97 31.1
2 -6 -3 1083.49 67.49
2 -6 -3 1133.49 74.89
-6 4 -3 1100.19 71.79
-4 -2 3 1261.87 77.89
-4 -2 3 1264.27 65.79
6 -4 3 1216.08 70.49
-2 6 3 1227.58 70.39
-4 -2 3 1221.18 67.79
1 -6 -3 453.55 34.1
-6 5 -3 470.95 30.8
1 -6 -3 426.16 37.9
-6 5 -3 440.56 36
-5 -1 3 431.16 39.5
6 -5 3 397.26 34.4
-5 -1 3 400.66 30.1
-5 -1 3 455.25 25.9
-1 6 3 437.06 35.2
0 -6 -3 66.39 17.2
0 -6 -3 26.2 13.2
-6 6 -3 20.6 7.9
6 -6 3 43.9 15.8
-6 0 3 18.7 15.1
-6 0 3 21.1 9.6
-1 -6 -3 62.79 18.6
-1 -6 -3 80.89 18.5
-7 1 3 46.8 17.7
6 -7 3 14.9 16
-7 1 3 54.89 13.3
-6 8 -3 111.49 22.3
-2 -6 -3 64.99 22.3
-2 -6 -3 81.69 19.6
-8 2 3 117.29 23.5
6 -8 3 149.29 28.4
-8 2 3 106.99 18.6
-3 -6 -3 -16.4 13.3
-6 9 -3 -18.6 16.2
-3 -6 -3 -15.8 17.7
-9 3 3 8.9 14.8
-9 3 3 -3.5 13.1
6 -9 3 -22.7 17.2
-4 -6 -3 30.5 16.4
-6 10 -3 -2.9 17.6
-4 -6 -3 28.8 24.2
-10 4 3 22.4 16.6
-10 4 3 -3.8 15.6
6 -10 3 11.7 24.2
-6 11 -3 69.19 25
-5 -6 -3 106.19 31.8
-11 5 3 83.69 23.1
6 -11 3 84.99 31.2
-6 12 -3 457.05 51.39
-6 -6 -3 468.45 61.19
-12 6 3 523.85 51.19
6 -12 3 570.94 65.09
-5 12 -3 708.33 62.69
-7 -5 -3 666.43 72.39
-12 7 3 585.74 58.79
5 -12 3 783.32 73.89
-4 11 -3 189.28 32.6
-7 -4 -3 236.18 43.3
-11 7 3 157.68 31.1
4 -11 3 200.48 39.6
10 -7 -3 39.1 16.9
-3 10 -3 22.5 18.7
-7 -3 -3 23.2 25
-10 7 3 17.3 19.3
3 -10 3 58.69 24.9
-7 -2 -3 1292.27 91.09
9 -7 -3 1238.58 78.69
-2 9 -3 1344.97 81.49
2 -9 3 1259.37 88.59
2 -9 3 1145.49 74.29
-9 7 3 1206.88 82.19
8 -7 -3 1405.16 93.19
-1 8 -3 1449.35 89.99
-7 -1 -3 1435.66 84.09
-7 -1 -3 1489.25 100.09
1 -8 3 1629.54 90.49
1 -8 3 1617.44 99.49
-8 7 3 1510.15 94.79
0 7 -3 696.33 47.4
-7 0 -3 778.72 59.39
-7 0 -3 693.53 44
7 -7 -3 739.93 53.39
0 -7 3 682.53 50.79
-7 7 3 588.84 51.09
0 -7 3 691.83 54.79
-7 1 -3 55.59 12.4
1 6 -3 64.59 13.5
6 -7 -3 96.99 21.6
-7 1 -3 67.39 20.5
-6 7 3 62.99 17.6
-1 -6 3 71.79 18.1
-1 -6 3 52.29 16.8
5 -7 -3 30.7 15.4
-7 2 -3 17.4 15.1
2 5 -3 37 10.9
-7 2 -3 40.1 11.8
-2 -5 3 57.99 14.4
-2 -5 3 59.19 17.7
-5 7 3 38.6 14.4
-7 3 -3 -6.2 9.1
3 4 -3 11.8 8.6
-7 3 -3 2.9 12.6
4 -7 -3 17.9 19
-4 7 3 27.1 12.8
-3 -4 3 22.6 16.2
-7 4 -3 36.7 13.7
3 -7 -3 39.3 8.2
-7 4 -3 50.39 14.8
4 3 -3 26 9.1
-3 7 3 62.09 14.4
-4 -3 3 62.29 11.1
2 -7 -3 45.9 16.5
-7 5 -3 51.59 15.9
-7 5 -3 56.69 14.4
2 -7 -3 23.1 10.4
7 -5 3 34.4 12.7
-5 -2 3 26.8 10
-2 7 3 16.8 11.4
-5 -2 3 25.1 12
-7 6 -3 525.05 44.1
1 -7 -3 466.15 42.4
-7 6 -3 487.65 40.8
1 -7 -3 460.65 36.8
-1 7 3 446.46 34.9
-6 -1 3 457.45 33
-6 -1 3 470.65 44.7
7 -6 3 433.06 38.9
0 -7 -3 698.73 50.99
0 -7 -3 816.72 55.29
7 -7 3 657.93 52.19
-7 0 3 655.43 45
-7 0 3 637.14 55.09
0 7 3 615.04 44.2
-1 -7 -3 156.38 26.3
-7 8 -3 118.79 24.6
-1 -7 -3 204.58 28.8
-8 1 3 210.68 32.1
7 -8 3 140.39 26.8
-8 1 3 167.78 21.7
-2 -7 -3 2.8 16.6
-2 -7 -3 -6.7 16.6
-7 9 -3 14.9 17.9
7 -9 3 3 19.2
-9 2 3 -4.2 17.1
-9 2 3 23.3 15.1
-3 -7 -3 220.48 36
-3 -7 -3 234.88 32.9
-7 10 -3 193.88 32.9
7 -10 3 255.17 40
-10 3 3 196.68 32
-10 3 3 233.58 30
-4 -7 -3 173.48 35.8
-7 11 -3 100.59 27.6
-11 4 3 95.99 24.3
7 -11 3 128.29 34
-5 -7 -3 8.6 25.7
-7 12 -3 30.3 22.9
7 -12 3 1.7 25.6
-12 5 3 8.7 20.2
-8 -4 -3 271.67 48.7
-4 12 -3 332.07 42.5
4 -12 3 369.96 52.79
-12 8 3 330.87 45.2
-3 11 -3 26.9 21.1
-8 -3 -3 40.5 30.6
-11 8 3 17.1 20.9
3 -11 3 -3.8 23.8
-2 10 -3 387.96 40.2
10 -8 -3 355.76 39.2
-8 -2 -3 445.16 54.19
2 -10 3 308.57 43.9
-10 8 3 322.07 40.8
-8 -1 -3 945.61 74.99
9 -8 -3 939.51 66.09
-1 9 -3 869.11 61.59
1 -9 3 879.31 70.09
1 -9 3 821.02 60.19
-9 8 3 909.91 67.59
-8 0 -3 813.22 54.39
8 -8 -3 932.31 66.89
-8 0 -3 862.91 70.69
0 8 -3 828.42 58.99
0 -8 3 1065.59 70.39
0 -8 3 916.51 62.39
-8 8 3 827.62 64.79
-8 1 -3 171.98 30.6
7 -8 -3 168.08 27.7
-8 1 -3 197.78 22.1
1 7 -3 190.58 22.5
-1 -7 3 148.99 26.4
-7 8 3 138.89 25.5
-1 -7 3 192.28 28.2
-8 2 -3 121.59 26
2 6 -3 131.89 17.9
-8 2 -3 120.39 18.1
6 -8 -3 108.09 25
-2 -6 3 89.69 22.3
-2 -6 3 109.39 20.6
-6 8 3 118.09 22.2
-8 3 -3 40.2 17.9
-8 3 -3 8.4 11.4
5 -8 -3 27.9 16.9
3 5 -3 18.3 10.3
-5 8 3 0.9 13.7
-3 -5 3 20.3 12.4
-3 -5 3 8.3 15.9
-8 4 -3 54.59 17.5
-8 4 -3 53.09 15.5
4 4 -3 55.39 12.1
-4 -4 3 28 20.5
-4 8 3 52.49 16.6
-8 5 -3 172.38 21.9
3 -8 -3 134.59 25.5
5 3 -3 139.29 17.1
-8 5 -3 121.79 22.2
-3 8 3 228.38 25.5
-8 6 -3 703.23 61.09
2 -8 -3 682.83 48.8
2 -8 -3 755.62 59.69
-8 6 -3 724.33 55.19
8 -6 3 824.92 54.49
-2 8 3 744.53 51.99
-6 -2 3 830.92 63.29
-6 -2 3 808.12 49.2
1 -8 -3 1550.64 98.19
-8 7 -3 1378.36 94.09
1 -8 -3 1438.36 90.39
-7 -1 3 1515.75 87.29
8 -7 3 1564.74 94.49
-1 8 3 1504.25 88.69
-7 -1 3 1613.24 101.49
0 -8 -3 857.31 67.49
-8 8 -3 796.32 65.19
0 -8 -3 912.21 64.69
-8 0 3 954.7 71.99
8 -8 3 996.2 68.19
-8 0 3 972.8 59.49
-1 -8 -3 49.99 21.6
-8 9 -3 35.2 20.8
-1 -8 -3 49.8 21.7
8 -9 3 32.8 22.2
-9 1 3 80.99 25.6
-9 1 3 72.39 17.9
-2 -8 -3 184.88 33.5
-8 10 -3 181.88 32.8
-2 -8 -3 209.68 33
-10 2 3 206.78 28
8 -10 3 183.68 36
-10 2 3 253.67 36.4
-3 -8 -3 455.75 53.49
-8 11 -3 522.45 52.99
-3 -8 -3 585.34 52.49
8 -11 3 494.75 58.29
-11 3 3 453.95 45.6
-11 3 3 464.95 51.69
-4 -8 -3 211.48 39.5
-8 12 -3 193.18 36
-12 4 3 180.38 31.1
8 -12 3 205.38 42.1
-9 -3 -3 120.39 40.8
-12 9 3 59.99 28.6
3 -12 3 30.1 31
-9 -2 -3 113.69 37.5
11 -9 -3 59.89 21.9
-2 11 -3 70.09 24.2
2 -11 3 41.5 27.9
-11 9 3 83.09 27.3
-1 10 -3 263.57 34.6
10 -9 -3 264.07 36.3
-9 -1 -3 249.97 44
1 -10 3 360.36 44.9
-10 9 3 255.27 37.1
0 9 -3 294.77 33.2
-9 0 -3 252.97 42.5
9 -9 -3 265.77 37.2
0 -9 3 296.67 34.8
0 -9 3 289.17 39.6
-9 9 3 277.17 39
1 8 -3 39.7 16.6
8 -9 -3 49.99 21.7
-9 1 -3 53.19 14.9
-9 1 -3 15.6 24.1
-8 9 3 89.29 23.3
-1 -8 3 76.19 23.4
-1 -8 3 68.09 21.6
2 7 -3 -12.9 11.2
-9 2 -3 -12.4 18.9
-9 2 -3 5.3 12.1
7 -9 -3 9 19.3
-7 9 3 -5 15.4
-2 -7 3 10.1 17.8
-2 -7 3 11.6 15.6
-9 3 -3 7.7 12.8
3 6 -3 3.8 11.3
-9 3 -3 8.4 19
6 -9 -3 23.2 20.2
-6 9 3 -19.7 14.3
-3 -6 3 1.1 13.3
-3 -6 3 5.3 18.2
-9 4 -3 -7.8 15.2
-9 4 -3 -3 12.2
5 -9 -3 5.2 15.8
4 5 -3 -4.8 9.4
-5 9 3 -15.2 13.6
-4 -5 3 14.6 19.1
-9 5 -3 32.1 16.7
-9 5 -3 33 17
5 4 -3 8.5 10.4
4 -9 -3 20 19.5
-4 9 3 14.1 15.5
-5 -4 3 44.3 21.5
3 -9 -3 365.06 43.5
6 3 -3 296.07 26.4
-9 6 -3 334.27 35.6
-6 -3 3 298.97 41.3
-3 9 3 183.98 27.7
2 -9 -3 1331.17 87.99
-9 7 -3 1253.47 82.09
9 -7 3 1250.77 79.49
-7 -2 3 1206.08 73.19
-2 9 3 1121.69 75.39
-7 -2 3 1148.09 87.39
-9 8 -3 819.02 65.39
1 -9 -3 891.41 60.99
1 -9 -3 876.51 69.79
9 -8 3 833.52 65.19
-8 -1 3 952.7 73.59
-8 -1 3 864.11 57.09
-9 9 -3 263.47 37.8
0 -9 -3 229.08 36.9
0 -9 -3 284.57 34.7
9 -9 3 230.88 35.9
-9 0 3 390.86 47.4
-9 0 3 280.77 31.1
-1 -9 -3 150.08 32
-9 10 -3 161.78 32
-1 -9 -3 176.08 31
-10 1 3 171.78 25.6
-10 1 3 107.29 32.4
9 -10 3 149.79 32.3
-2 -9 -3 564.54 54.59
-9 11 -3 445.76 53.89
-2 -9 -3 539.65 53.59
-11 2 3 486.75 45.7
9 -11 3 554.94 58.69
-11 2 3 523.85 57.79
-9 12 -3 406.66 51.49
-3 -9 -3 537.95 57.99
-12 3 3 463.25 45.2
9 -12 3 477.05 57.99
-10 -2 -3 -3.2 31.8
2 -12 3 -30.2 25.8
-12 10 3 17.6 25.5
11 -10 -3 10.9 20
-10 -1 -3 36.7 32.4
1 -11 3 -3.6 23.9
-11 10 3 10 22.4
10 -10 -3 -8.2 20.7
-10 0 -3 22.1 28.7
0 -10 3 -10.3 15.3
0 -10 3 -31.3 20.3
-10 10 3 -10 20.2
-10 1 -3 125.59 34.4
9 -10 -3 179.88 33.9
-1 -9 3 158.78 29.8
-1 -9 3 155.78 31.4
-9 10 3 130.49 31
8 -10 -3 179.08 35.1
-10 2 -3 275.77 29.6
-10 2 -3 247.48 39.6
-2 -8 3 259.77 36.4
-8 10 3 186.58 32.9
-10 3 -3 192.18 26
7 -10 -3 168.28 32.4
-10 3 -3 287.27 38.3
-3 -7 3 240.78 36.2
-7 10 3 154.98 28.4
6 -10 -3 -1.4 21.8
-10 4 -3 -12.7 17
-10 4 -3 12.3 15.5
-4 -6 3 55.39 24.6
-6 10 3 -3.7 17.1
-10 5 -3 130.39 26.1
5 -10 -3 119.89 28.6
-10 5 -3 90.19 21.9
-5 -5 3 94.89 29.4
-5 10 3 85.49 23.3
6 4 -3 90.59 21.8
4 -10 -3 92.79 27.8
-10 6 -3 70.59 21.3
-6 -4 3 138.09 31.4
-4 10 3 123.29 24
-10 7 -3 55.59 22.1
7 3 -3 37 13.4
3 -10 -3 23.6 22.5
-7 -3 3 15.5 24.4
-3 10 3 29.8 17.3
2 -10 -3 370.56 45.8
-10 8 -3 363.76 42.6
-8 -2 3 338.27 32.4
10 -8 3 311.77 37.3
-8 -2 3 265.07 44.7
-10 9 -3 356.06 42.8
1 -10 -3 222.18 39.6
-9 -1 3 240.98 28.8
-9 -1 3 255.67 43.8
10 -9 3 237.68 34.8
-10 10 -3 10.4 21.1
0 -10 -3 -3.1 23.4
10 -10 3 28.1 21.8
-10 0 3 5 15.2
-10 0 3 -0.2 25.4
-10 11 -3 148.59 32.5
-1 -10 -3 128.29 33.8
10 -11 3 142.99 33.9
-11 1 3 87.39 23.5
-11 1 3 99.19 33.8
-10 12 -3 172.38 38.1
-2 -10 -3 268.47 39.5
-12 2 3 272.87 34.9
-12 2 3 250.77 42.9
10 -12 3 266.27 44.2
-11 0 -3 8.3 33.6
11 -11 -3 61.99 26.6
0 -11 3 18.3 27.6
-11 11 3 27.3 26.6
-11 1 -3 208.28 43.9
10 -11 -3 189.58 36.2
-10 11 3 90.29 30.2
-1 -10 3 109.79 27.4
-11 2 -3 563.84 61.39
9 -11 -3 551.64 59.29
-9 11 3 578.74 56.59
-2 -9 3 461.05 53.09
-11 3 -3 483.95 41.8
8 -11 -3 520.75 56.39
-11 3 -3 586.64 58.59
-8 11 3 426.86 49.9
-3 -8 3 416.46 50.79
-11 4 -3 97.09 22.6
-11 4 -3 125.89 29.7
7 -11 -3 89.09 30.4
-4 -7 3 47.2 25.7
-7 11 3 68.69 24.9
6 -11 -3 62.59 28.5
-11 5 -3 54.79 20.6
-5 -6 3 117.99 31.3
-6 11 3 72.79 24.2
-11 6 -3 371.26 41.2
5 -11 -3 453.55 52.49
-5 11 3 345.27 41
-6 -5 3 341.67 48.4
4 -11 -3 176.48 36.4
-11 7 -3 142.59 30.3
-4 11 3 162.18 28.8
-7 -4 3 163.88 36.8
-11 8 -3 24.7 21.7
3 -11 -3 18.3 24.7
-8 -3 3 21.2 28.1
2 -11 -3 55.49 29
-11 9 -3 104.09 28.9
-9 -2 3 64.59 31.6
-11 10 -3 -12.9 21.1
1 -11 -3 -15.6 23
-10 -1 3 -26.4 24.9
11 -10 3 -7.8 21.1
-11 11 -3 22.2 25.1
0 -11 -3 61.19 31
11 -11 3 -0.4 23.1
-11 0 3 45.4 29.3
-12 2 -3 260.77 47.5
10 -12 -3 213.88 41.8
-10 12 3 307.57 44.2
-2 -10 3 179.78 35.4
-12 3 -3 514.45 61.29
9 -12 -3 540.35 62.59
-3 -9 3 561.64 57.39
-9 12 3 508.45 59.09
8 -12 -3 220.18 40.7
-12 4 -3 211.48 31.1
-4 -8 3 172.28 37.2
-8 12 3 183.98 35.7
-12 5 -3 33.2 20.5
7 -12 -3 17.7 27
-7 12 3 -11.6 19.9
-5 -7 3 -1.6 23.8
-12 6 -3 410.16 48.1
6 -12 -3 582.34 61.39
-6 12 3 448.76 50.59
-6 -6 3 460.15 56.89
-12 7 -3 575.34 57.29
5 -12 -3 785.32 71.79
-7 -5 3 605.44 66.59
4 -12 -3 285.07 46.6
-12 8 -3 308.67 41.5
-8 -4 3 303.17 49
3 -12 -3 74.29 33.4
-12 9 -3 62.39 26.6
-9 -3 3 76.59 35.4
2 -12 -3 -14.5 26.3
-12 10 -3 -23.1 23.3
-10 -2 3 -24 27.3
0 0 -4 7.5 3
-1 0 -4 212.98 13.1
-1 0 4 124.39 10.5
-1 0 4 101.39 9.2
0 1 4 126.79 8
-1 -1 -4 3270.47 177.18
2 -1 -4 3317.57 175.28
-2 1 4 3500.55 176.58
1 -2 4 3356.46 177.38
-2 1 4 3432.56 175.98
-2 -1 -4 2431.36 113.79
3 -2 -4 2442.26 117.99
-3 2 4 2103.79 116.09
1 -3 4 2070.49 119.59
2 1 4 2109.99 115.39
1 -3 4 2026.1 116.79
0 2 -4 1864.31 110.09
2 -2 -4 1880.61 110.79
-2 0 -4 1985.3 108.89
-2 0 -4 1957 111.69
-2 2 4 2359.86 111.29
0 -2 4 2330.47 111.49
0 -2 4 2235.98 111.39
1 -2 -4 3215.88 171.78
-2 1 -4 3298.57 173.28
1 1 -4 3243.58 172.68
-2 1 -4 3226.38 173.08
-1 -1 4 3455.55 173.48
-1 2 4 3450.15 172.58
0 -2 -4 1891.41 111.09
-2 2 -4 1899.21 111.69
0 2 4 2321.97 108.99
-2 0 4 2254.67 113.29
3 -1 -4 7206.88 376.56
-1 -2 -4 7523.65 380.86
-3 1 4 7218.48 380.06
4 -2 -4 4292.27 236.48
-2 -2 -4 4359.16 241.18
-2 4 -4 4471.25 239.38
2 -4 4 4615.94 242.18
2 2 4 4629.54 233.38
-4 2 4 4618.84 238.58
2 2 4 4740.03 233.08
-2 5 -4 2222.38 111.29
-3 -2 -4 2208.08 114.99
5 -3 -4 2079.09 108.29
2 -5 4 1821.72 106.59
2 -5 4 1846.52 112.99
-5 3 4 1822.42 107.59
-3 -1 -4 532.95 28
4 -3 -4 515.95 33.3
-1 4 -4 534.35 33
1 -4 4 378.96 33.6
-4 3 4 519.05 29.5
1 -4 4 485.75 31.7
-4 3 4 469.75 33.2
3 -3 -4 931.91 56.59
-3 0 -4 978.1 52.79
0 -3 4 968.4 56.59
0 -3 4 991.3 56.39
1 2 -4 7540.05 389.46
2 -3 -4 7533.75 387.16
-3 1 -4 7634.34 389.86
-3 1 -4 7783.12 391.46
2 -3 -4 7753.02 392.26
-2 3 4 7523.35 390.46
-1 -2 4 7188.78 389.36
-1 -2 4 7312.17 392.36
2 1 -4 2437.56 118.69
-3 2 -4 2413.66 121.69
1 -3 -4 2337.97 119.39
-3 2 -4 2395.36 120.19
-1 3 4 2077.09 119.19
-2 -1 4 2117.29 116.79
-2 -1 4 2067.09 119.59
0 -3 -4 966.4 54.89
-3 3 -4 914.11 51.89
-3 3 -4 901.11 55.29
0 3 4 1002.9 51.39
-3 0 4 941.31 53.29
3 -3 4 891.91 57.79
-1 -3 -4 4207.88 222.58
4 -1 -4 4133.59 215.48
1 3 4 4174.88 215.78
-4 1 4 4203.38 219.98
5 -2 -4 2359.86 125.19
-2 -3 -4 2337.17 132.49
-3 5 -4 2531.65 131.59
3 -5 4 2311.07 133.49
-5 2 4 2359.96 129.29
2 3 4 2349.96 123.19
-3 -3 -4 788.62 53.49
-3 6 -4 688.03 49
6 -3 -4 742.93 44.2
3 3 4 758.82 40.4
3 -6 4 737.03 52.69
-6 3 4 700.73 47.5
-3 7 -4 136.69 22.4
7 -4 -4 181.38 19.3
-4 -3 -4 151.28 27.1
3 -7 4 157.98 25.8
-7 4 4 215.78 26.8
3 -7 4 208.48 17.9
4 3 4 186.88 13.9
-7 4 4 165.58 22.4
-2 6 -4 714.23 47.2
6 -4 -4 679.43 45.3
-4 -2 -4 709.93 39.7
2 -6 4 754.82 44
2 -6 4 732.23 51.59
-6 4 4 682.03 43
-1 5 -4 1268.97 73.09
-4 -1 -4 1214.88 68.09
-4 -1 -4 1308.07 78.59
5 -4 -4 1178.88 73.89
-5 4 4 1284.37 68.19
1 -5 4 1342.17 72.89
-5 4 4 1325.97 75.19
1 -5 4 1237.68 76.29
-4 0 -4 377.26 24
0 4 -4 407.96 27.1
-4 0 -4 371.26 32.3
4 -4 -4 359.76 29.6
-4 4 4 384.16 29.3
0 -4 4 384.16 28.9
3 -4 -4 4326.47 214.28
3 -4 -4 4229.78 222.08
-4 1 -4 4206.48 221.38
-4 1 -4 4164.68 217.78
3 -4 -4 4056.29 213.78
-1 -3 4 4110.89 218.98
-1 -3 4 3977.5 221.48
2 -4 -4 4276.07 234.18
-4 2 -4 4358.56 231.98
2 -4 -4 4241.08 228.78
-2 4 4 4640.54 232.18
-2 -2 4 4533.95 229.48
1 -4 -4 493.15 36.1
-4 3 -4 591.64 36.2
1 -4 -4 532.55 33.2
-4 3 -4 567.74 32.7
4 -3 4 510.85 34.6
-1 4 4 512.35 32.5
-3 -1 4 478.75 36.8
-3 -1 4 489.25 32
-4 4 -4 388.06 24.5
0 -4 -4 376.56 29.7
-4 4 -4 341.77 28.6
0 -4 -4 397.26 29.2
4 -4 4 396.56 30.1
-4 0 4 364.46 31.5
0 4 4 392.16 24.6
-4 0 4 369.36 26.2
1 4 4 979.7 54.69
-5 1 4 1039.8 63.29
-5 1 4 986 58.59
-2 -4 -4 661.43 43.5
-4 6 -4 620.04 45.6
-2 -4 -4 614.24 47.3
2 4 4 664.33 36.7
-6 2 4 668.43 46
-6 2 4 619.54 42.7
7 -3 -4 22.4 7.5
-3 -4 -4 16.1 16.2
-4 7 -4 22.8 13.1
-3 -4 -4 36.9 12.1
4 -7 4 10.3 13.3
-7 3 4 7.3 11.2
3 4 4 5.8 5.5
-7 3 4 20.7 12.3
-4 -4 -4 90.19 24.5
-4 8 -4 51.49 18
-4 -4 -4 117.29 17.8
8 -4 -4 81.09 13
-8 4 4 98.49 18.1
-8 4 4 105.29 19.1
4 -8 4 100.09 25.1
-4 9 -4 318.57 36.7
-5 -4 -4 271.97 30.7
-5 -4 -4 323.67 40.8
9 -5 -4 281.07 26.9
4 -9 4 363.96 43.9
-9 5 4 356.76 36.3
-3 8 -4 165.38 24.7
-5 -3 -4 214.78 31.9
8 -5 -4 218.78 22.7
3 -8 4 147.69 17.9
-8 5 4 169.38 24.4
-8 5 4 194.08 28.2
3 -8 4 204.18 31.5
7 -5 -4 1052.59 68.29
-2 7 -4 1049.49 69.39
-5 -2 -4 1118.89 61.79
-7 5 4 1092.29 63.19
2 -7 4 1223.48 75.69
2 -7 4 1206.38 66.59
6 -5 -4 1435.26 83.89
-5 -1 -4 1458.35 88.89
-5 -1 -4 1455.65 76.89
-1 6 -4 1384.06 81.99
1 -6 4 1459.55 82.19
1 -6 4 1370.76 86.29
-6 5 4 1304.17 83.89
-6 5 4 1405.16 75.09
0 5 -4 1212.88 72.89
-5 0 -4 1238.68 78.89
-5 0 -4 1216.58 70.19
5 -5 -4 1178.18 76.49
-5 5 4 1350.76 77.39
0 -5 4 1367.36 76.39
0 -5 4 1431.66 78.59
1 4 -4 1406.36 71.89
-5 1 -4 1391.26 77.69
-5 1 -4 1344.07 71.09
4 -5 -4 1446.66 78.29
-4 5 4 1040 73.29
-1 -4 4 986.9 74.29
3 -5 -4 2511.65 134.09
3 -5 -4 2457.35 123.99
-5 2 -4 2485.85 131.79
2 3 -4 2392.06 127.39
-5 2 -4 2407.36 129.29
-2 -3 4 2365.96 128.29
-3 5 4 2158.18 129.79
-2 -3 4 2235.08 133.09
2 -5 -4 2080.69 108.39
3 2 -4 2166.08 109.09
-5 3 -4 2105.89 112.09
-3 -2 4 1927.61 106.69
-3 -2 4 1820.02 108.59
1 -5 -4 1258.77 76.09
-5 4 -4 1272.17 75.09
-5 4 -4 1194.48 70.69
1 -5 -4 1173.28 72.19
-1 5 4 1315.17 71.49
5 -4 4 1268.57 74.39
-4 -1 4 1369.96 79.29
-4 -1 4 1291.57 71.19
0 -5 -4 1125.09 74.29
-5 5 -4 1215.98 76.19
0 -5 -4 1224.98 76.19
-5 5 -4 1177.38 69.69
-5 0 4 1451.35 80.59
-5 0 4 1355.86 72.89
0 5 4 1278.07 70.69
5 -5 4 1396.76 77.89
-1 -5 -4 504.35 38.2
-5 6 -4 497.35 30.3
-1 -5 -4 437.06 39
-6 1 4 595.54 36.4
1 5 4 464.95 30.8
-6 1 4 475.55 40.3
5 -6 4 475.25 39.5
-2 -5 -4 298.77 34.5
-2 -5 -4 361.46 32
-5 7 -4 299.27 33.1
-7 2 4 359.56 29.9
-7 2 4 354.96 34.3
2 5 4 347.57 23.5
-3 -5 -4 79.19 23.1
-3 -5 -4 68.49 16.2
-5 8 -4 59.39 18.1
-8 3 4 87.89 19.1
-8 3 4 34.5 15.2
5 -8 4 99.79 25.1
-5 9 -4 11.3 17.8
-4 -5 -4 1.1 13.7
-4 -5 -4 14.5 19
-9 4 4 12.3 14.2
-9 4 4 15.4 15.4
5 -9 4 62.39 24.3
-5 10 -4 167.68 28.6
-5 -5 -4 159.18 24.6
-5 -5 -4 257.97 38.9
5 -10 4 177.68 35.4
-10 5 4 88.09 23.9
-6 -5 -4 196.48 40.8
-5 11 -4 213.28 33.8
5 -11 4 170.98 37.1
-11 6 4 184.68 31.6
-4 10 -4 347.67 41.8
-6 -4 -4 427.96 52.39
4 -10 4 524.35 54.39
-10 6 4 452.75 44.5
-3 9 -4 497.25 44.4
-6 -3 -4 454.75 47.3
9 -6 -4 449.46 36.6
3 -9 4 469.65 49
-9 6 4 355.56 40.4
-6 -2 -4 394.96 44.5
8 -6 -4 360.86 33.6
-2 8 -4 360.46 34.2
2 -8 4 363.66 39.3
-8 6 4 255.57 32.6
2 -8 4 336.67 29.6
-6 -1 -4 1044.9 60.09
-6 -1 -4 1007.5 73.99
-1 7 -4 1002.6 66.19
7 -6 -4 1009.3 67.79
1 -7 4 1115.99 72.89
-7 6 4 1091.29 70.29
1 -7 4 1140.59 66.49
0 6 -4 1150.68 69.09
6 -6 -4 1284.77 75.79
-6 0 -4 1263.17 66.39
-6 0 -4 1351.96 79.19
0 -6 4 1064.49 71.19
0 -6 4 1069.89 73.79
-6 6 4 995.3 72.19
5 -6 -4 501.95 41.1
-6 1 -4 546.35 34.3
1 5 -4 486.35 35
-6 1 -4 506.75 42.2
-1 -5 4 515.35 40.4
-1 -5 4 494.15 38.8
-5 6 4 511.05 39.4
-6 2 -4 636.54 41.3
-6 2 -4 629.74 45.5
2 4 -4 644.94 39.9
4 -6 -4 539.45 46.1
-2 -4 4 666.63 47.5
-4 6 4 633.94 43.8
-6 3 -4 708.13 49
3 -6 -4 702.93 41.7
-6 3 -4 766.82 48.5
3 3 -4 775.02 44.8
-3 -3 4 774.92 52.79
-3 6 4 716.53 48.1
-3 -3 4 751.12 44.5
-6 4 -4 684.33 44.4
2 -6 -4 648.04 48.5
2 -6 -4 685.43 42.6
-6 4 -4 706.23 47
-2 6 4 619.84 43.5
-4 -2 4 718.63 42.6
-4 -2 4 698.73 51.29
-4 -2 4 686.43 38.8
1 -6 -4 1371.26 80.49
-6 5 -4 1391.46 83.39
1 -6 -4 1464.55 85.89
-5 -1 4 1335.47 78.29
-5 -1 4 1369.26 87.29
6 -5 4 1395.96 82.99
-6 6 -4 1277.67 63.69
0 -6 -4 1140.29 69.89
0 -6 -4 1220.88 72.39
-6 0 4 968.1 65.29
6 -6 4 912.11 69.49
-6 0 4 1122.79 74.09
-1 -6 -4 679.93 46.9
-1 -6 -4 594.64 43.9
-7 1 4 498.35 45
-7 1 4 522.05 39.1
6 -7 4 484.15 44.9
1 6 4 490.15 34.6
-2 -6 -4 40.6 19.3
-6 8 -4 4.9 15.7
-2 -6 -4 20.2 14.9
-8 2 4 17.7 13.1
-8 2 4 48.2 18.2
6 -8 4 27.9 17.7
-3 -6 -4 65.59 24.8
-6 9 -4 116.79 25.2
-3 -6 -4 60.09 18.8
-9 3 4 75.09 18.7
6 -9 4 75.99 24.7
-9 3 4 110.69 23.2
-4 -6 -4 249.88 38.6
-4 -6 -4 327.07 35.3
-6 10 -4 248.88 34.7
6 -10 4 230.08 40.1
-10 4 4 211.88 30.2
-10 4 4 266.67 32.7
-6 11 -4 328.07 42
-5 -6 -4 363.96 49.5
6 -11 4 361.26 48.1
-11 5 4 321.17 39.2
-6 12 -4 107.49 28.9
-6 -6 -4 97.19 34.8
-12 6 4 107.09 28
6 -12 4 49.2 34.7
-7 -5 -4 36.4 30.3
-5 12 -4 21.5 24.3
-12 7 4 3.2 21.6
5 -12 4 31.7 31.1
-4 11 -4 375.56 43.8
-7 -4 -4 366.56 51.39
4 -11 4 390.16 52.89
-11 7 4 432.06 48.6
-3 10 -4 656.53 51.89
-7 -3 -4 584.54 59.79
10 -7 -4 513.75 44.3
-10 7 4 518.35 50.79
3 -10 4 611.84 58.79
9 -7 -4 90.09 20.6
-2 9 -4 136.69 24.4
-7 -2 -4 100.69 29.6
-9 7 4 171.18 28.4
2 -9 4 151.98 20.7
2 -9 4 161.78 30.1
-7 -1 -4 119.09 19
-7 -1 -4 122.69 29.5
8 -7 -4 126.19 23.6
-1 8 -4 114.99 20.4
1 -8 4 98.79 24.9
-8 7 4 117.69 23.3
1 -8 4 122.29 20
-7 0 -4 1120.09 78.09
-7 0 -4 1166.28 64.09
0 7 -4 1200.68 68.39
7 -7 -4 1228.38 74.39
-7 7 4 916.81 70.99
0 -7 4 1054.49 73.79
0 -7 4 923.51 69.29
1 6 -4 605.94 41
-7 1 -4 680.03 51.49
-7 1 -4 667.73 40.7
6 -7 -4 695.93 51.39
-1 -6 4 546.35 45.8
-1 -6 4 518.95 46.5
-6 7 4 500.75 45.2
2 5 -4 329.17 27.1
-7 2 -4 311.27 26.8
5 -7 -4 370.26 36.6
-7 2 -4 277.77 34.2
-2 -5 4 372.56 31.5
-5 7 4 343.47 32.3
-2 -5 4 386.06 36.1
-7 3 -4 44.5 12.7
4 -7 -4 35.7 17.1
3 4 -4 29.2 9.8
-7 3 -4 31.5 14.8
-3 -4 4 27 15.8
-4 7 4 -0.5 11.2
3 -7 -4 152.28 15.6
-7 4 -4 163.88 21.5
4 3 -4 162.78 17.9
-7 4 -4 135.69 20.3
-3 7 4 200.78 23
-4 -3 4 208.48 17.8
-7 5 -4 1050.99 66.49
2 -7 -4 1052.69 72.69
-7 5 -4 1036.1 70.29
2 -7 -4 1090.49 65.79
-5 -2 4 1140.99 65.19
-5 -2 4 1210.08 78.29
-2 7 4 1171.18 67.39
-7 6 -4 952.6 68.69
1 -7 -4 955.8 66.09
1 -7 -4 1124.89 72.99
-6 -1 4 1068.09 63.69
-1 7 4 1124.49 64.49
-6 -1 4 1129.39 74.29
7 -6 4 1108.99 69.79
0 -7 -4 1092.89 69.89
0 -7 -4 1187.98 73.39
-7 7 -4 1052.99 70.39
7 -7 4 1067.29 71.29
-7 0 4 1018.6 73.99
-7 0 4 1016 64.39
0 7 4 966.1 62.39
-1 -7 -4 263.37 33.1
-1 -7 -4 229.58 31.5
-7 8 -4 276.57 34.5
-8 1 4 249.58 27.1
7 -8 4 229.08 33.3
-8 1 4 342.27 39.3
-2 -7 -4 344.57 39.3
-7 9 -4 266.47 35.3
-2 -7 -4 274.87 33.9
7 -9 4 252.37 38.5
-9 2 4 240.88 34
-9 2 4 251.17 29.9
-7 10 -4 367.96 41.8
-3 -7 -4 361.26 39.5
-3 -7 -4 290.67 40.6
7 -10 4 253.17 39.5
-10 3 4 280.77 36.4
-10 3 4 296.57 34.8
-4 -7 -4 346.97 46.7
-7 11 -4 260.47 39.1
-11 4 4 301.67 36.5
7 -11 4 316.17 46.6
-7 12 -4 301.87 43.2
-5 -7 -4 362.56 51.89
-12 5 4 394.76 44.4
7 -12 4 474.85 57.79
-8 -4 -4 92.49 36.5
-4 12 -4 123.29 31.5
-12 8 4 164.98 34.4
4 -12 4 100.59 35.9
-8 -3 -4 330.37 50.79
-3 11 -4 346.37 41.3
-11 8 4 322.97 41.9
3 -11 4 331.77 48.6
-8 -2 -4 316.67 47
-2 10 -4 244.38 33.6
10 -8 -4 253.77 32.8
-10 8 4 300.27 39.3
2 -10 4 325.57 42.1
-1 9 -4 90.59 20.6
9 -8 -4 53.79 21
-8 -1 -4 99.49 31.4
1 -9 4 77.99 18.7
1 -9 4 45.8 22.1
-9 8 4 55.29 22.3
8 -8 -4 105.39 24.2
-8 0 -4 127.09 30.4
0 8 -4 166.78 23.5
-8 0 -4 152.38 18.5
0 -8 4 149.69 27.2
-8 8 4 152.88 26.4
0 -8 4 162.38 25.1
1 7 -4 286.37 27.7
-8 1 -4 257.77 36.9
7 -8 -4 234.18 33.2
-8 1 -4 255.87 25.5
-1 -7 4 348.37 35.5
-1 -7 4 311.57 35.5
-7 8 4 292.17 35.4
-8 2 -4 -5.6 10.1
6 -8 -4 17.4 17.4
2 6 -4 3.6 10.6
-8 2 -4 -3.4 17
-2 -6 4 35.1 15.6
-6 8 4 6.4 15.6
-2 -6 4 35 18.1
-8 3 -4 35.3 18
-8 3 -4 70.99 15.6
3 5 -4 52.79 13
5 -8 -4 49.9 19.4
-3 -5 4 88.09 16.8
-3 -5 4 74.59 21.8
-5 8 4 49.3 17
4 -8 -4 79.79 26.2
-8 4 -4 77.69 17.5
-8 4 -4 54.39 18.1
4 4 -4 92.99 15
-4 -4 4 87.29 22.5
-4 8 4 87.19 19.3
5 3 -4 214.68 22.5
-8 5 -4 212.38 27.5
-8 5 -4 232.28 27.3
3 -8 -4 291.47 35.4
-3 8 4 223.68 26.2
-5 -3 4 153.68 35.7
2 -8 -4 384.46 31
-8 6 -4 324.77 35.4
2 -8 -4 386.16 40.8
-8 6 -4 374.06 31.1
-6 -2 4 312.47 29.3
-6 -2 4 318.07 40
-2 8 4 331.67 31.4
1 -8 -4 88.69 23.6
1 -8 -4 126.19 21
-8 7 -4 162.28 27.2
-7 -1 4 79.99 25
-1 8 4 124.19 18.6
-7 -1 4 102.39 17.4
8 -7 4 102.89 21.9
0 -8 -4 93.69 25.3
-8 8 -4 153.38 26.9
0 -8 -4 121.09 24.2
-8 0 4 134.29 20.6
8 -8 4 139.09 27
-8 0 4 173.38 31.4
-1 -8 -4 550.74 52.49
-1 -8 -4 554.04 49.7
-8 9 -4 491.95 49.1
-9 1 4 544.25 43.4
-9 1 4 640.24 55.09
8 -9 4 561.34 53.19
-8 10 -4 440.76 47.1
-2 -8 -4 444.46 48.9
-2 -8 -4 406.66 45
-10 2 4 403.56 47.6
-10 2 4 405.16 40.1
8 -10 4 411.06 49.4
-3 -8 -4 18.9 23.6
-8 11 -4 51.39 25.1
-3 -8 -4 51.99 22.6
-11 3 4 84.89 25.1
-11 3 4 35.1 19.6
8 -11 4 23.6 25.3
-8 12 -4 118.29 30.3
-4 -8 -4 126.09 33
-12 4 4 107.49 26.7
8 -12 4 105.99 33.4
-3 12 -4 101.69 29.3
-9 -3 -4 123.49 39.6
-12 9 4 45.3 28.9
3 -12 4 100.49 34.6
11 -9 -4 114.39 25.2
-2 11 -4 84.39 25.4
-9 -2 -4 86.49 35.8
2 -11 4 133.09 34.5
-11 9 4 103.49 30
-1 10 -4 212.98 31.8
-9 -1 -4 286.17 46.1
10 -9 -4 238.18 34.9
-10 9 4 224.38 37
1 -10 4 284.27 40.8
9 -9 -4 545.15 50.39
0 9 -4 558.34 45.1
-9 0 -4 576.24 58.79
0 -9 4 447.76 43.2
-9 9 4 440.76 50.19
0 -9 4 414.86 47.7
8 -9 -4 613.74 53.79
-9 1 -4 674.53 59.39
1 8 -4 592.44 46.1
-9 1 -4 560.04 42.5
-1 -8 4 499.65 49.99
-1 -8 4 691.83 54.49
-8 9 4 581.44 53.19
2 7 -4 249.58 28.9
-9 2 -4 247.08 36.8
-9 2 -4 320.67 29.5
7 -9 -4 305.87 38.9
-7 9 4 294.07 36.4
-2 -7 4 259.17 35.7
-2 -7 4 271.37 33.8
6 -9 -4 79.39 24.5
-9 3 -4 44.1 22.7
3 6 -4 65.99 15.8
-9 3 -4 82.99 17.6
-3 -6 4 72.39 23.5
-6 9 4 77.39 21
-9 4 -4 31.4 14.9
-9 4 -4 13 17.4
5 -9 -4 -1.7 17.2
4 5 -4 34.1 12.3
-4 -5 4 18.9 19.5
-5 9 4 15.7 16.1
5 4 -4 291.67 27.5
-9 5 -4 308.97 34.5
-9 5 -4 283.67 33.6
4 -9 -4 305.97 40.2
-5 -4 4 364.86 42.1
-4 9 4 336.47 35.3
3 -9 -4 392.26 47.8
6 3 -4 505.55 35.7
-9 6 -4 465.25 43
-3 9 4 444.16 40
-6 -3 4 425.86 48.5
-9 7 -4 104.59 24.4
2 -9 -4 82.49 26.1
-2 9 4 177.08 25.1
-7 -2 4 158.88 30.9
-7 -2 4 154.88 21.3
1 -9 -4 82.39 25.1
-9 8 -4 92.99 25.2
-8 -1 4 18.3 23.5
-8 -1 4 60.89 15.9
9 -8 4 32.5 19.4
-9 9 -4 560.84 51.99
0 -9 -4 546.95 47.7
0 -9 -4 592.94 55.49
-9 0 4 467.65 41.4
-9 0 4 462.15 53.19
9 -9 4 441.86 50.39
-1 -9 -4 417.86 48.3
-9 10 -4 411.76 48.2
-1 -9 -4 460.65 47.4
-10 1 4 398.46 49.2
-10 1 4 410.16 38.7
9 -10 4 429.86 49.9
-9 11 -4 86.99 29.2
-2 -9 -4 108.19 30.3
-2 -9 -4 57.79 24.5
-11 2 4 106.89 29.9
9 -11 4 56.39 26.9
-11 2 4 69.89 21.7
-3 -9 -4 42.6 27.5
-9 12 -4 6.3 25.3
9 -12 4 3.7 27.1
-12 3 4 21.9 20.3
-10 -2 -4 -12.3 31.8
-12 10 4 -42.5 21.2
2 -12 4 3.4 27.6
11 -10 -4 48.9 23.4
-10 -1 -4 84.99 37.5
1 -11 4 44.7 27.6
-11 10 4 32.3 24.8
10 -10 -4 158.28 33.5
-10 0 -4 190.08 40.2
0 -10 4 208.38 31.7
0 -10 4 200.48 35.4
-10 10 4 169.58 34.4
-10 1 -4 456.85 53.69
9 -10 -4 398.86 48
-1 -9 4 438.06 47.9
-9 10 4 420.36 48.2
-1 -9 4 377.06 44.4
-10 2 -4 311.27 33
-10 2 -4 307.67 43.7
8 -10 -4 347.57 42.9
-2 -8 4 393.76 43.7
-8 10 4 384.76 44.1
-10 3 -4 308.47 41.4
7 -10 -4 326.77 44.5
-10 3 -4 285.97 32.6
3 7 -4 357.36 34.5
-3 -7 4 337.57 42.2
-7 10 4 262.87 36.8
6 -10 -4 285.67 39.2
-10 4 -4 256.17 30
-10 4 -4 217.18 33.9
4 6 -4 241.48 27.9
-4 -6 4 245.28 37.6
-6 10 4 168.68 29.6
5 5 -4 182.08 21.9
-10 5 -4 166.78 25.6
-10 5 -4 173.58 29
5 -10 -4 174.68 32.9
-5 10 4 100.49 24.4
-5 -5 4 113.79 29.4
-10 6 -4 374.66 40.6
6 4 -4 386.26 33.5
4 -10 -4 414.76 49.3
-6 -4 4 463.55 50.29
-4 10 4 389.86 40.2
-10 7 -4 506.85 50.49
3 -10 -4 570.94 57.59
7 3 -4 569.14 42.3
-7 -3 4 658.03 60.39
2 -10 -4 276.57 42.1
-10 8 -4 334.17 41.5
-8 -2 4 277.57 30.8
-8 -2 4 300.97 43.7
-10 9 -4 193.78 35.3
1 -10 -4 259.17 41.6
-9 -1 4 270.87 42.4
10 -9 4 259.07 36.7
-9 -1 4 252.47 29.7
0 -10 -4 197.98 37.7
-10 10 -4 179.28 34
-10 0 4 249.18 41.6
-10 0 4 247.98 30.2
10 -10 4 216.08 37
-10 11 -4 73.09 28.8
-1 -10 -4 108.39 32.3
-11 1 4 105.39 33
-11 1 4 67.39 21.8
10 -11 4 89.79 30.3
-10 12 -4 70.29 30.9
-2 -10 -4 16.7 28.4
-2 -10 -4 122.79 38.9
10 -12 4 74.29 31.6
-12 2 4 49.3 29.2
-12 2 4 73.29 23.9
-11 0 -4 74.39 35.6
11 -11 -4 73.29 28.6
-11 11 4 93.89 32.1
-11 1 -4 65.29 36.9
10 -11 -4 109.19 32
-1 -10 4 93.69 26
-10 11 4 73.99 27.7
9 -11 -4 104.39 31.3
-11 2 -4 95.09 33.1
-9 11 4 48.7 26.8
-2 -9 4 32.7 23.4
8 -11 -4 59.89 26.1
-11 3 -4 89.69 30.3
-11 3 -4 38.9 17.7
-3 -8 4 22.6 23.5
-8 11 4 51.99 24.9
7 -11 -4 279.47 44.6
-11 4 -4 349.47 43.2
-11 4 -4 319.37 36.7
-7 11 4 314.67 41
-4 -7 4 292.17 43.6
-11 5 -4 309.27 36.8
6 -11 -4 290.37 44.9
-5 -6 4 351.06 47.2
-6 11 4 368.26 42.1
-11 6 -4 213.68 31.9
5 -11 -4 214.68 36.8
-6 -5 4 137.19 34.7
-5 11 4 238.28 32.9
4 -11 -4 323.27 46.8
-11 7 -4 390.26 44.1
-7 -4 4 472.75 54.59
3 -11 -4 320.77 46.2
-11 8 -4 335.37 42
-8 -3 4 386.56 52.29
2 -11 -4 132.59 34.5
-11 9 -4 84.79 28.1
-9 -2 4 56.59 30.7
-11 10 -4 40.8 26.8
1 -11 -4 40.7 28
11 -10 4 41.2 24.5
-10 -1 4 50.39 29.3
-11 11 -4 81.89 30.3
0 -11 -4 71.29 31.8
11 -11 4 58.49 28.5
-11 0 4 94.79 33.4
-12 2 -4 44 34.5
10 -12 -4 51.99 30
-2 -10 4 46.4 25.3
-10 12 4 63.49 29.9
9 -12 -4 21.9 27.7
-12 3 -4 11.8 27.7
-9 12 4 26.5 25.3
-3 -9 4 -17.6 19.1
8 -12 -4 159.28 36.7
-12 4 -4 125.59 25.7
-4 -8 4 104.29 32.8
-8 12 4 91.89 29.9
-12 5 -4 386.46 43.7
7 -12 -4 357.36 51.49
-5 -7 4 394.26 51.69
-7 12 4 434.16 47.9
-12 6 -4 86.89 25.2
6 -12 -4 54.99 29.7
-6 -6 4 63.39 31.8
-6 12 4 101.89 27
-12 7 -4 4.9 19.9
5 -12 -4 -2 25.8
-7 -5 4 -16.3 25.1
4 -12 -4 139.79 36.2
-12 8 -4 125.89 30.3
-8 -4 4 145.99 38
3 -12 -4 135.69 37.7
-12 9 -4 67.59 27.9
-9 -3 4 86.69 34.4
-12 10 -4 36.8 26.3
2 -12 -4 28.4 28.1
-10 -2 4 20.2 28.6
0 0 -5 0.8 3.3
0 1 -5 1383.46 78.89
-1 0 -5 1416.96 76.39
-1 1 5 1555.54 77.39
0 -1 -5 1361.36 79.69
-1 1 -5 1387.96 79.59
0 1 5 1569.64 78.39
-1 0 5 1549.74 79.89
-1 0 5 1617.64 80.59
-1 -1 -5 1909.11 87.59
-1 -1 -5 1907.41 91.89
-2 1 5 1539.15 90.39
-2 1 5 1518.95 89.89
1 -2 5 1554.64 91.19
3 -2 -5 3188.98 169.38
-2 -1 -5 3168.88 165.68
1 -3 5 3206.18 169.48
-3 2 5 3332.97 168.48
2 1 5 3349.17 165.88
1 -3 5 3041 171.28
2 -2 -5 4378.76 232.48
-2 0 -5 4519.65 230.58
0 -2 5 4534.55 232.38
-2 2 5 4380.96 232.18
1 -2 -5 1932.41 97.59
-2 1 -5 1975 98.69
-2 1 -5 1938.81 99.09
-1 2 5 1572.34 97.29
-2 2 -5 4454.55 231.48
0 -2 -5 4444.56 230.78
-2 0 5 4424.66 232.18
0 2 5 4391.06 228.18
-1 -2 -5 658.03 40
3 -1 -5 609.34 35.5
-3 1 5 664.03 39
-2 -2 -5 162.38 19.1
-2 4 -5 162.78 16.4
4 -2 -5 133.69 13.3
-4 2 5 127.69 14.5
2 -4 5 131.79 17.5
5 -3 -5 1006.7 58.09
-3 -2 -5 1096.49 64.79
-2 5 -5 1100.79 60.69
-5 3 5 984.7 57.29
3 2 5 980.1 52.09
2 -5 5 947.91 56.79
2 -5 5 892.31 62.69
-1 4 -5 43.7 9.6
-3 -1 -5 48.4 5.5
4 -3 -5 63.89 10.7
1 -4 5 36.5 11.8
-4 3 5 49.5 11
1 -4 5 58.99 9.6
-4 3 5 66.39 7.9
3 -3 -5 1346.97 75.19
-3 0 -5 1413.16 71.59
-3 0 -5 1193.48 84.89
0 -3 5 1316.47 74.69
0 -3 5 1296.57 74.79
2 -3 -5 667.93 35.5
2 -3 -5 644.14 40.3
-3 1 -5 635.64 37.9
-1 -2 5 671.13 40.7
-2 3 5 620.64 38.1
-1 -2 5 615.44 37.1
1 -3 -5 3246.98 167.18
-3 2 -5 3236.98 169.18
-3 2 -5 3193.18 167.98
-1 3 5 3107.29 166.88
-2 -1 5 3166.88 167.88
-3 3 -5 1329.07 75.49
0 -3 -5 1314.37 74.59
0 3 5 1315.77 70.79
-3 0 5 1378.56 73.69
4 -1 -5 592.74 33.2
-1 -3 -5 529.25 39.9
-4 1 5 630.84 38.5
1 3 5 622.84 32.3
3 -4 5 653.73 41.7
-2 -3 -5 1086.69 71.19
-3 5 -5 1097.39 69.39
5 -2 -5 1116.39 63.79
3 -5 5 1268.97 73.29
-5 2 5 1302.37 68.99
6 -3 -5 1232.28 72.79
-3 6 -5 1198.28 77.49
-3 -3 -5 1243.48 80.89
-6 3 5 1362.76 76.09
3 3 5 1342.07 68.19
-6 3 5 1348.57 77.49
3 -6 5 1369.86 82.89
7 -4 -5 1279.57 75.79
-4 -3 -5 1296.07 84.89
-3 7 -5 1247.48 80.09
3 -7 5 1437.76 86.89
-7 4 5 1344.27 77.99
6 -4 -5 1165.98 67.29
-2 6 -5 1239.28 70.19
-4 -2 -5 1166.98 61.09
-6 4 5 1082.09 64.39
2 -6 5 1117.49 65.79
2 -6 5 1082.99 72.89
5 -4 -5 540.95 38.4
-4 -1 -5 616.84 43.6
-1 5 -5 583.64 38
-4 -1 -5 601.64 32.2
-5 4 5 542.15 32.3
-5 4 5 555.94 39.1
1 -5 5 543.45 37
1 -5 5 491.45 40.7
4 -4 -5 66.39 12.8
-4 0 -5 55.49 13.7
0 4 -5 40.8 9.5
-4 0 -5 39.4 6.9
0 -4 5 7.7 6.9
-4 4 5 50.79 11.6
0 -4 5 54.09 11.9
1 3 -5 612.14 36.5
3 -4 -5 576.34 32.2
3 -4 -5 592.54 40.2
-4 1 -5 656.43 40.4
-4 1 -5 562.94 35.9
-1 -3 5 546.65 39.6
-3 4 5 555.04 37.4
-1 -3 5 631.74 37.6
2 -4 -5 150.58 17.6
2 2 -5 182.58 15
2 -4 -5 159.18 13.1
-4 2 -5 176.08 17.2
-2 -2 5 136.29 12.5
-2 4 5 161.28 16
1 -4 -5 44.2 9.5
-4 3 -5 60.99 11.9
-4 3 -5 40.7 8.2
-1 4 5 58.19 8.9
-3 -1 5 49.9 13.1
-3 -1 5 40 8.4
0 -4 -5 71.19 12.6
0 -4 -5 52.29 11.8
-4 4 -5 46.2 12
-4 4 -5 54.09 8.5
0 4 5 63.79 8.3
4 -4 5 48.7 12.1
-4 0 5 58.79 14.1
-4 0 5 36.3 9.1
-1 -4 -5 2014.5 114.29
-1 -4 -5 2110.89 113.39
-5 1 5 1966.9 114.59
-5 1 5 2010.6 111.49
1 4 5 2012 106.19
-2 -4 -5 1878.81 103.99
-2 -4 -5 1909.11 107.89
-4 6 -5 1811.32 106.09
2 4 5 1818.72 96.09
-6 2 5 1822.42 103.29
4 -6 5 1769.42 108.89
-6 2 5 1835.62 105.39
7 -3 -5 902.71 51.69
-4 7 -5 966.6 61.39
-3 -4 -5 895.11 63.89
4 -7 5 846.12 64.29
-7 3 5 890.81 58.69
-7 3 5 898.71 58.29
-4 -4 -5 709.43 54.89
-4 8 -5 626.64 48
8 -4 -5 601.04 38.7
-8 4 5 514.85 44.9
-8 4 5 547.95 43.1
4 -8 5 625.84 53.59
-5 -4 -5 1022.2 65.09
-5 -4 -5 907.61 74.79
-4 9 -5 1076.59 71.69
4 -9 5 987.7 76.59
-9 5 5 1018.5 69.39
-5 -3 -5 1321.37 84.79
8 -5 -5 1217.78 71.99
-3 8 -5 1249.77 77.19
3 -8 5 1101.19 69.39
-8 5 5 1188.38 76.69
3 -8 5 1199.48 82.79
7 -5 -5 744.53 49.8
-2 7 -5 794.52 52.09
-5 -2 -5 804.12 42.6
2 -7 5 790.32 56.99
-7 5 5 666.63 43.8
2 -7 5 716.63 47.3
6 -5 -5 152.38 19.9
-1 6 -5 133.89 17.9
-5 -1 -5 139.69 22.6
-5 -1 -5 151.18 12.8
1 -6 5 162.58 18.7
1 -6 5 119.79 20.6
-6 5 5 157.08 21.4
-6 5 5 109.59 10.7
5 -5 -5 440.06 32.1
-5 0 -5 445.56 35.4
0 5 -5 370.16 27.2
-5 0 -5 395.76 23.8
-5 5 5 272.67 27.5
0 -5 5 286.17 28.8
0 -5 5 256.37 27.5
1 4 -5 2051.79 112.79
4 -5 -5 2084.59 117.89
-5 1 -5 2161.08 112.39
-5 1 -5 2160.78 118.29
-1 -4 5 1963.4 116.89
-4 5 5 1997.8 115.59
-5 2 -5 1199.28 67.59
-5 2 -5 1101.89 69.09
2 3 -5 1112.59 65.79
3 -5 -5 1082.39 62.39
3 -5 -5 1081.89 70.59
-2 -3 5 1273.37 66.19
-2 -3 5 1222.48 72.79
-3 5 5 1292.67 69.29
-5 3 -5 996.7 60.69
-5 3 -5 1062.19 60.19
3 2 -5 1043.9 58.19
2 -5 -5 1029.6 57.29
-3 -2 5 933.91 54.69
-3 -2 5 1033 58.69
1 -5 -5 576.74 36.8
1 -5 -5 539.95 40.5
-5 4 -5 589.14 40
-1 5 5 566.44 35.6
5 -4 5 518.85 37.9
-4 -1 5 507.35 35.2
-4 -1 5 609.74 43.1
-5 5 -5 380.26 30
0 -5 -5 422.86 30.7
0 -5 -5 373.76 28.4
-5 0 5 222.68 28.1
-5 0 5 247.98 23.2
5 -5 5 300.77 28.9
0 5 5 251.17 20.7
-1 -5 -5 1582.14 95.39
-1 -5 -5 1578.24 96.39
-6 1 5 1650.73 97.29
1 5 5 1622.64 87.39
-6 1 5 1680.33 92.79
-2 -5 -5 1333.87 77.29
-2 -5 -5 1285.47 80.59
-7 2 5 1127.49 74.29
-7 2 5 1249.77 77.99
-5 8 -5 79.69 20.6
-3 -5 -5 58.09 21.2
-3 -5 -5 69.59 17.3
-8 3 5 91.09 18.6
5 -8 5 74.19 23.4
-8 3 5 124.69 20.9
-4 -5 -5 641.34 56.29
-4 -5 -5 645.34 48
-5 9 -5 597.74 51.09
5 -9 5 564.94 54.49
-9 4 5 636.04 47.7
-9 4 5 542.75 45.9
-5 -5 -5 622.64 48.5
-5 -5 -5 540.95 57.29
-5 10 -5 631.24 53.39
-10 5 5 581.54 50.49
5 -10 5 540.55 58.69
-5 11 -5 15.8 22.1
-6 -5 -5 56.19 30.4
5 -11 5 115.89 32.9
-11 6 5 55.69 22.9
-6 -4 -5 153.58 33.8
-4 10 -5 77.59 23.7
-10 6 5 121.49 25.1
4 -10 5 155.18 33.9
-3 9 -5 343.97 39.2
-6 -3 -5 360.76 44.4
9 -6 -5 300.47 32.2
3 -9 5 423.16 46.8
-9 6 5 410.16 40.2
3 -9 5 432.16 31.5
-2 8 -5 199.08 26.1
-6 -2 -5 240.88 33.3
8 -6 -5 180.98 24.5
2 -8 5 164.08 27.9
-8 6 5 158.98 26.5
2 -8 5 169.28 20.8
-6 -1 -5 31.8 18.4
7 -6 -5 39.5 14
-6 -1 -5 36.1 8.3
-1 7 -5 56.29 15.3
1 -7 5 -0.6 13.6
-7 6 5 13.9 14.5
1 -7 5 26.9 12.5
-6 0 -5 358.46 39.1
-6 0 -5 456.05 27.9
6 -6 -5 401.36 35.5
0 6 -5 423.36 32.3
-6 6 5 356.56 34.6
0 -6 5 388.16 33.5
0 -6 5 337.67 34.5
1 5 -5 1576.44 91.79
5 -6 -5 1594.84 97.79
-6 1 -5 1702.23 99.29
-6 1 -5 1669.63 90.49
-5 6 5 1652.33 96.29
-1 -5 5 1532.85 96.39
-1 -5 5 1700.03 94.89
2 4 -5 1793.02 98.99
-6 2 -5 1820.62 105.09
4 -6 -5 1785.42 105.99
-6 2 -5 1863.71 100.09
-4 6 5 1733.93 102.39
-2 -4 5 1728.23 105.79
-6 3 -5 1214.28 74.69
3 3 -5 1205.68 70.59
3 -6 -5 1192.98 67.89
3 -6 -5 1250.17 78.29
-6 3 -5 1202.78 73.59
-3 -3 5 1312.97 69.59
-3 -3 5 1324.77 83.39
-3 6 5 1303.67 74.09
-6 4 -5 1207.38 67.39
2 -6 -5 1134.39 64.79
-6 4 -5 1203.58 69.39
-4 -2 5 1053.99 59.59
-4 -2 5 1102.69 65.19
-2 6 5 1075.19 66.29
-4 -2 5 1175.28 73.39
1 -6 -5 146.99 20.9
1 -6 -5 127.19 17.4
-6 5 -5 143.99 19.3
-6 5 -5 155.98 21.1
-5 -1 5 142.69 16.7
-5 -1 5 120.99 21.8
6 -5 5 138.39 19.6
0 -6 -5 477.05 35.3
0 -6 -5 372.86 35.5
-6 6 -5 454.25 36.5
-6 0 5 338.27 29.2
-6 0 5 377.26 38.3
6 -6 5 385.06 34.6
0 6 5 343.77 26.8
-1 -6 -5 967.6 59.99
-1 -6 -5 919.81 60.49
-7 1 5 775.32 53.69
-7 1 5 759.92 59.19
6 -7 5 819.52 61.09
-2 -6 -5 535.35 44.4
-6 8 -5 550.74 45.9
-2 -6 -5 513.25 46
-8 2 5 451.75 43.6
-8 2 5 504.55 40.1
6 -8 5 471.95 46.7
-3 -6 -5 485.95 47.2
-3 -6 -5 493.55 51.69
-6 9 -5 473.45 49.4
-9 3 5 678.33 50.39
6 -9 5 780.12 59.29
-9 3 5 701.13 48.6
-6 10 -5 420.96 44.9
-4 -6 -5 435.26 49.8
-4 -6 -5 336.37 39.4
6 -10 5 456.65 50.99
-10 4 5 458.65 41.2
-10 4 5 308.57 38.5
-5 -6 -5 190.28 39.2
-6 11 -5 203.28 34.2
-11 5 5 246.38 34.2
6 -11 5 165.48 38.3
-6 -6 -5 72.79 32.8
-6 12 -5 -2.9 22.4
6 -12 5 -24.2 27.5
-12 6 5 30.4 22.2
-5 12 -5 21.9 24.2
-7 -5 -5 17.3 29.8
-12 7 5 21.6 23.2
5 -12 5 25.9 29.8
-4 11 -5 12.8 21.5
-7 -4 -5 -19.6 25.5
-11 7 5 15.7 20.6
4 -11 5 -24.9 23.1
-7 -3 -5 18.4 25.3
-3 10 -5 -3.6 17.8
10 -7 -5 38.5 18.1
-10 7 5 11.9 19.4
3 -10 5 -4.7 20.9
9 -7 -5 44.3 17.3
-2 9 -5 40.5 18.2
-7 -2 -5 29.4 24.6
-9 7 5 29.1 18.9
2 -9 5 27.1 13.5
2 -9 5 40.4 22.1
-7 -1 -5 44.9 23.4
8 -7 -5 83.49 20.1
-1 8 -5 53.69 17.2
1 -8 5 64.19 20.8
1 -8 5 81.39 17.4
-8 7 5 60.99 20.5
-7 0 -5 508.15 35.2
7 -7 -5 463.55 43.9
0 7 -5 512.15 40
-7 0 -5 527.05 49.7
0 -7 5 562.34 43.1
0 -7 5 605.84 46.6
-7 7 5 578.14 45.8
-7 1 -5 922.41 65.59
-7 1 -5 985.5 54.39
6 -7 -5 924.01 63.09
1 6 -5 880.01 55.49
-6 7 5 800.32 60.09
-1 -6 5 814.42 60.09
-1 -6 5 803.42 58.59
-7 2 -5 1283.17 74.99
2 5 -5 1296.97 74.79
5 -7 -5 1369.66 84.09
-7 2 -5 1352.76 82.99
-5 7 5 1235.58 79.19
-2 -5 5 1278.57 82.59
-2 -5 5 1197.08 76.29
-7 3 -5 905.31 56.79
4 -7 -5 979.8 64.39
3 4 -5 893.41 53.89
-7 3 -5 865.41 59.49
-3 -4 5 800.32 62.09
-4 7 5 873.41 58.19
3 -7 -5 1306.37 71.99
-7 4 -5 1259.97 77.89
-7 4 -5 1346.97 78.79
4 3 -5 1299.67 74.29
-3 7 5 1309.97 77.39
-4 -3 5 1220.68 71.29
2 -7 -5 727.53 47.1
-7 5 -5 777.52 48.7
-7 5 -5 772.22 52.29
2 -7 -5 772.92 55.49
-5 -2 5 626.64 45.6
-5 -2 5 694.23 55.49
-2 7 5 737.93 48
-7 6 -5 10 10.4
1 -7 -5 47.9 14.9
-7 6 -5 35 16.3
1 -7 -5 41.6 18
-1 7 5 34.2 11.1
7 -6 5 25.7 14
-6 -1 5 7.5 10.4
-6 -1 5 37.1 18.2
0 -7 -5 523.65 46.5
-7 7 -5 502.15 44.9
0 -7 -5 550.74 44.3
-7 0 5 581.24 49.3
-7 0 5 556.74 39.8
7 -7 5 531.95 46.5
-7 8 -5 890.21 64.79
-1 -7 -5 824.82 64.69
-1 -7 -5 846.82 63.89
-8 1 5 1033.6 68.49
7 -8 5 960.1 68.09
-8 1 5 906.41 59.49
-2 -7 -5 915.41 67.99
-2 -7 -5 885.31 64.29
-7 9 -5 835.22 65.69
-9 2 5 863.51 60.39
-9 2 5 933.81 66.39
7 -9 5 877.01 69.39
-3 -7 -5 480.95 44.6
-3 -7 -5 563.14 53.89
-7 10 -5 392.26 45.2
-10 3 5 452.95 44.3
7 -10 5 288.87 44.3
-10 3 5 358.86 39.3
-4 -7 -5 177.28 29.9
-4 -7 -5 180.38 36
-7 11 -5 132.79 30.6
7 -11 5 173.78 36.5
-11 4 5 125.39 26.4
-7 12 -5 9.7 23.8
-5 -7 -5 -3.3 26.4
7 -12 5 -11.1 24.9
-12 5 5 13.5 20.6
-4 12 -5 127.49 31.5
-8 -4 -5 119.39 42.3
-12 8 5 171.48 35.5
4 -12 5 226.98 43.6
-8 -3 -5 185.28 40.2
-3 11 -5 186.68 31.5
-11 8 5 174.48 33.9
3 -11 5 123.49 34.2
10 -8 -5 158.08 26.7
-2 10 -5 164.98 28.6
-8 -2 -5 204.18 39.1
-10 8 5 225.18 34.9
2 -10 5 219.78 37.4
9 -8 -5 47.6 20.3
-1 9 -5 70.89 20.3
-8 -1 -5 37.3 26.6
-9 8 5 29.9 20.9
1 -9 5 41.5 22.8
1 -9 5 78.09 19
-8 0 -5 93.49 27.5
0 8 -5 84.89 19.1
8 -8 -5 58.39 19.7
0 -8 5 59.39 21
0 -8 5 78.89 20.3
-8 8 5 41.7 20.8
1 7 -5 854.01 57.49
-8 1 -5 838.02 54.69
-8 1 -5 935.51 69.19
7 -8 -5 847.02 66.39
-1 -7 5 908.71 63.69
-7 8 5 935.21 64.99
-1 -7 5 931.21 63.29
6 -8 -5 569.44 49.7
-8 2 -5 683.93 51.59
-8 2 -5 560.04 39.9
2 6 -5 532.65 40.5
-6 8 5 474.05 44.7
-2 -6 5 547.75 43.6
-2 -6 5 533.35 48.1
-8 3 -5 68.29 21
-8 3 -5 64.99 15.6
3 5 -5 81.89 15.5
5 -8 -5 92.89 24.1
-3 -5 5 98.99 23.1
-3 -5 5 79.79 16.3
-5 8 5 111.49 21.3
4 -8 -5 687.53 53.39
-8 4 -5 620.24 47.8
4 4 -5 594.64 40.9
-8 4 -5 638.54 45.8
-4 -4 5 485.25 49.9
-4 8 5 558.34 45.1
3 -8 -5 1187.38 81.99
5 3 -5 1364.16 72.59
-8 5 -5 1138.49 76.49
-8 5 -5 1252.27 75.89
-3 8 5 1217.08 75.59
-5 -3 5 1065.19 81.19
-8 6 -5 178.08 27.6
2 -8 -5 211.98 24.5
2 -8 -5 176.08 29.5
-8 6 -5 235.48 25.2
-2 8 5 205.18 24
-6 -2 5 194.58 22.6
-6 -2 5 173.28 30.8
1 -8 -5 93.39 24
1 -8 -5 80.29 19
-8 7 -5 86.29 21.8
-7 -1 5 50.59 21.8
-7 -1 5 67.09 15.9
8 -7 5 104.59 21.4
0 -8 -5 92.49 24.6
0 -8 -5 117.19 23.2
-8 8 -5 147.49 26.8
-8 0 5 110.89 26.8
8 -8 5 56.79 21.2
-8 0 5 56.39 16.4
-1 -8 -5 162.38 29.8
-8 9 -5 152.98 27.3
-1 -8 -5 121.19 27
8 -9 5 228.08 35.1
-9 1 5 149.49 23.4
-9 1 5 172.68 30.7
-8 10 -5 96.49 26.1
-2 -8 -5 90.19 25.6
-2 -8 -5 106.09 27.5
-10 2 5 55.79 19.1
8 -10 5 54.29 25
-10 2 5 45.7 23.1
-3 -8 -5 48.5 26.2
-3 -8 -5 31.3 21.2
-8 11 -5 31.9 23.8
-11 3 5 61.69 24.3
-11 3 5 35.1 19.9
8 -11 5 53.29 28.9
-4 -8 -5 -2.3 25.2
-8 12 -5 9.8 23.4
8 -12 5 -1.9 27.4
-12 4 5 23.1 21.3
-3 12 -5 189.88 36.6
-9 -3 -5 232.78 48.4
3 -12 5 309.57 48.7
-12 9 5 210.78 39.3
-9 -2 -5 362.06 53.39
-2 11 -5 343.77 41.6
11 -9 -5 310.67 49.4
-11 9 5 313.87 43.6
2 -11 5 315.17 47
10 -9 -5 225.68 33.6
-9 -1 -5 237.08 42.7
-1 10 -5 208.08 30.7
1 -10 5 186.88 35.4
1 -10 5 174.68 29.9
-10 9 5 140.49 30.5
9 -9 -5 28.9 20.3
0 9 -5 23 17.4
-9 0 -5 20 24.9
0 -9 5 26.2 18
0 -9 5 -15.1 18.6
-9 9 5 7 19.8
8 -9 -5 163.58 30
-9 1 -5 138.39 31.7
1 8 -5 160.78 24.4
-8 9 5 162.18 30.2
-1 -8 5 216.98 32.2
-1 -8 5 246.48 31.9
2 7 -5 910.01 59.39
-9 2 -5 921.41 71.09
7 -9 -5 937.91 70.39
-9 2 -5 834.02 57.89
-7 9 5 903.91 67.09
-2 -7 5 874.91 66.89
-2 -7 5 912.41 63.09
-9 3 -5 455.05 48.9
6 -9 -5 481.55 51.09
3 6 -5 541.75 40.7
-9 3 -5 513.65 41.7
-3 -6 5 622.14 53.29
-6 9 5 662.93 49.1
-9 4 -5 672.83 51.99
4 5 -5 628.04 43.6
-9 4 -5 570.84 45.8
5 -9 -5 587.04 55.39
-4 -5 5 600.54 55.09
-5 9 5 622.74 49.5
-9 5 -5 1099.29 69.49
-9 5 -5 1039 68.09
4 -9 -5 1096.09 76.19
5 4 -5 942.11 61.49
-5 -4 5 965.8 74.09
-4 9 5 926.71 66.49
3 -9 -5 351.86 42.5
-9 6 -5 278.17 35.4
6 3 -5 292.97 29.8
-6 -3 5 420.46 45
-3 9 5 420.66 36.4
2 -9 -5 15.2 19.6
-9 7 -5 46.9 19.9
-7 -2 5 23.7 13.4
-7 -2 5 33.7 22.5
-9 8 -5 47.8 23.1
1 -9 -5 54.69 23.6
-8 -1 5 41.8 16
-8 -1 5 64.69 26.3
9 -8 5 86.99 23.7
0 -9 -5 -4.4 20.9
-9 9 -5 34.7 21.7
0 -9 -5 56.69 19.9
-9 0 5 36.4 22.2
-9 0 5 19.3 15.3
9 -9 5 8.6 19.7
-1 -9 -5 1.5 19.1
-9 10 -5 -24.1 18.4
-1 -9 -5 18.3 21.8
-10 1 5 39.2 24.9
9 -10 5 12.9 22.9
-10 1 5 26 16.8
-2 -9 -5 36.2 23.9
-9 11 -5 2 22.6
-2 -9 -5 -9.2 20.8
9 -11 5 12 24.5
-11 2 5 -10.5 21
-11 2 5 -15.6 16.4
-9 12 -5 18.3 26.2
-3 -9 -5 1.2 24.7
-12 3 5 -3.6 19.4
9 -12 5 16.9 28.2
11 -10 -5 226.28 35.8
-10 -1 -5 344.07 52.99
1 -11 5 277.77 44.2
-11 10 5 274.37 42.9
-10 0 -5 331.67 49.6
10 -10 -5 315.47 42.5
0 -10 5 290.97 37
-10 10 5 254.57 40.2
0 -10 5 292.07 42.3
-10 1 -5 20.5 24
1 9 -5 3.3 15.8
9 -10 -5 30.4 23.4
-9 10 5 7.6 20.2
-1 -9 5 14.2 18.8
8 -10 -5 104.49 28.1
-10 2 -5 89.49 29.1
2 8 -5 102.59 21.1
-8 10 5 57.89 25.2
-2 -8 5 87.39 25.5
-10 3 -5 534.05 42.2
7 -10 -5 467.25 53.29
-10 3 -5 552.84 55.39
3 7 -5 496.65 40.7
-7 10 5 441.86 48.4
-3 -7 5 457.45 51.79
-10 4 -5 410.96 39.3
6 -10 -5 434.26 50.59
-10 4 -5 434.96 47.4
4 6 -5 410.76 36.4
-4 -6 5 420.46 49.4
-6 10 5 425.16 44
5 -10 -5 590.34 54.79
5 5 -5 618.84 43.6
-10 5 -5 537.65 50.49
-10 5 -5 563.44 47.5
-5 -5 5 552.14 56.69
-5 10 5 581.04 49.2
-10 6 -5 132.59 25.7
6 4 -5 178.58 22.7
4 -10 -5 136.59 31.2
-4 10 5 135.59 24.5
-6 -4 5 183.28 34.4
7 3 -5 35.3 15.2
-10 7 -5 27.4 19.7
3 -10 -5 33 23.8
-7 -3 5 14.1 22.2
-10 8 -5 166.88 31.5
2 -10 -5 140.19 33.3
-8 -2 5 246.78 39.5
-8 -2 5 202.48 26
1 -10 -5 219.18 37.5
-10 9 -5 197.78 34.4
-9 -1 5 179.08 37.1
10 -9 5 172.38 31.9
-9 -1 5 203.88 27.4
-10 10 -5 313.97 42.5
0 -10 -5 285.87 42.8
-10 0 5 181.38 39.5
-10 0 5 279.37 32.6
10 -10 5 276.17 41.3
-10 11 -5 213.88 37.6
-1 -10 -5 132.29 33.5
-11 1 5 179.98 28.4
-11 1 5 197.08 38.9
10 -11 5 150.18 34.9
-2 -10 -5 55.19 27.9
11 -11 -5 182.08 36.6
-11 0 -5 225.68 48.3
-11 11 5 195.18 38.8
10 -11 -5 190.68 37.4
-11 1 -5 217.38 44.4
-10 11 5 154.18 34.8
-1 -10 5 170.78 32.4
-11 2 -5 -29.6 25.3
9 -11 -5 -10.8 23.1
-2 -9 5 6.6 20.7
-9 11 5 10.1 21.8
8 -11 -5 67.69 28.1
-11 3 -5 -7.9 22.7
-8 11 5 44.4 24.1
-3 -8 5 45 23.7
-11 4 -5 167.48 26.3
-11 4 -5 201.68 35
7 -11 -5 124.49 33.7
-4 -7 5 133.79 31.9
-7 11 5 157.28 29.7
6 -11 -5 171.88 36.9
-11 5 -5 180.38 28.6
-6 11 5 244.68 33.9
-5 -6 5 197.18 38.3
5 -11 -5 64.89 26.7
-11 6 -5 43.4 21.5
-5 11 5 48.4 20.6
-6 -5 5 67.59 27.9
4 -11 -5 -7 21.9
-11 7 -5 -15.7 18.5
-7 -4 5 -0.8 23.5
-11 8 -5 192.78 34.4
3 -11 -5 142.49 33.4
-8 -3 5 138.99 35.9
2 -11 -5 396.86 52.09
-11 9 -5 309.37 43.5
-9 -2 5 402.16 53.19
-11 10 -5 236.48 38.2
1 -11 -5 268.67 43.6
-10 -1 5 218.78 42.4
0 -11 -5 248.48 42.8
-11 11 -5 158.78 35.7
-11 0 5 184.78 39.6
11 -11 5 153.98 37.2
-12 3 -5 23.5 28.7
9 -12 -5 24.5 26.1
-3 -9 5 -0.1 23.7
-9 12 5 5.4 23
-12 4 -5 32.8 40.8
8 -12 -5 -11.3 24.3
-4 -8 5 4.9 23.7
-8 12 5 -2.6 23.3
7 -12 -5 12.7 27.5
-12 5 -5 1.8 18.1
-5 -7 5 16.1 25.7
-7 12 5 0.5 21.2
-12 6 -5 20 20.5
6 -12 -5 13.2 27.4
-6 -6 5 -27.6 23.4
-6 12 5 11.4 20.6
5 -12 -5 -7 24.1
-12 7 -5 24.7 20.8
-7 -5 5 36.7 28.2
-12 8 -5 176.58 32.8
4 -12 -5 150.98 37.1
-8 -4 5 183.98 40.8
3 -12 -5 214.78 43.8
-12 9 -5 216.18 38.1
-9 -3 5 223.18 45.2
2 -12 -5 136.99 36.8
0 0 -6 9507.05 489.15
-1 0 -6 5084.49 251.67
0 1 -6 5008.5 252.87
-1 1 6 4515.55 252.17
-1 1 -6 4927.91 248.28
0 -1 -6 5163.68 248.88
-1 0 6 4602.74 248.38
0 1 6 4688.13 246.98
-1 0 6 4542.25 248.78
-1 -1 -6 1805.12 101.29
-1 2 -6 1812.62 100.79
-1 -1 -6 1805.12 97.59
-2 1 6 2004 100.59
-2 1 6 1991.4 100.79
3 -2 -6 963.8 53.99
-2 -1 -6 964.5 50.29
-2 -1 -6 1011 57.49
-3 2 6 951.3 53.09
1 -3 6 901.41 54.29
-2 0 -6 963 58.79
0 -2 6 1180.38 61.99
-2 2 6 1188.28 61.19
-2 1 -6 1829.72 100.49
-2 1 -6 1773.12 99.59
1 -2 -6 1850.81 99.19
-1 2 6 2031.5 99.39
0 -2 -6 974.2 58.59
-2 2 -6 962.6 59.09
0 2 6 1157.68 56.19
-2 0 6 1109.69 60.19
-2 3 -6 131.69 14.5
-1 -2 -6 133.79 15.1
3 -1 -6 106.99 10.1
-2 4 -6 1205.08 71.69
-2 -2 -6 1252.67 72.49
4 -2 -6 1176.98 67.29
-4 2 6 1262.57 70.49
-4 2 6 1223.88 68.69
2 -4 6 1202.78 72.09
-2 5 -6 313.57 24.4
-3 -2 -6 322.27 27.7
5 -3 -6 292.07 21.7
-5 3 6 231.68 22.2
2 -5 6 205.58 25.4
2 -5 6 231.28 20.4
-5 3 6 240.18 20.1
-1 4 -6 1137.19 69.29
-3 -1 -6 1214.88 64.09
4 -3 -6 1211.68 69.69
-4 3 6 1247.18 66.39
-4 3 6 1260.87 70.39
1 -4 6 1198.28 71.59
1 -4 6 1240.88 69.19
-3 0 -6 1460.25 74.49
-3 0 -6 1404.76 79.39
3 -3 -6 1419.16 78.29
0 3 -6 1405.56 76.99
0 -3 6 1274.47 77.19
0 -3 6 1337.47 77.99
1 2 -6 83.49 9.6
-3 1 -6 119.39 11.3
-3 1 -6 23.8 6.8
-1 -2 6 54.29 7.7
-1 -2 6 45.3 11.4
-2 3 6 54.19 8.7
1 -3 -6 934.31 51.99
-3 2 -6 907.21 53.99
-2 -1 6 956.6 53.29
-1 3 6 932.61 51.69
-3 3 -6 1434.86 76.09
0 -3 -6 1423.96 74.89
-3 0 6 1178.18 75.59
0 3 6 1320.77 70.29
-3 0 6 1291.77 73.79
-1 -3 -6 880.41 57.89
-3 4 -6 922.31 58.69
4 -1 -6 872.71 51.49
-4 1 6 1050.29 57.09
3 -4 6 1068.89 60.29
-4 1 6 1080.19 58.99
-3 5 -6 510.05 35.3
-2 -3 -6 467.45 37.1
5 -2 -6 438.16 28.7
3 -5 6 499.25 37.9
-5 2 6 468.25 36.9
-5 2 6 514.65 34.5
-3 -3 -6 727.03 52.89
-3 6 -6 738.73 49.3
6 -3 -6 710.23 43.9
3 -6 6 722.33 53.19
-6 3 6 754.12 47.1
-3 7 -6 1029.6 67.69
-4 -3 -6 1044.8 72.09
7 -4 -6 1079.59 63.09
3 -7 6 1059.59 72.69
-7 4 6 1054.49 63.39
-2 6 -6 32.7 13
-4 -2 -6 44.8 5.4
6 -4 -6 31.9 10.5
2 -6 6 35.9 15.4
2 -6 6 46.1 10.8
-6 4 6 35.4 8.5
-4 -1 -6 1064.69 76.69
-4 -1 -6 1067.59 60.79
-1 5 -6 1028.5 66.09
5 -4 -6 1110.69 67.59
1 -5 6 1215.28 67.09
-5 4 6 1194.18 61.99
1 -5 6 1217.48 71.19
-5 4 6 1208.88 68.89
4 -4 -6 1899.81 107.19
0 4 -6 1887.81 104.79
-4 0 -6 1828.62 101.59
-4 0 -6 1798.02 108.09
0 -4 6 2047.2 106.99
-4 4 6 2133.49 107.29
0 -4 6 1806.22 106.49
-4 1 -6 945.71 53.69
-4 1 -6 878.41 56.99
3 -4 -6 903.21 50.59
3 -4 -6 843.22 56.89
1 3 -6 885.81 53.99
-1 -3 6 1055.19 58.89
-3 4 6 1026.4 55.99
-1 -3 6 1003.9 54.69
2 -4 -6 1201.68 65.59
2 -4 -6 1285.57 71.59
-4 2 -6 1234.78 68.99
-4 2 -6 1161.28 68.49
2 2 -6 1147.19 67.19
-2 -2 6 1244.58 65.09
-2 4 6 1163.78 67.59
1 -4 -6 1170.18 67.09
-4 3 -6 1166.08 69.29
-1 4 6 1176.48 65.69
-3 -1 6 1154.98 71.29
-3 -1 6 1281.67 67.89
-4 4 -6 1798.62 111.59
0 -4 -6 1842.22 111.69
0 -4 -6 1796.42 110.69
-4 0 6 2188.28 110.69
-4 0 6 2134.89 114.89
4 -4 6 2149.98 118.19
0 4 6 2188.28 106.69
-1 -4 -6 80.79 16.7
-5 1 6 96.29 18.2
-5 1 6 131.89 16.6
1 4 6 146.69 9.5
-2 -4 -6 235.18 27.9
6 -2 -6 255.67 16.5
-6 2 6 258.67 24.6
4 -6 6 177.48 25
-6 2 6 259.67 26.4
7 -3 -6 2720.33 148.09
-4 7 -6 2938.31 157.88
-3 -4 -6 2782.92 159.48
4 -7 6 2882.81 161.38
-7 3 6 2731.33 154.68
-7 3 6 2779.22 154.98
8 -4 -6 1594.74 89.09
-4 8 -6 1604.34 98.19
-4 -4 -6 1644.44 102.79
-8 4 6 1599.54 93.39
4 -8 6 1544.15 101.79
-8 4 6 1579.64 95.99
-5 -4 -6 218.58 36.6
-4 9 -6 225.18 30.5
4 -9 6 173.48 33.2
-9 5 6 207.08 28.9
-3 8 -6 316.37 34.8
8 -5 -6 349.96 30.5
-5 -3 -6 350.96 41.3
3 -8 6 331.07 40.9
3 -8 6 404.96 29.3
-8 5 6 273.57 33.3
7 -5 -6 61.29 14.2
-2 7 -6 104.99 19.1
-7 5 6 75.69 10.8
2 -7 6 66.49 13.3
2 -7 6 53.19 18.9
-1 6 -6 228.08 24.9
6 -5 -6 259.07 25.9
-5 -1 -6 228.18 17.6
-6 5 6 276.87 27.4
1 -6 6 319.97 30.5
1 -6 6 271.37 24.3
-5 0 -6 974.2 56.49
5 -5 -6 974 63.49
-5 0 -6 944.61 65.99
0 5 -6 935.11 60.19
0 -5 6 1126.29 64.69
-5 5 6 1068.99 63.49
0 -5 6 1102.49 63.69
4 -5 -6 97.79 16.3
1 4 -6 73.49 12.1
-5 1 -6 76.09 15.9
-5 1 -6 89.79 11.9
4 -5 -6 85.79 7.6
-1 -4 6 137.19 18.4
-4 5 6 129.59 16.4
3 -5 -6 502.65 36.9
2 3 -6 463.15 31
3 -5 -6 444.66 27.3
-5 2 -6 419.86 33.8
-5 2 -6 468.55 32.2
-3 5 6 484.35 33.2
-2 -3 6 463.75 30.1
-2 -3 6 465.45 35.8
-5 3 -6 330.67 24.9
-5 3 -6 265.17 23
2 -5 -6 294.07 20.6
2 -5 -6 258.17 34.4
3 2 -6 312.27 22
-3 -2 6 229.68 16.3
-3 -2 6 215.78 26.1
-3 -2 6 246.18 21.3
1 -5 -6 1100.19 66.09
-5 4 -6 1064.99 64.89
1 -5 -6 1084.99 69.59
-5 4 -6 1152.48 69.09
-4 -1 6 1175.38 65.79
-4 -1 6 1200.38 72.49
-1 5 6 1193.18 64.59
0 -5 -6 828.22 59.99
0 -5 -6 944.11 62.29
-5 5 -6 927.41 62.19
-5 5 -6 830.22 56.99
-5 0 6 1122.19 66.09
5 -5 6 1109.09 64.49
0 5 6 1145.09 55.89
-5 0 6 1031.1 59.39
-1 -5 -6 126.99 19.6
-1 -5 -6 139.29 20.9
1 5 6 135.49 11.7
-6 1 6 102.29 16.1
-6 1 6 80.79 18.9
-2 -5 -6 1677.53 97.59
-2 -5 -6 1717.33 101.59
-7 2 6 1631.24 96.39
-7 2 6 1594.74 98.89
-5 8 -6 2757.22 158.88
-3 -5 -6 2737.83 161.58
-3 -5 -6 2856.21 156.48
5 -8 6 2826.62 163.28
-8 3 6 2633.54 155.18
-8 3 6 2913.41 157.58
-5 9 -6 1221.78 80.59
-4 -5 -6 1198.28 84.39
-4 -5 -6 1215.68 76.49
-9 4 6 1066.79 76.29
-9 4 6 1222.18 76.39
5 -9 6 1193.58 85.69
-5 10 -6 34.5 21.5
-5 -5 -6 22.4 15.8
-5 -5 -6 -13.5 20.3
-10 5 6 40.8 20.1
5 -10 6 37.3 25.1
-5 11 -6 44.8 25.3
-6 -5 -6 109.19 32.9
5 -11 6 69.49 30
-11 6 6 99.29 26.1
-6 -4 -6 67.29 18.6
-6 -4 -6 28.7 22.5
-4 10 -6 49.2 21.5
-10 6 6 41.7 21.8
4 -10 6 93.09 29.9
-6 -3 -6 36.6 21.3
9 -6 -6 12.9 12.4
-3 9 -6 35.7 18.1
-9 6 6 46.5 19.2
3 -9 6 63.19 25.1
-2 8 -6 281.57 33.1
8 -6 -6 343.37 32.8
-6 -2 -6 299.47 39.2
2 -8 6 330.57 29.8
-8 6 6 337.97 34
2 -8 6 394.46 41
7 -6 -6 472.25 39.4
-1 7 -6 469.45 37.8
-6 -1 -6 469.55 29.6
-6 -1 -6 498.95 46.1
1 -7 6 507.55 43.1
1 -7 6 449.36 36.3
-7 6 6 414.86 39.3
6 -6 -6 225.78 27.3
0 6 -6 232.38 23.9
-6 0 -6 214.68 30.3
-6 0 -6 205.98 18.6
0 -6 6 228.68 27.6
0 -6 6 216.48 25.5
-6 6 6 248.78 28.1
-6 1 -6 125.49 14.9
5 -6 -6 137.69 22.1
-6 1 -6 114.49 21.1
1 5 -6 149.59 17.4
-1 -5 6 119.59 17.9
-5 6 6 108.99 18.5
-1 -5 6 102.49 19.5
4 -6 -6 302.37 30.2
-6 2 -6 275.77 23.7
2 4 -6 264.67 23
-6 2 -6 267.77 28.9
-2 -4 6 228.58 27.3
-4 6 6 255.47 26.4
3 -6 -6 703.83 51.29
-6 3 -6 679.53 47.4
-6 3 -6 716.03 46.8
3 -6 -6 711.43 41.6
3 3 -6 681.53 44.3
-3 -3 6 735.63 42
-3 6 6 730.43 46.9
-6 4 -6 23.4 11.7
2 -6 -6 43.7 10.4
-6 4 -6 31.3 10.9
-2 6 6 47.7 11.1
-4 -2 6 51.69 16.4
-4 -2 6 33.9 10.5
-6 5 -6 264.97 27.2
1 -6 -6 267.67 29.6
-6 5 -6 206.18 20.9
1 -6 -6 221.98 23.7
-5 -1 6 235.38 28.7
-5 -1 6 220.78 21.6
0 -6 -6 176.88 25.5
-6 6 -6 193.78 19.1
0 -6 -6 220.18 25.3
-6 6 -6 167.08 25.2
-6 0 6 200.88 27.9
0 6 6 211.78 18.3
6 -6 6 193.68 25.2
-6 0 6 228.88 22.6
-1 -6 -6 728.63 51.49
-6 7 -6 645.04 46.9
-1 -6 -6 666.53 51.39
-7 1 6 653.13 46.4
6 -7 6 705.63 53.49
-7 1 6 675.03 52.89
-2 -6 -6 941.31 68.99
-6 8 -6 943.51 68.59
-2 -6 -6 981.9 67.09
6 -8 6 1030.6 72.29
-8 2 6 986.1 64.39
-8 2 6 1059.59 68.79
-3 -6 -6 1014.6 69.59
-3 -6 -6 855.71 71.79
-6 9 -6 961 70.99
-9 3 6 1125.49 70.89
6 -9 6 1097.69 76.79
-9 3 6 981.8 67.49
-6 10 -6 62.29 23.8
-4 -6 -6 120.19 23.9
-4 -6 -6 110.89 30.3
-10 4 6 72.89 21.7
6 -10 6 144.89 32.7
-6 11 -6 22.9 22.8
-5 -6 -6 40.6 28.2
-11 5 6 24 20.4
6 -11 6 22.7 25.8
-6 -6 -6 170.08 41.8
-6 12 -6 232.58 38.5
-12 6 6 221.68 35.9
6 -12 6 226.18 43.3
-5 12 -6 167.48 33.6
-7 -5 -6 153.88 41.7
-12 7 6 128.59 30.7
5 -12 6 119.19 37.2
-7 -4 -6 210.18 41
-4 11 -6 196.38 33.5
4 -11 6 185.48 38.8
-11 7 6 186.28 33.9
-3 10 -6 121.39 27
-7 -3 -6 123.19 31.3
3 -10 6 130.09 31.5
-10 7 6 84.49 25
9 -7 -6 442.36 40.6
-7 -2 -6 420.66 51.29
-2 9 -6 413.66 41.6
-9 7 6 448.36 44.5
2 -9 6 466.35 48.5
2 -9 6 416.86 36.2
-1 8 -6 271.87 30.6
8 -7 -6 301.77 31.7
-7 -1 -6 294.27 39.3
1 -8 6 247.68 33.4
1 -8 6 221.58 27.6
-8 7 6 206.58 30.6
-7 0 -6 113.59 24.7
7 -7 -6 180.88 26.4
-7 0 -6 155.58 16.9
0 7 -6 131.59 20.3
0 -7 6 123.09 22.3
0 -7 6 117.39 23.3
-7 7 6 91.39 21.1
6 -7 -6 677.13 53.89
-7 1 -6 667.63 55.09
-7 1 -6 712.93 44.3
1 6 -6 709.93 46.9
-6 7 6 622.24 50.59
-1 -6 6 677.23 51.89
-1 -6 6 763.02 50.99
-7 2 -6 1741.13 103.89
2 5 -6 1676.93 95.99
-7 2 -6 1706.93 96.09
5 -7 -6 1661.73 103.79
-5 7 6 1644.74 100.29
-2 -5 6 1744.73 97.69
-2 -5 6 1689.93 103.49
4 -7 -6 2965.7 161.28
3 4 -6 2745.23 152.18
-7 3 -6 2876.71 154.38
-7 3 -6 2828.42 157.78
-3 -4 6 2771.92 156.18
-3 -4 6 2801.12 160.98
-4 7 6 2687.13 155.28
-7 4 -6 1080.49 68.99
4 3 -6 1105.99 65.49
3 -7 -6 1059.89 62.89
-7 4 -6 1144.79 70.19
-3 7 6 1147.89 68.29
2 -7 -6 67.59 13.9
-7 5 -6 93.29 16.2
-7 5 -6 63.29 17.1
-5 -2 6 64.79 20.1
-5 -2 6 72.09 14.1
-2 7 6 94.99 15.5
-7 6 -6 487.95 33.6
-7 6 -6 384.16 38.3
1 -7 -6 513.95 37.2
1 -7 -6 463.15 41.5
-6 -1 6 407.26 41.6
7 -6 6 411.16 38.3
-1 7 6 406.16 32.3
-6 -1 6 419.36 33.9
0 -7 -6 184.38 27.1
0 -7 -6 115.99 21.9
-7 7 -6 144.19 24.6
7 -7 6 91.49 21.7
-7 0 6 99.89 24.9
-7 0 6 130.29 20
-1 -7 -6 0.9 14.9
-7 8 -6 -1.9 15.4
-1 -7 -6 -1.7 15.3
7 -8 6 9.2 16.8
-8 1 6 13.5 12.6
-8 1 6 19.2 18.3
-2 -7 -6 54.99 23.7
-7 9 -6 106.29 25.5
-2 -7 -6 93.59 22.3
7 -9 6 87.29 25.7
-9 2 6 125.49 26
-9 2 6 104.09 21.2
-7 10 -6 5.6 19.5
-3 -7 -6 -15 16.7
-3 -7 -6 8 22.4
-10 3 6 8.1 17.1
-10 3 6 24.6 18.2
7 -10 6 1.9 19.9
-7 11 -6 27.8 23.2
-4 -7 -6 5.9 18.8
-4 -7 -6 38.9 25.8
-11 4 6 21.6 20.3
7 -11 6 50.59 26.5
-5 -7 -6 111.89 34.4
-7 12 -6 111.39 31.2
-12 5 6 107.49 28.8
7 -12 6 139.89 38.3
-4 12 -6 62.59 28.1
-8 -4 -6 16.2 32.7
-12 8 6 55.39 27.9
4 -12 6 72.59 33.5
-8 -3 -6 44.2 30.9
-3 11 -6 43.2 24.3
-11 8 6 41.6 24.5
3 -11 6 67.09 29.9
-8 -2 -6 149.69 36.1
10 -8 -6 111.39 23.8
-2 10 -6 112.29 25
-10 8 6 99.79 27
2 -10 6 70.09 27.9
-1 9 -6 313.97 36.3
-8 -1 -6 303.67 45.1
9 -8 -6 364.96 39.9
1 -9 6 378.86 36.4
1 -9 6 353.46 42.8
-9 8 6 316.77 40.1
0 8 -6 272.37 32
8 -8 -6 313.57 37
-8 0 -6 315.57 41.7
0 -8 6 307.57 37.1
-8 8 6 287.17 36.4
0 -8 6 417.06 37.9
7 -8 -6 10.3 17
-8 1 -6 4.3 19.1
1 7 -6 14.8 13.7
-8 1 -6 5.1 10
-1 -7 6 -8.8 14.2
-7 8 6 14.4 16.5
-1 -7 6 27 16.9
2 6 -6 968.4 62.59
-8 2 -6 955 61.09
-8 2 -6 1002.8 72.39
6 -8 -6 979.6 71.09
-2 -6 6 969.2 69.69
-2 -6 6 1088.89 65.39
-6 8 6 995.8 68.59
5 -8 -6 2925.21 160.48
-8 3 -6 2628.44 150.58
-8 3 -6 2758.02 157.08
3 5 -6 2630.94 149.29
-5 8 6 2745.33 154.28
-3 -5 6 2724.13 159.18
-8 4 -6 1695.53 100.89
4 4 -6 1694.33 95.09
4 -8 -6 1641.44 104.79
-8 4 -6 1688.03 98.89
-4 8 6 1584.24 98.19
-4 -4 6 1666.03 105.79
-8 5 -6 357.76 35.4
3 -8 -6 339.47 38.3
5 3 -6 317.47 28.5
-8 5 -6 292.97 32.4
-3 8 6 288.47 30.1
-5 -3 6 354.96 39.6
-8 6 -6 329.47 30.8
2 -8 -6 364.16 30.9
-8 6 -6 290.77 34.3
2 -8 -6 276.87 35.6
-2 8 6 317.47 29.9
-6 -2 6 329.27 40.8
-6 -2 6 357.96 30.6
1 -8 -6 270.47 36.1
-8 7 -6 270.87 33
1 -8 -6 300.97 31.1
-7 -1 6 202.28 33.6
-7 -1 6 230.18 26.2
8 -7 6 249.68 31.3
0 -8 -6 349.17 38.3
0 -8 -6 291.67 37.6
-8 8 -6 324.47 38.5
-8 0 6 408.66 43.2
8 -8 6 327.67 39.2
-8 0 6 301.47 31.3
-8 9 -6 94.09 24.5
-1 -8 -6 89.39 24.8
-1 -8 -6 67.49 23
8 -9 6 104.89 27.9
-9 1 6 83.39 19.4
-9 1 6 100.39 25.7
-2 -8 -6 197.48 31.9
-8 10 -6 101.59 27.1
-2 -8 -6 158.98 30.8
8 -10 6 142.79 32.4
-10 2 6 130.09 24.5
-10 2 6 125.89 28.1
-3 -8 -6 61.59 28.4
-3 -8 -6 134.89 29.9
-8 11 -6 155.38 31.8
8 -11 6 105.29 32.2
-11 3 6 210.78 33.8
-11 3 6 110.99 25.3
-8 12 -6 140.99 34.8
-4 -8 -6 150.78 35.7
8 -12 6 143.49 36.3
-12 4 6 149.49 30.4
-9 -3 -6 56.09 35.2
-3 12 -6 65.59 27.3
3 -12 6 57.09 32.3
-12 9 6 39.5 27.3
-2 11 -6 2.2 21.4
-9 -2 -6 -3.2 28.5
-11 9 6 19.5 24
2 -11 6 42.2 27.5
10 -9 -6 -20.4 17.1
-1 10 -6 -8.8 16.5
-9 -1 -6 5.3 26.8
-10 9 6 4 21.7
1 -10 6 7.4 23.1
1 -10 6 12.9 16.8
0 9 -6 176.68 27.5
9 -9 -6 156.68 29.8
-9 0 -6 176.78 35.7
-9 9 6 164.18 31
0 -9 6 165.18 31.8
0 -9 6 199.48 29.1
-9 1 -6 82.59 28.2
8 -9 -6 81.39 25
1 8 -6 74.69 19.3
-1 -8 6 82.89 23
-1 -8 6 124.89 25.6
-8 9 6 92.99 24.5
7 -9 -6 100.89 26.5
2 7 -6 68.49 17.9
-9 2 -6 81.59 17.6
-9 2 -6 91.79 26.7
-2 -7 6 103.49 24.3
-7 9 6 132.59 25.4
3 6 -6 976.2 64.39
-9 3 -6 1166.08 76.59
-9 3 -6 982.8 64.99
6 -9 -6 980 75.09
-3 -6 6 1026.4 75.29
-6 9 6 1038.7 71.49
4 5 -6 1180.58 72.09
5 -9 -6 1137.19 81.99
-9 4 -6 1196.38 75.39
-9 4 -6 1267.77 81.09
-5 9 6 1081.19 76.29
-4 -5 6 1206.88 84.09
-9 5 -6 257.57 30.8
5 4 -6 252.77 26.5
-9 5 -6 198.98 28.5
4 -9 -6 200.08 32.9
-5 -4 6 244.68 36.3
-4 9 6 200.98 27.1
6 3 -6 28 12.8
-9 6 -6 26.7 20.9
3 -9 -6 1.1 18.8
-9 6 -6 24.2 16.9
-3 9 6 34.8 15.5
-6 -3 6 27.5 19.8
2 -9 -6 380.56 46.1
-9 7 -6 407.96 43.2
-7 -2 6 441.06 48.7
-7 -2 6 476.35 37.8
1 -9 -6 324.87 40.3
-9 8 -6 267.77 38.1
-8 -1 6 323.07 42.9
-8 -1 6 327.87 33.4
9 -8 6 356.26 40
-9 9 -6 123.99 28.4
0 -9 -6 180.38 29
0 -9 -6 120.09 29.5
9 -9 6 178.48 32.4
-9 0 6 185.98 33.8
-9 0 6 148.99 23.9
-9 10 -6 167.98 31.8
-1 -9 -6 177.58 32.1
-1 -9 -6 144.49 33
-10 1 6 179.38 34.9
-10 1 6 218.68 29.1
9 -10 6 184.98 35.8
-2 -9 -6 109.89 30.4
-2 -9 -6 62.49 27.2
-9 11 -6 83.19 27.7
9 -11 6 85.49 31.1
-11 2 6 161.08 33.7
-11 2 6 67.39 21.6
-3 -9 -6 182.18 35.2
-3 -9 -6 117.79 33.9
-9 12 -6 155.78 35.7
-12 3 6 92.69 25.6
9 -12 6 192.88 41.3
11 -10 -6 115.09 29.4
-10 -1 -6 140.69 40.4
-1 11 -6 103.69 29.1
-11 10 6 130.69 34.5
1 -11 6 200.88 38.1
-10 0 -6 3.8 27.1
10 -10 -6 36.3 24.7
0 10 -6 32.9 19.8
0 -10 6 8.5 18
0 -10 6 -5 20.6
-10 10 6 0.5 22.9
1 9 -6 136.59 24.9
9 -10 -6 172.78 32.8
-10 1 -6 169.28 36.9
-1 -9 6 198.98 31.7
-9 10 6 140.29 30.7
2 8 -6 138.09 23.6
8 -10 -6 142.99 31.4
-10 2 -6 83.89 29.3
-2 -8 6 104.09 27.7
-8 10 6 186.08 31.4
-10 3 -6 9.9 14.2
7 -10 -6 23.7 22.2
3 7 -6 32.4 16
-10 3 -6 -5.2 20.6
-3 -7 6 15.6 20.4
-7 10 6 32.4 20.7
-10 4 -6 78.69 19.8
4 6 -6 105.49 19.6
-10 4 -6 93.39 26.5
6 -10 -6 115.29 30.5
-6 10 6 92.99 23.3
-4 -6 6 136.39 31.8
5 -10 -6 31.6 22.3
-10 5 -6 19.3 19.4
5 5 -6 -3 13.1
-10 5 -6 13.8 15.9
-5 -5 6 0 20.6
-5 10 6 7.4 16.9
-10 6 -6 57.79 20.6
6 4 -6 58.59 16.5
4 -10 -6 44.1 23.7
-4 10 6 88.89 20.7
-6 -4 6 67.79 25.5
3 -10 -6 133.39 31
-10 7 -6 108.49 25.5
7 3 -6 105.89 20.2
-7 -3 6 154.38 34.1
2 -10 -6 77.79 28
-10 8 -6 81.79 25.3
-8 -2 6 81.99 20.1
-8 -2 6 53.69 28.3
1 -10 -6 8.6 24
-10 9 -6 -2.8 20.6
-9 -1 6 -10.9 21.2
-9 -1 6 2.6 15.7
0 -10 -6 -15.3 20.9
-10 10 -6 -8.3 22
-10 0 6 7.4 17.3
-10 0 6 25.2 25.3
10 -10 6 4.4 21.4
-1 -10 -6 -7.1 23.6
-10 11 -6 10.9 24.9
-11 1 6 21.7 18
-11 1 6 73.69 28.2
10 -11 6 22.5 25.4
11 -11 -6 44.2 27.7
-11 0 -6 58.49 35.7
-11 11 6 49.8 29.4
10 -11 -6 10 25.2
-11 1 -6 13.8 29.6
-1 -10 6 -1.3 18.5
-10 11 6 14.9 24
9 -11 -6 109.59 30.2
-11 2 -6 79.19 32.6
-9 11 6 147.59 31.7
-2 -9 6 58.39 23.9
-11 3 -6 163.28 35
8 -11 -6 168.28 35.7
-3 -8 6 106.79 29.9
-11 4 -6 22.1 23.1
7 -11 -6 14.8 25.9
-11 4 -6 33.8 18.3
-4 -7 6 11.5 22.2
-7 11 6 50.99 23.7
6 -11 -6 36 26.5
-11 5 -6 57.79 20.7
-6 11 6 23.4 20.1
-5 -6 6 7.9 23.8
-11 6 -6 98.99 24.3
5 -11 -6 55.59 26.3
-6 -5 6 100.59 30.1
-5 11 6 71.59 24
-11 7 -6 173.68 32.4
4 -11 -6 221.08 38.2
-7 -4 6 235.68 39.4
3 -11 -6 37.5 26.4
8 3 -6 47 27.2
-11 8 -6 27.6 22.4
-8 -3 6 18.5 26.4
2 -11 -6 13.3 25.3
9 2 -6 25.5 19.3
-11 9 -6 16.3 23.4
-9 -2 6 27.5 18.5
-9 -2 6 53.19 29.6
1 -11 -6 195.68 39.2
-11 10 -6 162.58 35.2
-10 -1 6 147.99 26.1
-10 -1 6 112.09 34.9
-11 11 -6 16 26.9
0 -11 -6 71.09 30.6
11 -11 6 58.79 28.7
-11 0 6 110.49 25.5
-11 0 6 51.59 31
-12 3 -6 168.28 38.7
9 -12 -6 123.39 34.3
-3 -9 6 115.29 32.3
-9 12 6 125.79 32.8
-12 4 -6 174.08 36.7
8 -12 -6 104.39 33
-8 12 6 122.49 30.9
-4 -8 6 107.09 32.1
7 -12 -6 92.39 34.1
-12 5 -6 105.79 25.1
-7 12 6 137.69 30.8
-5 -7 6 114.29 35
6 -12 -6 177.58 38.5
-12 6 -6 141.79 28.4
-6 -6 6 195.08 41
5 -12 -6 232.48 42.5
-12 7 -6 136.19 31.2
-7 -5 6 175.58 39.1
4 -12 -6 41.6 28.7
-12 8 -6 56.79 26
-8 -4 6 24 29
-12 9 -6 68.99 27.7
3 -12 -6 73.99 32.2
-9 -3 6 57.19 33.7
0 0 -7 0.7 3.8
-1 0 -7 3223.88 169.58
0 1 -7 3258.57 170.88
-1 1 7 3296.67 170.48
-1 1 -7 3201.48 175.18
0 1 7 3481.55 174.18
-1 0 7 3363.56 175.58
-1 -1 -7 4978.8 255.57
-1 2 -7 4915.41 258.67
-1 -1 -7 4804.82 259.07
-2 1 7 5131.29 258.47
-2 -1 -7 2635.04 148.09
3 -2 -7 2723.73 146.09
-2 -1 -7 2700.63 142.79
-3 2 7 2825.92 147.49
-3 2 7 2892.21 145.69
-2 0 -7 5451.55 283.67
0 -2 7 5497.55 286.47
-2 2 7 5501.05 285.57
-2 1 -7 4895.31 255.77
-1 2 7 4939.41 255.17
0 -2 -7 5527.45 284.87
-2 2 -7 5407.46 285.07
0 2 7 5467.75 281.97
3 -1 -7 1281.17 69.59
-1 -2 -7 1292.37 67.19
-2 3 -7 1332.77 73.09
-1 -2 -7 1282.47 73.49
-1 -2 -7 1337.87 67.39
-3 1 7 1232.18 73.09
-2 -2 -7 192.58 22
4 -2 -7 229.88 17.7
2 -4 7 222.28 22.6
-4 2 7 223.28 20.3
-3 -2 -7 1181.78 70.39
5 -3 -7 1139.19 64.49
-2 5 -7 1125.39 66.99
2 -5 7 1079.59 68.89
-5 3 7 1055.39 65.99
-3 -1 -7 10.8 3.6
4 -3 -7 3.2 7.3
-1 4 -7 19.1 8.9
-4 3 7 23.4 8.7
1 -4 7 9.5 7.5
1 -4 7 21.2 9.5
-4 3 7 25.1 6
-3 0 -7 1167.78 68.59
-3 0 -7 1099.09 63.69
3 -3 -7 1175.08 67.59
0 3 -7 1141.19 66.39
0 -3 7 1244.48 68.09
-3 3 7 1212.58 67.29
0 -3 7 1212.28 67.19
1 2 -7 1358.96 74.49
2 -3 -7 1425.26 72.79
-3 1 -7 1370.36 75.89
-3 1 -7 1335.37 74.09
2 -3 -7 1303.87 75.79
-2 3 7 1266.57 74.09
-3 2 -7 2763.52 148.39
1 -3 -7 2703.63 146.59
-2 -1 7 2826.62 150.28
-1 3 7 2817.12 145.99
0 -3 -7 1123.79 66.69
-3 3 -7 1147.29 67.79
-3 0 7 1179.48 68.99
0 3 7 1226.58 62.59
-1 -3 -7 503.05 36.5
-3 4 -7 527.95 36.6
4 -1 -7 501.95 29.9
3 -4 7 604.24 38.8
-4 1 7 532.85 36.7
-2 -3 -7 1617.54 94.69
5 -2 -7 1500.75 86.89
3 -5 7 1695.93 95.59
-5 2 7 1706.53 92.09
-3 -3 -7 1348.27 82.99
-3 6 -7 1416.86 80.39
6 -3 -7 1281.27 73.69
3 -6 7 1307.77 82.39
-6 3 7 1278.97 76.59
-4 -3 -7 1742.93 102.89
7 -4 -7 1682.73 92.59
-3 7 -7 1629.94 97.69
3 -7 7 1601.64 101.29
-7 4 7 1558.34 92.19
-2 6 -7 809.02 56.19
6 -4 -7 781.72 53.69
-6 4 7 962 57.49
2 -6 7 959.2 60.99
2 -6 7 920.31 53.99
-4 -1 -7 46.8 6
5 -4 -7 50.29 12
-1 5 -7 30.1 11
1 -5 7 28.6 9.7
-5 4 7 30.5 11.1
1 -5 7 22 11.8
-4 0 -7 179.48 22
4 -4 -7 187.48 20.1
0 4 -7 160.68 18.1
-4 0 -7 164.48 14
0 -4 7 174.68 19.5
0 -4 7 165.18 19.1
-4 4 7 177.78 19.2
-4 1 -7 514.15 33.9
1 3 -7 531.75 35
3 -4 -7 542.05 31.2
-4 1 -7 520.75 37.2
3 -4 -7 523.35 37.4
-3 4 7 566.04 35.9
-1 -3 7 555.34 34.4
-1 -3 7 572.44 38.4
-4 2 -7 226.48 20.4
2 -4 -7 251.97 22.9
2 2 -7 211.78 18.1
2 -4 -7 224.48 16.7
-4 2 -7 246.88 20.6
-2 4 7 192.38 18.1
-4 3 -7 -2.7 8.1
1 -4 -7 15.3 7.5
-4 3 -7 -3 6.6
-3 -1 7 37.2 9.6
-3 -1 7 19.5 9.6
-1 4 7 35.8 7.4
-4 4 -7 172.18 20.2
-4 4 -7 173.38 16.4
0 -4 -7 152.08 18.2
0 4 7 178.08 12.9
-4 0 7 165.98 21.2
-4 0 7 163.38 17.5
-4 5 -7 1294.07 84.09
-1 -4 -7 1389.46 84.59
-5 1 7 1500.05 82.69
-5 1 7 1467.15 85.49
4 -5 7 1555.34 87.49
6 -2 -7 726.83 45
-2 -4 -7 729.83 55.59
-6 2 7 876.41 53.09
-6 2 7 1005.3 55.79
4 -6 7 916.81 57.79
-3 -4 -7 765.22 56.59
-4 7 -7 712.73 53.49
7 -3 -7 748.23 44.3
-7 3 7 758.22 51.99
-7 3 7 778.52 51.59
4 -7 7 801.62 57.09
-4 8 -7 296.47 34.2
-4 -4 -7 328.17 38.1
-8 4 7 280.27 28.3
4 -8 7 244.28 35.2
-8 4 7 279.17 31.5
-5 -4 -7 842.02 67.99
-4 9 -7 852.61 62.39
-9 5 7 762.32 59.49
4 -9 7 837.42 68.29
-3 8 -7 933.01 64.89
-5 -3 -7 1013.2 71.29
8 -5 -7 966.1 59.89
-8 5 7 898.71 64.39
3 -8 7 904.91 69.19
7 -5 -7 1152.08 68.69
-2 7 -7 1147.99 70.99
-7 5 7 1132.59 67.69
2 -7 7 1145.19 75.49
2 -7 7 1034.4 66.49
-7 5 7 1078.49 71.29
6 -5 -7 49.4 13.4
-5 -1 -7 37.8 7
-1 6 -7 36.3 12.6
-6 5 7 33.9 13.4
1 -6 7 46.1 15.2
1 -6 7 31.8 11.8
5 -5 -7 524.95 37.1
-5 0 -7 496.15 29
-5 0 -7 447.06 38.5
0 5 -7 506.35 34.4
-5 5 7 396.76 34.4
0 -5 7 421.76 34.9
0 -5 7 380.66 34.7
-5 1 -7 1373.56 76.39
4 -5 -7 1290.87 81.39
1 4 -7 1385.66 78.19
4 -5 -7 1281.57 72.29
-5 1 -7 1286.47 81.49
-4 5 7 1477.15 80.29
-1 -4 7 1543.35 83.29
3 -5 -7 1520.35 86.09
3 -5 -7 1552.44 93.59
2 3 -7 1558.34 89.49
-5 2 -7 1601.54 90.19
-5 2 -7 1634.74 92.89
-3 5 7 1670.53 90.99
-2 -3 7 1709.23 95.39
-2 -3 7 1674.03 87.99
-5 3 -7 1104.59 66.19
2 -5 -7 1140.29 68.59
2 -5 -7 1112.09 62.49
3 2 -7 1106.69 63.89
-5 3 -7 1107.59 65.09
-3 -2 7 1059.09 69.09
-3 -2 7 1094.59 64.29
1 -5 -7 34.4 12.1
1 -5 -7 50.19 11.1
-5 4 -7 49 9.9
-5 4 -7 42.6 12.8
-1 5 7 22.8 7.5
-4 -1 7 24 9.4
-4 -1 7 4.1 11.1
0 -5 -7 494.85 35.8
-5 5 -7 478.55 30
0 -5 -7 478.35 34.8
-5 5 -7 489.65 36.5
0 5 7 384.16 26.4
-5 0 7 392.56 37
-5 0 7 371.76 31.1
5 -5 7 427.26 35.4
-5 6 -7 1489.45 77.09
-1 -5 -7 1448.76 83.09
-1 -5 -7 1402.16 83.39
-6 1 7 1259.37 79.69
-6 1 7 1192.98 82.89
-2 -5 -7 795.82 55.39
-2 -5 -7 715.83 57.09
-7 2 7 875.41 57.09
-7 2 7 840.92 54.39
-3 -5 -7 100.89 24.6
-5 8 -7 115.69 23.8
-3 -5 -7 113.79 20.7
-8 3 7 145.09 22.6
-8 3 7 142.39 22.4
5 -8 7 121.49 25.6
-4 -5 -7 258.97 31
-4 -5 -7 286.47 39.6
-5 9 -7 227.88 32.7
5 -9 7 342.37 41.5
-9 4 7 277.97 30.8
-9 4 7 323.47 34.5
-5 -5 -7 635.34 50.09
-5 -5 -7 626.74 60.99
-5 10 -7 559.64 54.49
5 -10 7 608.74 60.89
-10 5 7 756.42 55.89
-5 11 -7 140.19 30.4
-6 -5 -7 89.29 33.5
-11 6 7 111.79 28.1
5 -11 7 127.29 34.6
-6 -4 -7 266.67 41.9
-4 10 -7 254.47 35.6
4 -10 7 285.67 42
-10 6 7 270.37 34.7
-6 -3 -7 508.25 51.79
-3 9 -7 452.35 43.4
9 -6 -7 489.15 38.8
3 -9 7 407.96 48.5
-9 6 7 382.76 42
8 -6 -7 372.06 33.5
-6 -2 -7 370.66 42.4
-2 8 -7 326.87 34.6
2 -8 7 275.87 29.1
2 -8 7 362.06 40.7
-8 6 7 311.37 36.3
7 -6 -7 41.9 15.6
-1 7 -7 80.79 17.4
-6 -1 -7 17.6 18
1 -7 7 42.2 14.1
-7 6 7 51.39 17.4
1 -7 7 53.49 18.3
6 -6 -7 503.05 39.1
-6 0 -7 492.75 43.4
0 6 -7 537.15 36.3
-6 0 -7 484.25 29.8
0 -6 7 370.26 35.9
0 -6 7 388.06 37.4
-6 6 7 364.56 36.3
1 5 -7 1379.16 78.79
-6 1 -7 1583.54 86.69
-6 1 -7 1392.06 76.39
5 -6 -7 1476.05 84.69
-1 -5 7 1303.47 79.99
-1 -5 7 1230.08 82.29
-5 6 7 1152.28 79.99
4 -6 -7 763.62 44.9
-6 2 -7 799.02 55.39
4 -6 -7 865.41 57.39
2 4 -7 753.02 50.49
-6 2 -7 769.42 50.59
-4 6 7 982.1 54.79
-2 -4 7 973.6 58.99
-6 3 -7 1299.37 79.09
3 3 -7 1341.57 76.09
3 -6 -7 1326.97 73.09
3 -6 -7 1305.07 81.89
-6 3 -7 1280.37 77.49
-3 -3 7 1331.77 72.29
-3 6 7 1373.96 77.79
-6 4 -7 867.31 57.19
2 -6 -7 809.82 52.79
4 2 -7 845.92 54.09
-6 4 -7 849.91 55.19
-2 6 7 973.9 54.79
-4 -2 7 976.7 55.29
-4 -2 7 923.41 61.59
-6 5 -7 37.8 14.6
1 -6 -7 38.6 12.3
1 -6 -7 43 15.8
-6 5 -7 20.3 9.7
-5 -1 7 54.09 12.4
-5 -1 7 66.99 19.6
-6 6 -7 481.95 31.7
0 -6 -7 490.15 39.7
-6 6 -7 464.45 39.2
0 -6 -7 481.45 36.7
-6 0 7 394.66 39.6
6 -6 7 354.76 37.6
-6 0 7 409.36 33.6
-6 7 -7 760.02 48.8
-6 7 -7 776.62 58.59
-1 -6 -7 746.33 56.99
-1 -6 -7 847.02 58.99
-7 1 7 834.82 54.19
6 -7 7 900.01 61.49
-7 1 7 874.21 59.99
-6 8 -7 392.06 41.3
-2 -6 -7 403.46 40
-2 -6 -7 406.96 43.8
6 -8 7 492.55 44
-8 2 7 548.65 44.1
-8 2 7 444.56 37.8
-3 -6 -7 443.06 40.3
-3 -6 -7 436.36 45.2
-6 9 -7 442.06 43.5
6 -9 7 377.16 44.8
-9 3 7 338.37 38.5
-9 3 7 328.37 37
-4 -6 -7 387.76 47
-4 -6 -7 485.45 44.1
-6 10 -7 460.65 46.7
-10 4 7 352.46 40.8
6 -10 7 355.26 47.3
-6 11 -7 189.88 34.1
-5 -6 -7 184.48 36.9
-5 -6 -7 155.08 28.7
6 -11 7 180.58 38.1
-11 5 7 153.68 30.3
-6 -6 -7 -2.8 26.9
-6 12 -7 18.6 24
-12 6 7 17.6 22.7
6 -12 7 -0.9 26.6
-5 12 -7 8.5 24.7
-7 -5 -7 38.3 31.9
5 -12 7 11.4 27.5
-12 7 7 6.6 22.8
-4 11 -7 21.6 22.1
-7 -4 -7 48.5 29.5
-11 7 7 48.7 23.4
4 -11 7 51.69 29.2
-7 -3 -7 94.69 30.6
-3 10 -7 75.99 23.2
-10 7 7 43.5 21.4
3 -10 7 45 26.9
9 -7 -7 64.89 19.2
-7 -2 -7 46.2 26
-2 9 -7 92.69 22
2 -9 7 127.19 28.1
-9 7 7 113.09 25.8
2 -9 7 138.49 20.7
-7 -1 -7 33.5 22.7
-1 8 -7 21.5 15.7
8 -7 -7 39.6 16.3
1 -8 7 44.4 16.2
1 -8 7 24.3 19.5
-8 7 7 39.2 18.4
0 7 -7 440.76 36.1
-7 0 -7 453.65 35
-7 0 -7 516.45 47.5
7 -7 -7 437.36 40.9
0 -7 7 382.56 39.9
0 -7 7 434.26 37.7
-7 7 7 311.77 37.3
6 -7 -7 805.12 59.79
-7 1 -7 833.22 62.59
-7 1 -7 818.62 50.59
1 6 -7 788.82 53.79
-1 -6 7 842.42 59.49
-6 7 7 828.12 58.49
-1 -6 7 912.81 58.19
5 -7 -7 755.62 57.59
-7 2 -7 710.23 49.4
-7 2 -7 787.22 57.69
2 5 -7 772.42 50.59
-2 -5 7 833.32 51.69
-2 -5 7 817.32 57.99
-5 7 7 832.02 54.89
3 4 -7 696.83 48.4
-7 3 -7 710.43 50.09
-7 3 -7 686.93 52.89
4 -7 -7 702.13 56.09
-3 -4 7 822.02 47.1
-4 7 7 895.91 53.19
-3 -4 7 828.12 57.99
3 -7 -7 1689.03 90.49
-7 4 -7 1650.03 96.29
-7 4 -7 1654.63 96.69
4 3 -7 1654.13 93.19
-3 7 7 1525.45 94.19
-7 5 -7 1240.88 73.79
-7 5 -7 1186.68 70.39
2 -7 -7 1150.28 68.59
-2 7 7 1123.29 68.49
-5 -2 7 1119.79 78.09
-5 -2 7 1098.29 68.99
1 -7 -7 53.99 15.4
1 -7 -7 28.4 16.5
-7 6 -7 62.29 13.5
-7 6 -7 51.39 17.1
-6 -1 7 50.59 19.7
-6 -1 7 77.09 15.2
-7 7 -7 403.96 40.1
-7 7 -7 420.56 31.7
0 -7 -7 439.76 38.6
0 -7 -7 494.45 42.1
-7 0 7 438.86 43.1
-7 0 7 356.66 33.6
7 -7 7 437.56 42
-7 8 -7 715.33 58.29
-1 -7 -7 755.42 58.09
-1 -7 -7 768.52 59.09
-8 1 7 788.52 59.89
-8 1 7 764.92 53.29
7 -8 7 777.22 61.69
-2 -7 -7 626.84 50.39
-2 -7 -7 570.64 52.59
-7 9 -7 529.95 50.79
7 -9 7 669.53 56.19
-9 2 7 526.45 50.69
-9 2 7 530.95 45.4
-3 -7 -7 383.06 46.2
-3 -7 -7 414.96 43
-7 10 -7 431.06 47.1
7 -10 7 382.76 47.5
-10 3 7 396.86 43.5
-10 3 7 423.36 40.9
-4 -7 -7 136.89 28.6
-4 -7 -7 146.39 33.9
-7 11 -7 146.09 31.5
-11 4 7 106.59 26.8
7 -11 7 96.09 31
-7 12 -7 -29.9 21.2
-5 -7 -7 -29.4 24.3
-12 5 7 7.3 21.4
7 -12 7 -23.1 26.6
-8 -4 -7 173.38 42.5
-4 12 -7 110.89 30.4
4 -12 7 105.59 36.2
-12 8 7 131.39 34.1
-8 -3 -7 176.58 39.6
-3 11 -7 119.59 30.5
3 -11 7 201.68 39.6
-11 8 7 178.38 33.5
10 -8 -7 109.79 23.8
-2 10 -7 91.29 25
-8 -2 -7 109.69 34.1
2 -10 7 87.39 28.3
-10 8 7 137.99 29.7
-1 9 -7 35.2 18.4
-8 -1 -7 62.09 27.5
9 -8 -7 57.09 19.8
1 -9 7 45 18
1 -9 7 66.49 24.7
-9 8 7 60.49 22.8
0 8 -7 61.79 19.1
8 -8 -7 84.19 23.1
-8 0 -7 85.69 27.4
-8 8 7 125.89 25.9
0 -8 7 135.39 24
0 -8 7 133.89 25.8
1 7 -7 760.32 54.29
-8 1 -7 839.02 65.09
7 -8 -7 812.52 60.99
-8 1 -7 756.92 49.8
-1 -7 7 862.21 58.79
-7 8 7 728.93 58.19
-1 -7 7 802.52 59.69
6 -8 -7 373.16 41.5
-8 2 -7 375.66 31.8
-8 2 -7 381.06 42.7
2 6 -7 386.36 33.8
-6 8 7 504.15 40.8
-2 -6 7 447.16 36.6
-2 -6 7 400.76 41.3
5 -8 -7 87.19 23.3
3 5 -7 135.99 19.3
-8 3 -7 132.09 23.9
-8 3 -7 111.69 19.2
-5 8 7 171.68 24.3
-3 -5 7 108.79 25.4
4 -8 -7 231.28 31.6
-8 4 -7 243.78 28
-8 4 -7 300.87 33.1
4 4 -7 288.87 25.9
-4 -4 7 211.28 31.8
-4 8 7 222.58 27.8
-8 5 -7 988.2 64.69
3 -8 -7 959 68.89
-8 5 -7 948.51 62.69
5 3 -7 965.4 59.89
-5 -3 7 986 69.49
-3 8 7 855.11 60.09
-8 6 -7 307.97 34.9
2 -8 -7 389.96 39.5
2 -8 -7 351.86 40.1
-8 6 -7 375.16 32.3
-6 -2 7 274.57 29.1
-6 -2 7 291.37 37.9
-2 8 7 287.97 30.3
1 -8 -7 52.59 17.2
1 -8 -7 36.1 18.9
-8 7 -7 47.1 19.2
-7 -1 7 26 19
-7 -1 7 18.5 13.7
0 -8 -7 109.19 23
0 -8 -7 72.29 23.3
-8 8 -7 77.79 24.3
-8 0 7 146.99 28.6
-8 0 7 98.49 19.3
-8 9 -7 135.59 28
-1 -8 -7 84.79 24.5
-1 -8 -7 124.09 27.3
-9 1 7 118.79 22.4
-9 1 7 139.49 28.7
8 -9 7 100.09 25.9
-8 10 -7 63.39 25.2
-2 -8 -7 41.7 22.7
-2 -8 -7 57.09 25.1
-10 2 7 43.9 19.4
8 -10 7 36.1 24.4
-10 2 7 39.7 21.5
-3 -8 -7 82.09 25.5
-8 11 -7 96.49 29.2
-3 -8 -7 109.09 31.1
8 -11 7 90.29 31.4
-11 3 7 31.8 23.1
-11 3 7 60.99 21.3
-8 12 -7 26 26.3
-4 -8 -7 12.5 25.9
-12 4 7 10.2 21.4
8 -12 7 17 29.2
-9 -3 -7 215.78 47.1
-3 12 -7 163.98 34.9
-12 9 7 228.88 39.5
3 -12 7 236.48 45.1
-2 11 -7 321.67 40.6
-9 -2 -7 254.47 48.1
-11 9 7 290.87 44
2 -11 7 319.07 45.8
-9 -1 -7 121.09 35.7
-1 10 -7 190.28 30.3
1 -10 7 110.29 24.4
1 -10 7 198.68 36.1
-10 9 7 142.79 30.9
-9 0 -7 40 28.1
9 -9 -7 32.7 20.6
0 9 -7 54.69 19.4
0 -9 7 31.2 21.1
0 -9 7 33.7 18.2
-9 9 7 68.89 23.4
-9 1 -7 31.4 25.6
8 -9 -7 79.39 25.4
1 8 -7 117.19 22.7
-8 9 7 111.79 25.8
-1 -8 7 112.29 25.5
-1 -8 7 108.89 25.5
-9 2 -7 562.54 42.7
2 7 -7 538.05 45.1
-9 2 -7 580.94 55.19
7 -9 -7 555.64 52.99
-7 9 7 670.23 51.99
-2 -7 7 648.44 53.69
-9 3 -7 374.16 43.2
6 -9 -7 440.56 45.3
3 6 -7 384.56 34.3
-9 3 -7 385.76 33.8
-6 9 7 342.67 37.5
-3 -6 7 260.47 38.1
4 5 -7 240.78 28.2
5 -9 -7 317.57 40.5
-9 4 -7 308.37 32.9
-9 4 -7 275.07 36.1
-5 9 7 316.67 35.2
-4 -5 7 342.07 41.9
5 4 -7 667.33 50.19
-9 5 -7 775.82 55.69
-9 5 -7 742.73 56.59
4 -9 -7 764.72 62.09
-4 9 7 836.62 55.89
-5 -4 7 817.42 64.09
3 -9 -7 448.86 46.5
-9 6 -7 442.66 38.9
-9 6 -7 396.36 40.5
6 3 -7 466.55 36.6
-3 9 7 382.26 49.1
-6 -3 7 312.57 42.9
-9 7 -7 89.09 23.6
2 -9 -7 70.69 24.7
-7 -2 7 85.29 19
-7 -2 7 117.29 29.3
1 -9 -7 42.3 24
-9 8 -7 11.6 19.5
-8 -1 7 53.29 23.3
-8 -1 7 45.1 16.2
-9 9 -7 62.39 23.4
0 -9 -7 30.3 21.6
0 -9 -7 45.4 25.8
9 -9 7 46.9 23.6
-9 0 7 24.1 16.8
-9 0 7 17.3 21.4
-9 10 -7 1.3 20.4
-1 -9 -7 -0.6 19.3
-1 -9 -7 -10.9 21.2
-10 1 7 15.4 22.1
-10 1 7 7.2 17.7
9 -10 7 6.9 22.7
-2 -9 -7 19.1 22.3
-9 11 -7 -6.1 22.3
-2 -9 -7 32.8 24
9 -11 7 -12.1 24.3
-11 2 7 -28.7 15.2
-11 2 7 42.8 24.7
-3 -9 -7 5 22.7
-9 12 -7 15.3 25
-3 -9 -7 15.4 24.7
9 -12 7 7.4 27.9
-12 3 7 -17.9 18
-10 -1 -7 307.07 52.39
11 -10 -7 250.37 48.5
-1 11 -7 291.17 39.1
-11 10 7 219.98 40.5
1 -11 7 299.27 44.3
10 -10 -7 243.48 37.7
-10 0 -7 287.27 47.9
0 10 -7 238.48 34.2
0 -10 7 244.38 35.5
-10 10 7 219.08 37.9
9 -10 -7 22.3 21.4
-10 1 -7 10.8 25.8
1 9 -7 26.9 18.7
-1 -9 7 45.4 21.3
-9 10 7 -17.1 19.1
2 8 -7 38.3 18.1
-10 2 -7 53.79 28.2
8 -10 -7 40.8 23.9
-8 10 7 54.89 22.3
-2 -8 7 51.79 22.5
3 7 -7 467.85 39.6
7 -10 -7 385.46 47.3
-10 3 -7 370.76 36.8
-10 3 -7 398.06 48.3
-3 -7 7 457.55 48.3
-7 10 7 440.66 44.7
4 6 -7 500.85 39.4
-10 4 -7 450.25 38.8
-10 4 -7 503.75 48.2
6 -10 -7 417.86 50.09
-4 -6 7 350.26 46.1
-6 10 7 345.77 40.7
-10 5 -7 641.24 54.59
-10 5 -7 684.73 51.09
5 5 -7 556.74 45.5
5 -10 -7 572.74 58.09
-5 10 7 630.24 51.69
-5 -5 7 679.13 61.19
-10 6 -7 248.88 33.9
6 4 -7 277.27 29.5
4 -10 -7 232.08 37.4
-6 -4 7 322.47 43.3
7 3 -7 76.49 18.4
3 -10 -7 50.59 24.6
-10 7 -7 43.9 20.3
-7 -3 7 32.5 24.8
-10 8 -7 100.29 27.3
2 -10 -7 95.39 28.3
8 2 -7 180.88 24.5
-8 -2 7 82.89 20.6
-8 -2 7 96.59 30.6
1 -10 -7 179.78 36.3
-10 9 -7 157.48 32.2
-9 -1 7 167.88 34.5
-9 -1 7 107.59 22.6
-10 10 -7 280.27 41.3
0 -10 -7 202.78 37
-10 0 7 252.07 41.4
10 -10 7 193.88 36.5
-10 0 7 265.07 32.3
-1 -10 -7 110.69 31.6
-10 11 -7 93.29 30.9
10 -11 7 101.59 33.7
-11 1 7 189.78 37
-11 1 7 128.79 26.3
10 -11 -7 92.59 30.2
-11 1 -7 162.88 40.1
-10 11 7 153.08 35
-1 -10 7 100.39 28.2
-11 2 -7 40.6 28.5
9 -11 -7 32.9 23.8
-9 11 7 22.8 21.9
-2 -9 7 25.3 22.1
-11 3 -7 100.69 32.2
8 -11 -7 76.89 29
-3 -8 7 87.89 27.7
-8 11 7 40.3 24
4 7 -7 98.49 38.2
-11 4 -7 127.29 23.9
7 -11 -7 90.89 30.9
-11 4 -7 183.48 34.7
-7 11 7 135.89 29.3
-4 -7 7 111.29 31.2
6 -11 -7 182.08 36.1
5 6 -7 203.28 27.5
-11 5 -7 162.38 27.9
-6 11 7 173.58 30.9
-5 -6 7 208.38 37.9
6 5 -7 66.79 19.2
-11 6 -7 85.89 23.8
5 -11 -7 77.09 28.2
-6 -5 7 116.49 31.6
4 -11 -7 13.2 23.9
-11 7 -7 42.5 22
7 4 -7 -1 15.2
-7 -4 7 -2.5 24.6
8 3 -7 117.99 23.2
3 -11 -7 135.89 33.9
-11 8 -7 129.59 29.9
-8 -3 7 164.88 37.9
2 -11 -7 310.67 46.4
9 2 -7 290.57 34.9
-11 9 -7 303.87 41.8
-9 -2 7 292.07 35.1
-9 -2 7 299.87 48
1 -11 -7 331.57 46.7
-11 10 -7 246.98 41.4
-10 -1 7 244.08 45.1
-10 -1 7 253.57 33.6
-12 3 -7 -3.6 27.5
9 -12 -7 4.8 25.2
-3 -9 7 18.6 24.1
-9 12 7 -24.9 21.7
-12 4 -7 1.6 25.6
8 -12 -7 6.8 27
-4 -8 7 11.2 23.2
-8 12 7 23.4 22.3
7 -12 -7 8.1 26.6
-12 5 -7 -1.3 17.7
-7 12 7 0.7 21.5
-5 -7 7 13.3 24.7
-12 6 -7 -12.8 18.3
6 -12 -7 12.7 25.9
-6 -6 7 -24.7 24
-12 7 -7 6.6 20
5 -12 -7 0 24.3
-7 -5 7 -0.6 26.9
4 -12 -7 116.99 35.5
-12 8 -7 103.19 28.4
-8 -4 7 166.98 39.5
3 -12 -7 185.98 40.7
-12 9 -7 135.19 33.9
-9 -3 7 304.17 49.9
0 0 -8 -4.7 4
0 1 -8 435.16 27.7
-1 0 -8 407.16 26.3
-1 1 8 492.65 27.4
0 -1 -8 415.56 25.1
-1 1 -8 401.56 26.5
0 1 8 509.65 26
-1 0 8 379.36 26.4
-1 2 -8 1050.79 58.59
-1 -1 -8 1021.3 55.19
-1 -1 -8 1019.8 58.99
-2 -1 -8 2051.29 104.19
3 -2 -8 1995.7 107.29
-2 -1 -8 2044.3 109.89
-3 2 8 1856.91 108.09
-2 0 -8 1727.93 91.09
0 -2 8 1690.83 94.09
1 1 -8 998.5 58.69
-2 1 -8 916.61 58.69
-2 1 -8 1012 57.59
-1 2 8 1207.08 57.69
-2 2 -8 1739.23 91.59
0 -2 -8 1733.53 91.49
0 2 8 1781.02 88.39
-2 0 8 1698.43 91.39
-2 0 8 1393.86 91.19
-1 -2 -8 4368.46 229.08
-1 -2 -8 4247.77 223.18
-2 3 -8 4299.97 228.68
-3 1 8 4441.26 228.48
-2 -2 -8 2863.41 147.19
4 -2 -8 2912.01 142.39
-4 2 8 2497.05 144.39
2 -4 8 2404.36 145.79
-2 5 -8 811.22 49
5 -3 -8 738.83 45.8
-3 -2 -8 737.53 51.29
-5 3 8 743.33 48.2
2 -5 8 669.33 49.7
-3 -1 -8 399.26 21
-1 4 -8 362.46 27.5
4 -3 -8 385.36 26.8
-4 3 8 343.67 27.4
1 -4 8 283.57 28.1
1 -4 8 315.57 26.2
3 -3 -8 1194.38 73.09
0 3 -8 1316.47 73.29
-3 0 -8 1352.46 75.09
-3 0 -8 1269.17 70.19
0 -3 8 1290.37 73.99
-3 3 8 1345.07 73.49
-3 1 -8 4238.38 208.38
1 2 -8 4253.97 209.18
-3 1 -8 4083.29 210.18
-2 3 8 3310.47 207.38
1 -3 -8 2053.69 105.89
2 1 -8 1987.6 109.29
-3 2 -8 2051.29 107.19
-3 2 -8 2058.49 107.19
-1 3 8 1887.71 104.39
-2 -1 8 1731.33 107.99
0 -3 -8 1232.38 71.39
-3 3 -8 1176.98 71.99
-3 0 8 1274.07 73.29
0 3 8 1321.17 66.99
-1 -3 -8 1981 116.69
4 -1 -8 1991.1 110.99
-3 4 -8 2111.39 117.29
-4 1 8 2419.76 117.99
5 -2 -8 1882.31 94.89
-2 -3 -8 1881.71 102.49
3 -5 8 1572.54 101.29
-5 2 8 1656.83 98.19
-3 6 -8 627.94 58.99
-3 -3 -8 650.13 48.2
6 -3 -8 636.94 39.1
-6 3 8 607.54 40.9
3 -6 8 559.14 45.9
-4 -3 -8 238.68 31.4
7 -4 -8 243.28 21.7
-3 7 -8 301.87 29.9
-7 4 8 180.28 21.4
3 -7 8 181.78 28
6 -4 -8 660.63 43.9
-2 6 -8 695.63 46.9
2 -6 8 638.14 43
-6 4 8 636.04 46
2 -6 8 682.83 49.2
-1 5 -8 475.55 35.2
-4 -1 -8 511.05 27.8
5 -4 -8 482.65 35.2
1 -5 8 471.95 34.5
-5 4 8 498.45 36.6
1 -5 8 432.36 36.8
0 4 -8 376.16 27.4
4 -4 -8 375.06 29.7
-4 0 -8 370.66 23.9
-4 0 -8 407.16 31.7
-4 4 8 351.16 28.2
0 -4 8 351.96 29
0 -4 8 332.57 28.1
-4 1 -8 2040 118.19
3 -4 -8 2072.09 116.29
1 3 -8 2076.39 119.39
3 -4 -8 2146.69 121.89
-4 1 -8 2070.89 121.39
-1 -3 8 2394.96 123.59
-1 -3 8 2490.25 119.29
-3 4 8 2371.96 120.69
-4 2 -8 2861.61 157.08
2 -4 -8 2954.1 159.28
2 -4 -8 2968.3 154.88
-4 2 -8 2912.81 157.98
2 2 -8 2961.6 156.88
1 -4 -8 471.45 41
1 -4 -8 401.56 26.9
-4 3 -8 410.26 27.3
-4 3 -8 396.16 29.1
-3 -1 8 345.67 26.6
-1 4 8 333.07 23.9
-3 -1 8 304.17 29.8
0 -4 -8 383.86 29.1
-4 4 -8 403.66 27
-4 4 -8 361.96 29.8
-4 0 8 349.96 27.2
0 4 8 364.06 22
-4 0 8 321.87 30.2
-1 -4 -8 803.62 52.39
-4 5 -8 824.52 52.19
4 -5 8 743.43 52.59
-5 1 8 749.13 51.79
-5 1 8 768.42 49
-2 -4 -8 1016.1 62.79
6 -2 -8 923.21 50.09
-6 2 8 874.21 58.39
4 -6 8 817.92 61.19
-4 7 -8 20.5 14.7
-3 -4 -8 51.89 19.4
4 -7 8 34.5 17.4
-7 3 8 30.1 12.6
-4 8 -8 6.1 14.7
-4 -4 -8 2.3 17.5
-8 4 8 2.7 11.3
-8 4 8 35.6 15.2
4 -8 8 25.9 18.5
-4 9 -8 235.68 33.5
-5 -4 -8 292.57 39.7
-9 5 8 221.98 30.9
-5 -3 -8 278.57 36.6
-3 8 -8 292.47 33.4
8 -5 -8 281.67 26.9
3 -8 8 252.57 34.6
-8 5 8 230.18 29.2
-2 7 -8 1552.04 95.89
7 -5 -8 1623.54 94.19
2 -7 8 1629.24 92.99
2 -7 8 1587.84 99.29
-7 5 8 1648.24 97.49
-5 -1 -8 1730.03 93.29
-1 6 -8 1799.52 101.49
6 -5 -8 1641.84 101.29
-6 5 8 1833.22 103.59
1 -6 8 1748.03 100.99
1 -6 8 1841.52 104.49
5 -5 -8 1505.95 86.19
0 5 -8 1457.35 83.69
-5 0 -8 1561.84 89.09
-5 0 -8 1482.45 78.59
-5 5 8 1342.17 84.49
0 -5 8 1390.86 85.09
0 -5 8 1333.77 84.09
4 -5 -8 767.52 51.59
-5 1 -8 816.72 46.6
1 4 -8 799.62 48.8
-5 1 -8 765.72 51.99
4 -5 -8 778.02 43
-1 -4 8 706.83 50.89
-1 -4 8 729.83 52.89
-4 5 8 745.73 49.7
-5 2 -8 1849.02 103.19
2 3 -8 2016.8 101.29
3 -5 -8 1869.21 97.09
3 -5 -8 1862.91 104.69
-5 2 -8 1827.02 100.79
-3 5 8 1631.14 100.39
-2 -3 8 1594.94 104.19
-5 3 -8 749.73 47.3
2 -5 -8 721.23 43.5
3 2 -8 734.03 45.1
-5 3 -8 680.53 45.5
2 -5 -8 684.33 48.8
-3 -2 8 744.73 50.69
-5 4 -8 546.85 37.5
1 -5 -8 503.15 34.3
-5 4 -8 465.85 33.4
-4 -1 8 437.36 37.5
-4 -1 8 503.65 34.5
-1 5 8 470.55 30.8
0 -5 -8 1359.06 83.69
-5 5 -8 1414.76 79.29
-5 5 -8 1453.75 84.39
0 -5 -8 1397.06 82.39
-5 0 8 1389.86 80.99
-5 0 8 1359.16 85.79
0 5 8 1412.46 75.29
-5 6 -8 396.56 35.6
-1 -5 -8 398.96 33.9
-5 6 -8 360.86 27.4
-1 -5 -8 382.96 35.3
-6 1 8 385.36 34.7
-6 1 8 365.76 31.2
-2 -5 -8 193.78 28
-2 -5 -8 261.77 28.5
-7 2 8 230.18 26.4
-7 2 8 269.57 28.9
5 -7 8 247.78 31.1
-3 -5 -8 4.3 12.6
-5 8 -8 10.9 15.5
-3 -5 -8 -4.1 16.9
-8 3 8 3.8 12.9
-8 3 8 1.8 13.8
5 -8 8 -0.6 17
-4 -5 -8 13.5 20.6
-4 -5 -8 23.7 16.9
-5 9 -8 -1.2 17.4
-9 4 8 32.4 14.9
-9 4 8 32.3 18.4
5 -9 8 19.5 20
-5 10 -8 75.59 25.2
-5 -5 -8 130.69 23.4
-5 -5 -8 106.89 31.3
5 -10 8 122.59 30.4
-10 5 8 79.19 24.5
-5 11 -8 52.39 25.8
-6 -5 -8 80.69 31.7
-11 6 8 84.09 27.1
5 -11 8 84.99 29.7
-6 -4 -8 357.16 49.2
-4 10 -8 412.56 46.3
4 -10 8 487.95 52.79
-10 6 8 402.96 43.9
-3 9 -8 234.18 32.7
-6 -3 -8 204.48 36.4
-9 6 8 284.07 35.7
3 -9 8 365.56 42
8 -6 -8 447.16 37.3
-2 8 -8 465.45 41
-6 -2 -8 441.66 46.7
2 -8 8 469.45 44.6
2 -8 8 410.66 35.9
-8 6 8 433.66 41.9
7 -6 -8 988.8 63.39
-1 7 -8 1057.99 63.39
-6 -1 -8 1113.19 71.99
1 -7 8 946.01 66.29
-7 6 8 842.22 63.49
1 -7 8 815.52 60.29
6 -6 -8 974.8 66.79
0 6 -8 1018.8 63.99
-6 0 -8 1003.2 57.69
-6 0 -8 1017.6 70.59
-6 6 8 1027.7 66.59
0 -6 8 1086.29 66.69
0 -6 8 990.3 65.59
5 -6 -8 363.56 35.2
-6 1 -8 376.16 36
1 5 -8 360.26 29.9
-6 1 -8 332.17 26.8
-1 -5 8 373.46 34.1
-5 6 8 394.86 32.8
-1 -5 8 384.26 31
4 -6 -8 938.31 61.09
2 4 -8 929.51 55.59
-6 2 -8 930.11 59.69
4 -6 -8 863.51 49.5
-6 2 -8 962.4 55.69
-2 -4 8 790.62 59.69
-4 6 8 848.92 56.59
3 -6 -8 664.73 40
3 3 -8 649.14 42.9
-6 3 -8 691.43 45
3 -6 -8 653.93 48.4
-6 3 -8 673.63 46.1
-3 6 8 625.74 43.4
-6 4 -8 634.94 43.5
4 2 -8 684.23 43.1
2 -6 -8 674.83 41.8
-6 4 -8 595.44 44.9
-4 -2 8 632.04 42.9
-4 -2 8 597.14 48.8
-2 6 8 672.03 41.8
1 -6 -8 1714.73 99.49
-6 5 -8 1727.73 102.59
-6 5 -8 1692.43 98.19
-5 -1 8 1710.83 105.59
-5 -1 8 1774.42 99.69
-1 6 8 1845.82 96.69
0 -6 -8 985.1 62.59
-6 6 -8 941.91 57.99
-6 6 -8 1028.4 65.69
0 -6 -8 1005.1 65.29
-6 0 8 947.41 60.39
-6 0 8 913.41 66.19
-6 7 -8 369.66 27.5
-1 -6 -8 345.07 35.5
-1 -6 -8 354.26 35.2
-6 7 -8 354.16 36.6
-7 1 8 330.67 31.4
6 -7 8 358.86 37.3
-7 1 8 322.17 35.8
-6 8 -8 41.3 19.3
-2 -6 -8 56.39 19
-2 -6 -8 45.3 19.8
-8 2 8 41.3 16.1
6 -8 8 25.8 19.4
-8 2 8 33.6 17.2
-3 -6 -8 12.8 16
-6 9 -8 -3.3 18.7
-3 -6 -8 -5.5 19
-9 3 8 26.6 17.3
6 -9 8 -15 17.5
-9 3 8 20.4 16.5
-4 -6 -8 126.89 25.3
-6 10 -8 124.09 29.1
-4 -6 -8 126.09 30.6
-10 4 8 83.49 24
6 -10 8 139.99 30.6
-6 11 -8 122.39 31
-5 -6 -8 147.59 27.6
-5 -6 -8 148.39 35.4
-11 5 8 111.69 28.3
6 -11 8 111.89 33.8
-6 -6 -8 40.2 30.4
-6 12 -8 61.79 28.2
6 -12 8 125.39 35.5
-12 6 8 40.7 24.5
-7 -5 -8 -7.4 28.3
-5 12 -8 -0.7 24.2
5 -12 8 20.3 29
-12 7 8 11.9 24
-4 11 -8 252.77 38.3
-7 -4 -8 207.48 41.7
-11 7 8 299.27 40.5
4 -11 8 247.48 41.7
-7 -3 -8 568.94 61.09
-3 10 -8 494.65 50.99
-10 7 8 601.94 55.09
3 -10 8 786.02 64.09
-2 9 -8 283.47 34.6
9 -7 -8 285.07 32.2
-7 -2 -8 284.07 41.2
-9 7 8 254.17 36.4
2 -9 8 248.98 29.6
2 -9 8 215.78 35.4
-7 -1 -8 88.79 27.6
-1 8 -8 113.19 21.9
8 -7 -8 78.19 19.7
-8 7 8 95.39 23.3
1 -8 8 126.09 21.4
1 -8 8 115.99 25.4
0 7 -8 625.94 44.5
-7 0 -8 589.94 53.29
7 -7 -8 560.04 47.9
0 -7 8 618.54 46.8
0 -7 8 524.75 46.5
-7 7 8 522.65 46.6
6 -7 -8 412.66 38.6
-7 1 -8 379.96 40.3
1 6 -8 349.17 32.3
-7 1 -8 364.16 27.7
-1 -6 8 353.76 33.2
-1 -6 8 309.27 35.1
-6 7 8 373.16 35.5
2 5 -8 223.38 25
-7 2 -8 202.28 28.9
-7 2 -8 239.38 24.1
5 -7 -8 216.48 29
-2 -5 8 243.98 31.2
-2 -5 8 272.57 24.6
-5 7 8 264.67 27.9
-7 3 -8 62.79 16.6
4 -7 -8 49.4 18.5
3 4 -8 34 12.4
-7 3 -8 42 13.9
-3 -4 8 11.7 14.5
-4 7 8 9.7 12
4 3 -8 278.97 25.7
3 -7 -8 235.78 21.2
-7 4 -8 245.48 27.7
-7 4 -8 285.77 27.9
3 -7 -8 242.08 30.9
-3 7 8 182.98 22.9
5 2 -8 1643.84 93.59
-7 5 -8 1604.24 94.49
2 -7 -8 1638.74 92.89
-7 5 -8 1524.65 96.49
-2 7 8 1674.33 92.69
-5 -2 8 1653.63 94.19
-5 -2 8 1622.54 102.29
1 -7 -8 969.9 61.29
1 -7 -8 973.9 66.09
-7 6 -8 1005.6 58.39
-7 6 -8 951.4 64.29
-6 -1 8 854.91 66.69
-6 -1 8 808.12 58.39
0 -7 -8 640.64 49.99
-7 7 -8 600.14 49.2
0 -7 -8 604.64 47.2
-7 7 -8 622.44 40.5
-7 0 8 481.05 42.2
-7 0 8 619.24 51.59
7 -7 8 557.74 49.2
-1 -7 -8 563.24 48.7
-7 8 -8 560.54 47.4
-1 -7 -8 514.65 47.5
-8 1 8 588.94 50.69
7 -8 8 554.34 50.69
-8 1 8 499.35 43.5
-2 -7 -8 202.98 31.2
-7 9 -8 190.78 31.6
-2 -7 -8 275.67 35.6
-9 2 8 290.07 32.5
7 -9 8 263.27 36.9
-9 2 8 253.37 34.2
-3 -7 -8 252.47 33.7
-3 -7 -8 189.88 34.1
-7 10 -8 136.79 29.8
7 -10 8 191.38 35.4
-10 3 8 121.09 26.9
-10 3 8 143.99 26.1
-4 -7 -8 195.08 32.8
-4 -7 -8 210.58 39.6
-7 11 -8 240.88 37.2
-11 4 8 238.58 34.2
7 -11 8 207.08 40.9
-5 -7 -8 344.27 50.99
-7 12 -8 315.17 45.5
-12 5 8 335.97 42.7
7 -12 8 438.46 56.69
-8 -4 -8 101.59 37.2
-4 12 -8 66.69 28.5
4 -12 8 134.59 37.4
-12 8 8 76.69 29.2
-8 -3 -8 214.78 42.4
-3 11 -8 142.69 31.6
-11 8 8 180.58 34.7
-8 -2 -8 414.46 53.09
-2 10 -8 460.95 45.7
-10 8 8 365.66 47.3
2 -10 8 475.55 51.49
9 -8 -8 80.69 21.6
-1 9 -8 103.59 23.7
-8 -1 -8 56.59 27.8
-9 8 8 72.19 24.1
1 -9 8 58.29 18.8
1 -9 8 45.8 21.7
-8 0 -8 300.97 41.7
0 8 -8 207.78 27.9
8 -8 -8 251.27 33
-8 8 8 184.08 30.3
0 -8 8 180.68 29.5
0 -8 8 184.78 28.3
7 -8 -8 572.34 50.69
-8 1 -8 603.04 53.99
1 7 -8 556.64 44.2
-7 8 8 518.15 47.1
-1 -7 8 591.54 46.6
-1 -7 8 486.85 46.5
-8 2 -8 69.49 14.7
2 6 -8 86.59 17.5
6 -8 -8 47.5 20.7
-8 2 -8 36.5 22
-2 -6 8 51.69 19.8
-6 8 8 40 17.9
-2 -6 8 57.69 19.4
5 -8 -8 -1.9 16.3
-8 3 -8 16.6 12.6
3 5 -8 5.5 11.9
-8 3 -8 -4.7 15.4
-3 -5 8 -4.4 16.6
-5 8 8 2.8 13.7
4 4 -8 -6.7 11
-8 4 -8 25.4 15.5
-8 4 -8 -10.2 12.1
4 -8 -8 29.8 19.2
-4 8 8 25.3 13.6
-4 -4 8 18.9 17
5 3 -8 271.87 26.8
-8 5 -8 252.87 29.8
-8 5 -8 216.38 28.9
3 -8 -8 264.17 33.8
-5 -3 8 235.18 33.4
-3 8 8 237.38 26.3
-8 6 -8 472.75 38.6
2 -8 -8 437.66 45.2
-8 6 -8 506.15 42.7
-6 -2 8 411.86 46.2
-6 -2 8 474.95 37.7
1 -8 -8 72.09 22.8
1 -8 -8 93.29 20
-8 7 -8 66.69 21.1
-7 -1 8 137.29 21.4
-7 -1 8 151.78 28.8
0 -8 -8 203.08 29.8
-8 8 -8 210.28 32.4
0 -8 -8 240.38 33.5
-8 0 8 218.68 35.2
-8 0 8 204.08 26.6
-1 -8 -8 573.84 51.69
-8 9 -8 504.95 50.59
-1 -8 -8 516.35 48.7
8 -9 8 618.64 55.69
-9 1 8 563.04 45.8
-9 1 8 496.85 51.49
-2 -8 -8 284.57 39.1
-2 -8 -8 260.87 36.9
-8 10 -8 306.17 38.2
8 -10 8 247.28 39.1
-10 2 8 154.28 32
-10 2 8 298.57 34.2
-3 -8 -8 65.29 25.8
-3 -8 -8 160.88 34.2
-8 11 -8 72.69 27.2
8 -11 8 91.99 31.3
-11 3 8 61.89 23
-4 -8 -8 200.78 40.1
-8 12 -8 155.08 36
-4 -8 -8 177.08 35
8 -12 8 176.68 40.5
-12 4 8 156.48 31.1
-9 -3 -8 62.29 37
-3 12 -8 17.5 24.7
-12 9 8 66.79 30.8
3 -12 8 36.5 30
-2 11 -8 50.39 24.4
-9 -2 -8 79.29 34
-11 9 8 73.59 28.6
2 -11 8 93.39 30.8
10 -9 -8 182.58 30.7
-1 10 -8 178.28 30.3
-9 -1 -8 163.78 38.3
1 -10 8 233.78 36.7
-10 9 8 156.88 32.3
1 -10 8 182.18 28.8
9 -9 -8 382.86 44.1
-9 0 -8 377.66 50.29
0 9 -8 326.17 39.1
0 -9 8 356.46 40.1
-9 9 8 420.86 47.4
0 -9 8 380.26 43.6
-9 1 -8 605.44 57.79
1 8 -8 570.94 45.6
8 -9 -8 532.45 53.79
-8 9 8 533.65 50.49
-1 -8 8 517.25 48.8
2 7 -8 267.27 29.7
-9 2 -8 221.08 35.8
7 -9 -8 179.68 33
-7 9 8 225.88 32.4
-2 -7 8 262.87 35.8
-9 3 -8 9 19.9
-9 3 -8 0.1 12.5
6 -9 -8 -0.7 19
3 6 -8 15.6 14.1
-3 -6 8 20.3 20.5
-6 9 8 21.1 16.5
4 5 -8 27.6 14.9
5 -9 -8 20.4 20.9
-9 4 -8 21.2 19.7
-9 4 -8 14.1 14.4
-5 9 8 19.2 16.3
-4 -5 8 46 21.1
4 -9 -8 213.48 33.8
5 4 -8 275.17 27.6
-9 5 -8 223.08 28.8
-9 5 -8 197.78 29.7
-4 9 8 231.98 28.7
-5 -4 8 209.18 33.3
-9 6 -8 206.48 30.2
-9 6 -8 249.78 29.5
6 3 -8 221.08 26.4
3 -9 -8 204.08 32.5
-6 -3 8 302.07 40.2
2 -9 -8 331.07 41.4
-9 7 -8 327.07 38.3
7 2 -8 302.87 30.9
-7 -2 8 316.87 42.7
-7 -2 8 234.58 30
-9 8 -8 56.99 23.3
1 -9 -8 97.29 27.1
-8 -1 8 68.99 25.6
-8 -1 8 97.89 20.6
0 -9 -8 313.57 42.7
-9 9 -8 314.57 41.9
-9 0 8 426.96 48.7
-9 0 8 409.96 38.9
-1 -9 -8 359.46 43.5
-9 10 -8 293.97 40.4
-1 -9 -8 373.16 45.5
-10 1 8 351.66 37.9
9 -10 8 387.46 48.5
-10 1 8 362.46 45.6
-9 11 -8 46.4 26.9
-2 -9 -8 44.3 25.2
-2 -9 -8 38.6 24.6
9 -11 8 72.09 32
-11 2 8 57.49 26.4
-11 2 8 65.69 22.3
-3 -9 -8 16.1 24.2
-9 12 -8 -21.6 23.5
-3 -9 -8 28.3 25.8
-12 3 8 43.5 22
9 -12 8 79.99 33.8
-10 -1 -8 26.5 32.3
-1 11 -8 28.1 23.7
-11 10 8 50.39 27.7
10 -10 -8 245.18 37.5
-10 0 -8 161.18 41.1
0 10 -8 223.98 34.1
-10 10 8 189.08 35.2
0 -10 8 254.07 35.1
-10 1 -8 429.86 54.69
1 9 -8 287.57 36.9
9 -10 -8 382.86 45.1
-1 -9 8 315.67 40.1
-9 10 8 400.96 46.1
2 8 -8 304.57 34.6
-10 2 -8 329.67 45.3
8 -10 -8 257.87 39.8
-2 -8 8 244.08 37.6
-8 10 8 263.27 37.5
-10 3 -8 181.08 32
-10 3 -8 174.28 33.6
7 -10 -8 163.48 33.3
3 7 -8 159.28 25.2
-3 -7 8 171.38 33
-7 10 8 141.39 28.2
6 -10 -8 131.89 30.7
-10 4 -8 66.59 24.8
4 6 -8 109.29 21.3
-10 4 -8 112.29 21.8
-6 10 8 147.89 26.7
-4 -6 8 89.99 28.1
5 5 -8 135.49 22.4
-10 5 -8 128.09 24.4
-10 5 -8 133.19 27.6
5 -10 -8 82.49 27.8
-5 -5 8 142.79 31.6
-5 10 8 97.29 22.9
-10 6 -8 382.76 42.2
6 4 -8 371.26 36.5
4 -10 -8 340.17 44.5
-6 -4 8 482.55 50.49
-10 7 -8 552.84 51.09
3 -10 -8 531.95 55.59
7 3 -8 528.65 44.2
-7 -3 8 664.13 60.79
8 2 -8 461.35 41.2
2 -10 -8 366.66 48
-10 8 -8 438.76 47.1
-8 -2 8 404.76 40.5
-8 -2 8 419.46 52.69
-10 9 -8 196.48 36.1
1 -10 -8 227.68 37.8
-9 -1 8 142.69 25.2
-9 -1 8 146.79 35.1
0 -10 -8 221.68 38.8
-10 10 -8 169.98 35.4
-10 0 8 214.28 38.7
-10 0 8 200.28 29.7
-1 -10 -8 108.29 31.6
-10 11 -8 100.59 30.9
-11 1 8 145.59 34.2
10 -11 8 47.2 29
-11 1 8 100.39 25.3
-11 1 -8 123.49 38
10 -11 -8 73.79 29.3
-10 11 8 80.99 29.7
-1 -10 8 104.99 29.3
2 9 -8 40.3 27.3
-11 2 -8 39.2 30.2
9 -11 -8 82.99 28.8
-9 11 8 37.1 25
-2 -9 8 23 23.5
-11 3 -8 77.49 31.1
3 8 -8 35.3 19.1
8 -11 -8 67.69 29.6
-8 11 8 74.99 25.5
-3 -8 8 45.9 26.3
-11 4 -8 246.48 46.6
4 7 -8 223.98 30.5
7 -11 -8 246.88 40.4
-11 4 -8 318.57 43
-7 11 8 188.88 33.5
-4 -7 8 251.77 39.8
6 -11 -8 157.78 34.8
5 6 -8 175.18 25.7
-11 5 -8 183.08 36.1
-11 5 -8 175.68 27.4
-5 -6 8 123.89 32.7
-6 11 8 60.19 24
-11 6 -8 64.79 22.3
5 -11 -8 54.99 27.8
6 5 -8 65.29 19.3
-6 -5 8 41 26.8
4 -11 -8 236.68 40.7
-11 7 -8 215.08 33.8
7 4 -8 236.18 29.9
-7 -4 8 201.28 39.1
8 3 -8 149.69 27
3 -11 -8 192.48 38.9
-11 8 -8 185.18 33.9
-8 -3 8 270.97 43.5
2 -11 -8 57.79 29.2
9 2 -8 25.1 18.9
-11 9 -8 56.29 24.9
-9 -2 8 98.59 32.4
-9 -2 8 101.69 23.3
1 -11 -8 23.2 26.8
-11 10 -8 25.3 26.4
-10 -1 8 56.49 21.1
-10 -1 8 63.29 32.3
-12 3 -8 11.8 27.4
9 -12 -8 44.8 27
-3 -9 8 24.3 25.2
-9 12 8 61.99 28.2
8 -12 -8 104.19 35.8
-12 4 -8 240.28 41.8
-4 -8 8 149.39 34.7
-8 12 8 170.98 32.7
7 -12 -8 261.57 45.5
-5 -7 8 333.27 48.3
-12 6 -8 32.6 21.5
6 -12 -8 94.09 33
-6 -6 8 72.79 32
5 -12 -8 1 25.4
-12 7 -8 16.1 20.7
-7 -5 8 4.1 25.9
-12 8 -8 103.29 28
4 -12 -8 107.99 33.6
-8 -4 8 55.89 31.4
3 -12 -8 85.99 32.7
-12 9 -8 58.99 27.8
-9 -3 8 8.5 28.7
0 0 -9 31.9 6.5
0 1 -9 176.58 15.6
-1 0 -9 198.68 14.6
-1 1 9 177.28 15
-1 1 -9 180.48 14.9
1 0 -9 150.08 14.5
0 -1 -9 184.38 13.3
-1 -1 -9 49.99 6.4
-1 2 -9 40.9 9.1
-1 -1 -9 41.7 9.6
-2 1 9 20.4 7.3
-2 -1 -9 455.65 26.9
-2 -1 -9 455.75 32.7
-1 3 -9 498.55 31.9
0 2 -9 719.13 43
-2 0 -9 698.13 40.2
1 1 -9 36.8 8.5
-2 1 -9 37.4 8.4
-2 1 -9 43.9 8.2
-1 -1 9 19.1 7.2
-1 2 9 33.6 6.7
-2 2 -9 727.03 46.6
0 -2 -9 729.13 46.7
0 2 9 816.12 43.8
-2 0 9 840.22 48.2
-2 0 9 839.02 47.4
-2 3 -9 234.88 21
-1 -2 -9 228.48 14.2
-1 -2 -9 198.68 20.1
-3 1 9 232.28 20
-3 1 9 254.87 20.7
4 -2 -9 393.06 27.6
-2 -2 -9 429.46 32.2
-2 4 -9 434.66 30.9
-4 2 9 440.96 29.6
-4 2 9 424.76 30.3
5 -3 -9 2072.19 109.79
-3 -2 -9 1912.61 114.49
2 -5 9 1976.5 114.29
-5 3 9 1954.9 112.09
-5 3 9 2033.2 108.99
4 -3 -9 2459.05 130.79
-1 4 -9 2476.45 136.39
-3 -1 -9 2523.25 125.59
-4 3 9 2372.76 131.69
1 -4 9 2312.27 131.39
1 -4 9 2265.27 132.19
-3 0 -9 2995.6 169.58
-3 0 -9 3194.18 165.58
3 -3 -9 3198.38 168.78
0 -3 9 3120.69 169.58
-3 3 9 3236.38 168.68
-3 1 -9 223.38 20.6
-3 1 -9 217.08 18.3
-3 2 -9 432.26 30.5
-3 2 -9 444.56 30.9
1 -3 -9 472.25 29.8
0 -3 -9 3049.89 168.68
-3 3 -9 3148.39 169.78
-3 0 9 3188.88 170.98
0 3 9 3239.68 164.38
-3 4 -9 928.81 54.09
4 -1 -9 806.42 47
-1 -3 -9 838.82 53.29
-4 1 9 855.51 53.09
-4 1 9 838.82 52.39
-2 -3 -9 16.3 11.8
5 -2 -9 23.4 7.1
3 -5 9 14.5 12
-5 2 9 14.1 9.6
-5 2 9 -3.5 13
-3 -3 -9 309.27 33.5
6 -3 -9 319.17 24.7
-6 3 9 345.57 27.6
3 -6 9 330.47 33.3
-4 -3 -9 10.4 16.5
-3 7 -9 -4.4 13.1
7 -4 -9 28.5 10.4
3 -7 9 9.6 15.1
-7 4 9 8.2 9.4
-7 4 9 6.5 15.4
6 -4 -9 1585.84 89.69
-2 6 -9 1634.74 92.49
-4 -2 -9 1586.84 104.79
-6 4 9 1536.75 92.19
2 -6 9 1458.45 93.99
-6 4 9 1557.54 87.89
-4 -1 -9 2633.04 136.09
-1 5 -9 2502.45 143.19
5 -4 -9 2650.23 143.59
1 -5 9 2675.73 143.69
1 -5 9 2531.05 144.99
-5 4 9 2683.13 144.79
-4 0 -9 3254.17 181.38
-4 0 -9 3343.17 174.58
0 4 -9 3376.16 178.88
4 -4 -9 3199.98 179.48
-4 4 9 3382.86 179.58
0 -4 9 3442.06 180.58
0 -4 9 3282.77 178.88
3 -4 -9 917.41 54.69
-4 1 -9 894.11 54.39
3 -4 -9 900.41 49.1
1 3 -9 872.81 52.09
-4 1 -9 861.11 50.69
-1 -3 9 788.02 54.29
-3 4 9 786.12 51.49
2 -4 -9 384.16 31.5
-4 2 -9 435.66 30.7
2 2 -9 419.06 29.7
2 -4 -9 423.66 27.6
-4 2 -9 406.56 30
1 -4 -9 2483.15 131.59
-4 3 -9 2519.95 133.69
-4 3 -9 2375.86 132.09
-3 -1 9 2437.56 132.39
-3 -1 9 2361.96 135.39
-1 4 9 2425.16 129.19
0 -4 -9 3309.37 181.18
-4 4 -9 3345.57 179.68
-4 4 -9 3299.37 182.38
-4 0 9 3388.86 182.38
0 4 9 3492.95 175.08
-4 0 9 3335.87 183.58
5 -1 -9 930.31 49.99
-1 -4 -9 988.1 60.39
-4 5 -9 1005.3 61.19
-5 1 9 855.91 59.59
-2 -4 -9 21.7 14.3
6 -2 -9 20.9 6.1
-6 2 9 27.4 12.3
4 -6 9 9.2 13.6
-3 -4 -9 30.1 18.3
-4 7 -9 6.3 21.6
-7 3 9 8 10.7
4 -7 9 2.5 14.6
-4 8 -9 34.9 18.1
-4 -4 -9 61.29 21.6
4 -8 9 15.6 18.3
-8 4 9 11.4 14.1
-8 4 9 16.9 11.9
-4 9 -9 15.8 17.9
-5 -4 -9 20 21.7
4 -9 9 15.1 19
-9 5 9 38 18.9
-5 -3 -9 188.18 31.3
8 -5 -9 194.78 22.8
-3 8 -9 175.88 25.8
-8 5 9 155.38 25.5
3 -8 9 117.29 26.2
-5 -2 -9 104.29 22.1
-2 7 -9 107.19 20.7
7 -5 -9 52.39 14.8
2 -7 9 91.39 21.3
-7 5 9 86.69 19.9
2 -7 9 108.99 17.6
-1 6 -9 336.77 30.8
6 -5 -9 313.77 30.8
1 -6 9 340.97 32.9
-6 5 9 361.76 32.8
1 -6 9 333.47 29.7
-5 0 -9 1790.22 109.39
5 -5 -9 1753.92 106.69
-5 0 -9 1829.92 100.19
0 5 -9 1939.11 105.99
0 -5 9 1847.42 106.29
-5 5 9 1903.81 107.09
0 -5 9 1978.2 108.09
-5 1 -9 1053.59 62.39
4 -5 -9 973.2 52.69
-5 1 -9 957.3 55.39
4 -5 -9 901.51 60.09
1 4 -9 1021.7 58.49
-4 5 9 905.31 58.29
-1 -4 9 905.01 60.99
-1 -4 9 849.41 56.19
3 -5 -9 -3.1 10.4
-5 2 -9 30.7 11.9
3 -5 -9 12.3 6.5
2 3 -9 18.7 9.5
-5 2 -9 16.6 9.2
-3 5 9 23.6 9.8
-2 -3 9 7.3 15.6
-5 3 -9 2103.29 115.19
2 -5 -9 2152.78 117.89
2 -5 -9 2081.29 112.09
3 2 -9 2071.69 113.69
-5 3 -9 2005.6 114.59
-3 -2 9 1933.91 118.19
-5 4 -9 2569.14 145.19
1 -5 -9 2596.74 143.09
-5 4 -9 2614.74 142.89
-4 -1 9 2593.14 148.29
-1 5 9 2816.12 140.09
-4 -1 9 2533.85 142.99
0 -5 -9 1823.32 107.59
0 -5 -9 1786.12 106.19
-5 5 -9 1897.11 108.29
-5 5 -9 1869.21 103.49
-5 0 9 1784.42 104.49
0 5 9 1932.61 98.59
-5 0 9 1921.11 109.99
-1 -5 -9 313.97 31.7
-5 6 -9 257.97 30.9
-1 -5 -9 302.07 29.8
-6 1 9 258.77 30.9
-6 1 9 310.97 28.1
-5 7 -9 39.4 16.8
-2 -5 -9 29.1 16.7
-7 2 9 31.9 14.5
5 -7 9 47.6 17.3
-7 2 9 41 15.6
-5 8 -9 60.69 21.6
-3 -5 -9 65.39 22
5 -8 9 84.09 22.9
-8 3 9 82.79 18.3
-8 3 9 114.39 19.9
-4 -5 -9 23.4 21.5
-5 9 -9 24.7 18.6
5 -9 9 -2.7 18.7
-9 4 9 -0.2 15
-9 4 9 11.1 17
-5 -5 -9 140.49 25
-5 -5 -9 106.09 31.5
-5 10 -9 102.39 27.3
-10 5 9 168.88 28.8
5 -10 9 111.99 30.4
-6 -5 -9 373.16 50.39
-6 -5 -9 350.86 40.1
-5 11 -9 317.07 41.4
-11 6 9 262.77 39.2
5 -11 9 337.87 47.5
-4 10 -9 134.49 29.2
-6 -4 -9 93.49 30.9
4 -10 9 122.89 30.2
-10 6 9 81.39 24.7
-3 9 -9 221.68 32.1
-6 -3 -9 236.28 38.4
-9 6 9 261.77 34.3
3 -9 9 216.98 34.5
-6 -2 -9 861.71 64.89
-2 8 -9 705.53 55.79
8 -6 -9 747.63 53.19
-8 6 9 775.92 58.29
2 -8 9 791.62 53.29
2 -8 9 739.83 60.09
7 -6 -9 666.33 49.99
-6 -1 -9 686.63 56.69
-1 7 -9 633.44 49.2
1 -7 9 703.43 49.7
-7 6 9 743.63 52.79
1 -7 9 680.33 52.19
-6 0 -9 2.1 7
0 6 -9 26.9 13.6
6 -6 -9 18.3 14.3
-6 0 -9 39.2 18.9
0 -6 9 6.5 12.2
-6 6 9 21.3 14
0 -6 9 -3.6 11.9
5 -6 -9 281.27 31.5
-6 1 -9 276.27 32.3
-6 1 -9 268.07 23.1
1 5 -9 323.07 27.6
-5 6 9 260.97 28.8
-1 -5 9 294.67 26.3
-1 -5 9 295.17 30.8
-6 2 -9 23.4 10.6
2 4 -9 21.9 11.2
-6 2 -9 33.3 13.9
4 -6 -9 15.2 13.3
4 -6 -9 30.4 7.4
-4 6 9 11 10.5
-2 -4 9 -1.3 12.7
-6 3 -9 392.36 29.8
-6 3 -9 332.17 30.7
3 -6 -9 340.37 25
3 3 -9 349.77 28.3
3 -6 -9 301.67 32.6
-3 6 9 330.97 28.2
2 -6 -9 1571.34 88.89
4 2 -9 1561.94 90.19
-6 4 -9 1564.04 92.39
-6 4 -9 1563.14 90.69
-4 -2 9 1601.54 96.99
-4 -2 9 1544.65 90.39
-2 6 9 1608.44 88.69
-6 5 -9 296.97 31.2
-6 5 -9 310.07 26.5
1 -6 -9 262.57 27.8
-5 -1 9 326.27 28.5
-1 6 9 362.16 24.5
-5 -1 9 290.57 33.8
-6 6 -9 16.5 9.5
-6 6 -9 31.5 16.4
0 -6 -9 28.1 13.8
0 -6 -9 6.9 12.7
-6 0 9 -17.6 13.1
-6 0 9 14.7 11.7
-1 -6 -9 110.99 21.1
-6 7 -9 103.59 15
-1 -6 -9 86.19 20.5
-6 7 -9 108.99 23.4
-7 1 9 86.39 17.7
-7 1 9 71.89 19.7
6 -7 9 80.19 21.4
-2 -6 -9 24.8 16.4
-6 8 -9 53.59 20.1
-2 -6 -9 57.19 21.3
-8 2 9 2.2 14.7
6 -8 9 22.8 17.1
-8 2 9 38.8 16.4
-3 -6 -9 68.59 24
-3 -6 -9 56.39 19.3
-6 9 -9 51.09 22
6 -9 9 47.8 23
-9 3 9 53.99 18.5
-9 3 9 40.8 18.2
-4 -6 -9 11.1 17.4
-6 10 -9 7 20.5
-4 -6 -9 25.9 24.8
6 -10 9 38.8 24.5
-10 4 9 19.8 19.2
-5 -6 -9 155.88 36.6
-5 -6 -9 143.59 29.5
-6 11 -9 151.48 32.6
6 -11 9 218.98 39.9
-11 5 9 208.48 33.9
-6 12 -9 297.77 44.5
-6 -6 -9 270.67 47.5
6 -12 9 330.07 49
-12 6 9 316.17 44
-5 12 -9 395.06 48.9
-7 -5 -9 424.76 57.29
-12 7 9 446.26 51.09
5 -12 9 343.07 50.39
-7 -4 -9 94.99 34.1
-4 11 -9 119.99 30.1
4 -11 9 160.28 35
-11 7 9 145.29 30.7
-7 -3 -9 -2.4 23.5
-3 10 -9 -6.2 18.5
-10 7 9 34.3 20.5
3 -10 9 24 21.9
-7 -2 -9 1007.7 74.49
9 -7 -9 947.91 64.59
-2 9 -9 927.11 67.39
-9 7 9 929.81 70.29
2 -9 9 975.2 71.89
2 -9 9 907.11 63.09
8 -7 -9 1635.44 100.19
-1 8 -9 1634.74 99.19
-7 -1 -9 1730.03 108.49
-8 7 9 1535.55 101.39
1 -8 9 1648.14 102.69
1 -8 9 1573.14 97.89
0 7 -9 1196.08 74.59
-7 0 -9 1196.58 82.89
7 -7 -9 1106.39 77.09
0 -7 9 1155.08 76.19
-7 7 9 1161.38 77.39
0 -7 9 1227.18 77.69
-7 1 -9 82.79 23.9
1 6 -9 116.99 19.5
-7 1 -9 97.29 14
6 -7 -9 71.99 20.3
-6 7 9 78.89 19.1
-1 -6 9 82.19 20.8
-1 -6 9 82.29 16.8
-7 2 -9 54.89 18.6
2 5 -9 58.49 14.4
-7 2 -9 41.6 12.6
-5 7 9 66.39 16.8
-2 -5 9 23.3 16.5
-2 -5 9 51.79 12.4
3 4 -9 7 10.7
4 -7 -9 8.7 14.2
-7 3 -9 7 12.7
-7 3 -9 18.1 12.1
-3 -4 9 16.4 15.7
-4 7 9 9.1 12
3 -7 -9 2 8.5
4 3 -9 30.5 12.2
-7 4 -9 -5.5 11.2
-7 4 -9 0.5 11.9
3 -7 -9 1.6 14.6
-3 7 9 3.3 10.5
5 2 -9 106.39 17.4
-7 5 -9 94.39 17.9
2 -7 -9 109.79 23.8
2 -7 -9 102.79 16.4
-7 5 -9 95.69 19.5
-5 -2 9 87.99 17.2
-2 7 9 76.49 14.5
-5 -2 9 93.69 23.3
1 -7 -9 670.63 48.6
-7 6 -9 683.13 52.19
1 -7 -9 606.34 52.19
-7 6 -9 658.93 46
-6 -1 9 752.42 49.1
-6 -1 9 746.43 56.19
-7 7 -9 1102.39 68.19
0 -7 -9 1029.2 72.89
0 -7 -9 1159.68 77.19
-7 7 -9 1239.88 77.49
-7 0 9 1067.79 70.69
-7 0 9 1289.07 79.89
-7 8 -9 194.68 31.1
-1 -7 -9 128.39 26.3
-1 -7 -9 151.48 28.1
-8 1 9 194.68 25.8
7 -8 9 229.28 32.9
-8 1 9 179.08 30.7
-2 -7 -9 13.6 17.9
-7 9 -9 -10.3 17.7
-2 -7 -9 6.5 19.2
-9 2 9 -7.1 15.1
-9 2 9 13.6 16.2
7 -9 9 1.7 18.2
-3 -7 -9 155.48 28.8
-7 10 -9 155.58 31.5
-3 -7 -9 208.68 35.2
-10 3 9 159.78 27.4
7 -10 9 151.38 34.6
-10 3 9 161.08 29
-4 -7 -9 15.2 21.4
-4 -7 -9 48.5 26.1
-7 11 -9 38.5 24.7
7 -11 9 12.5 26.4
-11 4 9 9.1 19.5
-7 12 -9 16 26.7
-5 -7 -9 -24.1 26
-12 5 9 -8.3 21.8
7 -12 9 12.6 28.5
-8 -4 -9 210.58 45.1
-4 12 -9 201.58 37.4
-12 8 9 191.28 37.9
4 -12 9 199.08 41.2
-3 11 -9 13.3 21.3
-8 -3 -9 91.19 34
-11 8 9 -6.8 21.9
3 -11 9 -13 23.9
-8 -2 -9 224.28 41
-2 10 -9 229.08 33.9
-10 8 9 202.38 34.1
2 -10 9 139.99 29.3
2 -10 9 169.88 34.9
-8 -1 -9 622.24 60.39
9 -8 -9 489.15 48.7
-1 9 -9 649.74 51.19
1 -9 9 583.04 54.09
1 -9 9 550.84 48.2
-9 8 9 653.53 55.09
0 8 -9 905.21 62.29
8 -8 -9 855.01 65.79
-8 0 -9 907.41 71.89
0 -8 9 860.01 64.09
0 -8 9 862.71 63.79
-8 8 9 896.61 66.29
7 -8 -9 140.39 27.8
-8 1 -9 196.18 34.4
1 7 -9 160.48 24.4
-1 -7 9 192.38 26.1
-7 8 9 244.38 31.8
-1 -7 9 214.88 30.1
6 -8 -9 23.4 18.4
-8 2 -9 38.1 12.6
-8 2 -9 5.2 18.4
2 6 -9 21.6 14.6
-2 -6 9 24 18.3
-6 8 9 31.8 16.3
3 5 -9 84.99 17.8
-8 3 -9 39.9 19.3
-8 3 -9 71.59 16.7
5 -8 -9 68.99 21.8
-5 8 9 77.29 19
-3 -5 9 96.89 24.2
-8 4 -9 13.9 15.2
4 4 -9 14.2 12.5
-8 4 -9 26.3 13.9
4 -8 -9 8.4 18.2
-4 8 9 -7.6 11.4
-4 -4 9 32 18.2
3 -8 -9 209.18 30.5
-8 5 -9 175.78 25.2
-8 5 -9 247.68 28.6
5 3 -9 177.68 22.9
-5 -3 9 161.58 29.4
-3 8 9 207.28 23.8
6 2 -9 809.52 53.09
-8 6 -9 761.42 53.19
-8 6 -9 703.93 55.99
2 -8 -9 780.52 60.29
-6 -2 9 750.02 61.59
-6 -2 9 776.22 53.29
1 -8 -9 1695.03 97.69
-8 7 -9 1563.94 100.79
1 -8 -9 1505.25 101.19
-7 -1 9 1613.34 96.69
-7 -1 9 1697.33 105.79
0 -8 -9 823.22 65.39
0 -8 -9 847.62 62.09
-8 8 -9 910.91 66.09
-8 0 9 880.51 59.59
-8 0 9 818.72 66.69
-8 9 -9 18.6 21.9
-1 -8 -9 20.3 20.2
-1 -8 -9 50.79 21.7
8 -9 9 24 22.5
-9 1 9 39.8 17.5
-9 1 9 42.6 21.9
-2 -8 -9 164.48 32.4
-8 10 -9 146.39 32.2
-2 -8 -9 239.78 35.6
-10 2 9 155.58 30.4
8 -10 9 164.58 34.9
-10 2 9 135.29 25.5
-3 -8 -9 227.58 37.5
-3 -8 -9 268.97 41.9
-8 11 -9 272.57 39.9
8 -11 9 317.97 45.5
-11 3 9 312.87 38.5
-4 -8 -9 199.48 40.7
-8 12 -9 141.59 34.3
-4 -8 -9 146.09 33.1
8 -12 9 180.78 41
-12 4 9 152.88 31.7
-2 11 -9 66.69 26.2
-9 -2 -9 23 29.7
-11 9 9 -18.3 23.9
2 -11 9 39.8 27.2
-1 10 -9 104.39 26.8
10 -9 -9 129.59 27.5
-9 -1 -9 154.48 36.9
1 -10 9 148.39 31.1
1 -10 9 113.59 24.4
-10 9 9 86.99 28.7
-9 0 -9 176.88 36.3
9 -9 -9 147.89 29.7
0 9 -9 205.58 30.5
0 -9 9 117.19 25.9
0 -9 9 174.98 30.5
-9 9 9 164.98 32.5
-9 1 -9 70.29 27.3
8 -9 -9 36 21.7
1 8 -9 32.6 17.6
-8 9 9 27.7 21.3
-1 -8 9 32.9 20.3
7 -9 -9 16.5 19.4
-9 2 -9 28.7 23.3
2 7 -9 -0.1 15
-7 9 9 -9.3 16.3
-2 -7 9 -7.9 18.2
-9 3 -9 41.2 21.8
6 -9 -9 72.89 23.6
-9 3 -9 56.59 16.3
3 6 -9 25.1 15.6
-6 9 9 64.59 18.8
-3 -6 9 48.6 22
5 -9 -9 9.6 19.5
-9 4 -9 17.4 15.1
4 5 -9 5.8 13.7
-9 4 -9 14.3 18.7
-4 -5 9 19.6 20.9
-5 9 9 -9.5 13.2
-9 5 -9 6.5 15.2
4 -9 -9 10.9 18.5
5 4 -9 -1.6 13.3
-9 5 -9 -22.5 13.9
-4 9 9 24.6 14.8
-5 -4 9 16.8 19.2
-9 6 -9 221.58 29.6
3 -9 -9 203.28 33.3
6 3 -9 192.08 25.6
-9 6 -9 214.08 30.7
-6 -3 9 278.87 38.4
7 2 -9 911.61 61.59
-9 7 -9 911.01 66.49
2 -9 -9 896.41 70.29
-7 -2 9 875.21 70.99
-7 -2 9 876.31 61.69
-9 8 -9 566.44 52.69
1 -9 -9 682.33 57.79
-8 -1 9 597.74 47.2
-8 -1 9 570.94 56.79
-9 9 -9 178.48 32.5
0 -9 -9 143.89 31.7
-9 0 9 122.09 24
-9 0 9 146.49 32.1
-1 -9 -9 206.78 35.8
-9 10 -9 203.58 35.5
-1 -9 -9 192.78 33.6
-10 1 9 195.58 35.6
-2 -9 -9 317.07 43.6
-2 -9 -9 397.56 47.7
-9 11 -9 415.36 49.6
9 -11 9 380.66 51.09
-11 2 9 318.47 44.6
-11 2 9 403.96 44.5
-10 -1 -9 -18.7 29.5
-1 11 -9 -5.9 22.1
-11 10 9 -12.3 21.9
0 10 -9 -2.9 19.1
-10 0 -9 -38.3 25.8
10 -10 -9 9.4 21.2
0 -10 9 16.6 19.8
-10 10 9 8.1 23.2
-10 1 -9 242.98 44
1 9 -9 200.58 30.4
9 -10 -9 162.68 32.8
-9 10 9 182.68 34.2
-1 -9 9 153.78 31.1
8 -10 -9 205.48 35
2 8 -9 153.08 27.3
-10 2 -9 144.69 33.9
-8 10 9 190.18 32.2
-2 -8 9 148.19 31
-10 3 -9 209.88 35.3
7 -10 -9 228.98 37.1
3 7 -9 180.68 27
-3 -7 9 179.48 34.5
-7 10 9 137.99 28.7
-10 4 -9 25.8 16.4
4 6 -9 11.9 15.4
6 -10 -9 -13.4 19.6
-10 4 -9 19.1 20
-6 10 9 6.8 16.7
-4 -6 9 11.2 22.6
-10 5 -9 126.19 27.5
-10 5 -9 144.69 25.4
5 -10 -9 115.09 30.1
5 5 -9 123.99 22.8
-5 -5 9 99.69 28.4
-5 10 9 112.59 23.1
4 -10 -9 95.99 28.2
6 4 -9 136.89 23.2
-10 6 -9 131.59 25.7
-6 -4 9 121.19 30.7
3 -10 -9 -4.7 21.2
-10 7 -9 11.1 18.7
7 3 -9 10.5 15.5
-7 -3 9 16.5 23.4
8 2 -9 210.48 28.5
-10 8 -9 162.08 31.6
2 -10 -9 154.28 33.5
-8 -2 9 128.39 24.5
-8 -2 9 116.69 31.3
-10 9 -9 146.79 31.6
1 -10 -9 166.68 35.3
-9 -1 9 106.49 32.6
-9 -1 9 140.39 24.9
0 -10 -9 -0.3 22.9
-10 10 -9 -10.2 23.3
-10 0 9 29.2 19.1
-10 0 9 -8 22.8
-10 11 -9 122.39 32.6
-1 -10 -9 101.59 32
-11 1 9 97.39 25.6
-11 1 9 98.69 32.5
1 10 -9 85.59 25.9
-11 1 -9 134.19 38.7
10 -11 -9 142.49 33.8
-10 11 9 165.18 35.2
-1 -10 9 123.89 30.1
-11 2 -9 363.96 52.89
9 -11 -9 427.56 50.79
2 9 -9 346.87 41.2
-9 11 9 393.16 48.4
-2 -9 9 355.96 45.7
-11 3 -9 319.87 45.6
3 8 -9 269.27 33.9
8 -11 -9 219.28 40
-3 -8 9 234.38 39.8
-8 11 9 319.47 40.6
4 7 -9 20.4 18.1
-11 4 -9 59.39 26.6
7 -11 -9 55.29 27.4
-7 11 9 23.7 20.5
-4 -7 9 33.6 25
5 6 -9 118.89 24.5
6 -11 -9 77.39 29.7
-11 5 -9 151.18 26.6
-11 5 -9 160.48 31.9
-5 -6 9 107.89 31.9
6 5 -9 347.27 37.8
5 -11 -9 260.77 42.5
-11 6 -9 320.37 38.8
-6 -5 9 303.17 45.1
7 4 -9 128.19 24.8
4 -11 -9 152.98 34.5
-11 7 -9 132.99 29.1
-7 -4 9 134.69 34.2
3 -11 -9 -3.2 22.4
-11 8 -9 15.5 20.6
8 3 -9 13.1 18.1
-8 -3 9 15.1 25.3
9 2 -9 18.8 19.3
-11 9 -9 7.5 23.3
2 -11 -9 17.2 25.6
-9 -2 9 46.2 30.4
-9 -2 9 27.7 20.3
1 -11 -9 -16.6 24.5
-11 10 -9 -48.6 21
-10 -1 9 19.8 19.2
-10 -1 9 1 25.3
8 -12 -9 181.18 40.4
-12 4 -9 215.68 41.3
-4 -8 9 118.79 35.1
-8 12 9 88.59 29.8
7 -12 -9 58.89 29.1
-5 -7 9 15.2 26
-12 6 -9 306.87 37.4
6 -12 -9 270.17 45.4
-6 -6 9 221.38 44.5
-12 7 -9 408.46 46.2
5 -12 -9 381.86 53.39
-7 -5 9 448.56 55.99
4 -12 -9 173.38 38.9
-12 8 -9 186.98 34.2
-8 -4 9 189.48 42.4
0 0 -10 2.8 5
0 1 -10 922.91 53.69
-1 0 -10 938.41 52.39
1 0 -10 920.71 52.09
0 -1 -10 888.61 50.29
-1 1 -10 894.71 51.79
-1 0 10 909.01 52.29
-1 -1 -10 788.22 46.7
-1 2 -10 741.03 46
-1 -1 -10 755.12 42.7
-2 1 10 774.02 45.5
-2 -1 -10 1400.96 75.79
-1 3 -10 1430.36 80.69
-2 -1 -10 1467.75 81.99
-3 2 10 1392.16 80.09
-2 0 -10 1772.12 95.69
0 2 -10 1774.92 98.29
-2 2 10 1809.72 97.49
1 1 -10 757.82 46.3
-2 1 -10 760.22 47.3
-2 1 -10 764.02 45.4
-1 2 10 805.62 44.7
-2 2 -10 1756.42 97.89
0 -2 -10 1831.82 98.49
-2 0 10 1688.73 97.79
-2 0 10 1813.62 99.19
0 2 10 1825.32 94.99
-1 -2 -10 2519.75 136.39
-1 -2 -10 2503.35 130.29
-2 3 -10 2496.85 135.79
-3 1 10 2556.84 135.69
-3 1 10 2423.96 135.09
-2 -2 -10 1951.3 114.19
-2 4 -10 1985.7 112.99
4 -2 -10 1969.1 109.89
-4 2 10 2130.39 113.29
-4 2 10 2136.89 111.79
5 -3 -10 749.73 47.6
-3 -2 -10 799.82 52.89
-5 3 10 806.92 51.39
2 -5 10 746.53 52.19
-5 3 10 776.32 47.4
-3 -1 -10 208.78 15.3
4 -3 -10 229.28 21.5
-3 -1 -10 221.08 25.9
-4 3 10 291.57 23.5
-3 0 -10 1653.73 101.29
-3 0 -10 1702.23 92.59
3 -3 -10 1687.03 95.59
0 -3 10 1772.72 97.39
-3 3 10 1763.52 95.79
-3 1 -10 2492.25 131.69
-3 1 -10 2418.76 128.79
-2 3 10 2300.97 128.69
1 -3 -10 1411.26 79.69
-3 2 -10 1376.56 80.09
-3 2 -10 1426.36 80.89
-1 3 10 1460.95 77.89
-2 -1 10 1446.36 80.79
-2 -1 10 1438.46 82.39
0 -3 -10 1714.03 95.89
-3 3 -10 1639.04 96.49
0 3 10 1798.32 91.29
-3 0 10 1674.43 95.79
-3 0 10 1751.72 97.79
-1 -3 -10 1804.72 103.29
4 -1 -10 1782.62 97.49
-3 4 -10 1846.22 103.59
-1 -3 -10 1766.92 94.59
-4 1 10 1897.11 102.49
-4 1 10 1920.21 103.49
-2 -3 -10 1656.43 97.59
5 -2 -10 1673.13 90.59
-3 5 -10 1684.43 96.89
-5 2 10 1676.23 95.99
-5 2 10 1620.24 94.59
-3 -3 -10 276.27 31.4
6 -3 -10 265.57 22.4
-6 3 10 278.97 24.9
3 -6 10 227.38 28.7
7 -4 -10 118.79 17.2
-3 7 -10 149.39 24.9
-4 -3 -10 143.89 27.2
-7 4 10 161.38 18.8
3 -7 10 152.48 25.6
-7 4 10 173.38 23.8
-2 6 -10 527.45 38.4
6 -4 -10 469.55 34.8
-4 -2 -10 520.25 40.9
-6 4 10 417.56 30.9
-6 4 10 430.76 37
2 -6 10 437.46 38.9
-1 5 -10 288.57 27.7
5 -4 -10 292.87 27.5
-4 -1 -10 294.87 19.3
-5 4 10 376.56 29.7
1 -5 10 364.16 30.9
1 -5 10 353.76 29.2
-4 0 -10 494.75 29.6
0 4 -10 457.75 33.4
4 -4 -10 468.85 35
-4 0 -10 446.16 36.5
-4 4 10 470.75 34.4
0 -4 10 450.75 35.2
-4 1 -10 1807.22 99.39
3 -4 -10 1810.02 102.69
1 3 -10 1800.12 101.19
-4 1 -10 1812.92 102.79
-3 4 10 1758.32 100.59
-1 -3 10 1905.21 104.29
-4 2 -10 1873.81 107.49
2 2 -10 1870.81 106.19
2 -4 -10 1839.92 107.99
-4 2 -10 1843.32 106.29
2 -4 -10 2067.99 105.09
-2 -2 10 2064.49 111.49
-4 3 -10 202.18 20.2
-4 3 -10 174.88 20.7
1 -4 -10 173.08 18.4
-3 -1 10 306.87 26
4 0 -10 457.35 26.5
0 -4 -10 494.35 34.9
-4 4 -10 494.75 36
0 4 10 466.35 27.3
-4 0 10 456.05 36.4
-1 -4 -10 973.9 60.79
-4 5 -10 939.61 60.59
5 -1 -10 877.01 50.39
-5 1 10 1003.8 60.69
-2 -4 -10 413.86 40.6
-6 2 10 516.95 38.5
4 -6 10 505.45 42
-4 7 -10 23.4 14.9
-3 -4 -10 4.3 16.3
-7 3 10 36 14.6
-7 3 10 30.3 13.2
4 -7 10 5.9 15.3
-4 -4 -10 29.5 21.2
-4 8 -10 3.9 16.2
-8 4 10 34.9 15.5
4 -8 10 -13 16.5
-8 4 10 9.8 11.8
-5 -4 -10 240.68 37.8
-4 9 -10 159.28 28.7
4 -9 10 240.18 36.9
-9 5 10 182.48 28.7
-3 8 -10 123.39 23.6
-5 -3 -10 133.89 28.8
-8 5 10 205.88 28.2
3 -8 10 168.28 28.6
-5 -2 -10 1109.49 79.69
7 -5 -10 1131.79 72.29
-2 7 -10 1189.48 75.59
-7 5 10 1227.28 76.69
2 -7 10 1262.47 79.29
-1 6 -10 1814.22 104.39
6 -5 -10 1913.21 104.99
-6 5 10 1777.82 105.09
1 -6 10 1759.52 104.09
1 -6 10 1722.43 105.79
0 5 -10 1006.1 62.59
5 -5 -10 966 63.89
-5 0 -10 1029 66.79
-5 0 -10 903.81 56.19
-5 5 10 1061.19 63.99
0 -5 10 1044.8 63.19
0 -5 10 1081.69 64.79
-5 1 -10 892.71 53.89
4 -5 -10 916.51 51.79
-5 1 -10 943.21 60.39
4 -5 -10 847.12 58.69
1 4 -10 903.11 56.89
-1 -4 10 1010.1 61.19
-4 5 10 908.11 57.29
2 3 -10 1710.53 95.69
-5 2 -10 1642.34 95.09
3 -5 -10 1666.63 98.79
3 -5 -10 1739.93 92.49
-5 2 -10 1702.23 97.69
-3 5 10 1678.63 95.29
-5 3 -10 749.62 49.7
2 -5 -10 805.32 47.4
-5 3 -10 767.72 49.8
3 2 -10 796.82 49.1
2 -5 -10 800.22 52.49
-2 5 10 751.22 46.8
-3 -2 10 724.43 52.89
-5 4 -10 304.47 27.5
-5 4 -10 319.37 30
1 -5 -10 284.27 27.1
-4 -1 10 383.56 33.8
-4 -1 10 380.76 29.1
-1 5 10 394.36 24.5
-5 5 -10 928.11 59.19
0 -5 -10 934.11 61.59
-5 5 -10 1005.8 64.39
-5 0 10 1026.7 61.29
-5 0 10 1061.49 66.19
-1 -5 -10 310.57 31.6
-5 6 -10 306.97 33
-6 1 10 324.47 32.3
-6 1 10 261.97 26.8
-2 -5 -10 162.08 26.7
-5 7 -10 164.88 25.8
5 -7 10 124.79 23.8
-7 2 10 112.49 20.5
-7 2 10 129.29 22
-3 -5 -10 -22.8 16.1
-5 8 -10 10.5 16.5
-8 3 10 1.2 14.2
-8 3 10 -8.2 11.7
5 -8 10 -5.6 16.7
-5 9 -10 42.2 21.4
-4 -5 -10 25.6 22.1
-9 4 10 37.4 18.6
5 -9 10 33 22.1
-5 -5 -10 165.88 34.4
-5 10 -10 107.59 27.2
-10 5 10 136.59 28.1
5 -10 10 115.79 31
-6 -5 -10 192.58 39.7
-6 -5 -10 131.69 27
-5 11 -10 156.48 32.2
5 -11 10 117.39 33.5
-11 6 10 125.19 29.6
-6 -4 -10 476.45 54.49
-4 10 -10 396.26 46.2
4 -10 10 402.46 48.3
-10 6 10 436.56 46.1
-3 9 -10 257.07 33.8
-6 -3 -10 293.87 40.9
-9 6 10 274.37 35.9
3 -9 10 223.88 35.1
-6 -2 -10 323.97 40.1
-2 8 -10 290.47 33.7
8 -6 -10 265.67 30.6
-8 6 10 309.57 35.8
2 -8 10 248.68 34
2 -8 10 265.47 30.4
-1 7 -10 755.32 58.09
7 -6 -10 774.12 58.39
-6 -1 -10 796.42 64.79
1 -7 10 988.6 60.39
-7 6 10 969 62.69
1 -7 10 932.41 62.29
-6 0 -10 960.7 62.69
6 -6 -10 935.01 59.59
0 6 -10 831.52 56.19
0 -6 10 875.21 58.59
-6 6 10 786.52 57.79
0 -6 10 727.83 55.89
-6 1 -10 244.48 29.3
5 -6 -10 237.28 28.8
-6 1 -10 259.67 22.7
1 5 -10 252.97 26.8
-5 6 10 292.17 28.4
-1 -5 10 264.77 26.1
-1 -5 10 327.67 32
4 -6 -10 458.35 29.4
-6 2 -10 453.65 33.5
4 -6 -10 436.96 38.8
-6 2 -10 436.66 38.6
2 4 -10 470.75 35.4
-4 6 10 482.15 36.6
-2 -4 10 506.25 40.7
3 -6 -10 258.37 29.5
3 -6 -10 278.87 22.1
-6 3 -10 292.37 26.3
-6 3 -10 283.27 28.8
3 3 -10 255.17 25.3
-3 6 10 240.48 24.9
4 2 -10 473.95 33.6
2 -6 -10 434.26 32.3
-6 4 -10 468.75 37.1
-6 4 -10 485.55 34.9
-2 6 10 415.56 31.2
-4 -2 10 362.16 39
-4 -2 10 424.96 34.2
1 -6 -10 1714.53 101.89
-6 5 -10 1749.72 100.79
-6 5 -10 1875.61 105.29
-5 -1 10 1814.92 108.29
-5 -1 10 1773.02 101.89
-1 6 10 1745.63 100.99
-6 6 -10 893.91 59.99
-6 6 -10 910.01 53.79
0 -6 -10 932.11 60.29
0 -6 -10 852.41 57.49
-6 0 10 711.43 53.89
-6 0 10 744.13 59.49
-1 -6 -10 311.17 34.4
-1 -6 -10 290.57 33.8
-6 7 -10 347.27 34.9
-6 7 -10 338.17 27.8
-7 1 10 314.77 35.7
-7 1 10 272.67 31
-2 -6 -10 25.3 17.5
-6 8 -10 70.59 16.5
-6 8 -10 45.3 20.5
-2 -6 -10 62.79 21.7
6 -8 10 34 20.9
-8 2 10 58.69 20.3
-8 2 10 86.49 19.6
-3 -6 -10 45.7 23
-3 -6 -10 19.5 17.9
-6 9 -10 19 19.4
-9 3 10 12.7 16.8
-9 3 10 25.8 16.3
6 -9 10 18.8 21.4
-4 -6 -10 125.29 31.3
-4 -6 -10 130.79 25.7
-6 10 -10 118.39 28.9
-10 4 10 84.59 24.1
6 -10 10 78.89 28.9
-5 -6 -10 140.39 35.3
-6 11 -10 141.79 31.9
-5 -6 -10 119.19 27.7
6 -11 10 147.29 36.3
-11 5 10 132.69 30.3
-6 12 -10 112.39 32.5
-6 -6 -10 95.39 36.1
6 -12 10 97.09 35.6
-12 6 10 50.79 27.8
-5 12 -10 16.4 25.6
-7 -5 -10 14.3 30.1
5 -12 10 -18.3 24.3
-12 7 10 -2.4 23.2
-7 -4 -10 310.97 50.59
-4 11 -10 250.67 39.4
-11 7 10 271.07 40.1
4 -11 10 310.67 44.2
-7 -3 -10 596.14 62.49
-3 10 -10 547.25 55.39
-10 7 10 593.44 55.99
3 -10 10 732.83 60.79
-7 -2 -10 128.39 30.1
-2 9 -10 161.88 28.5
-9 7 10 189.68 31.8
2 -9 10 148.79 24.3
2 -9 10 183.38 30.9
8 -7 -10 104.09 22.2
-7 -1 -10 117.99 29.7
-1 8 -10 138.99 24.5
-8 7 10 93.59 24.3
1 -8 10 99.69 21
1 -8 10 103.89 23.1
0 7 -10 597.14 44.8
-7 0 -10 528.45 51.49
7 -7 -10 516.65 46
-7 7 10 537.25 47
0 -7 10 599.54 46.7
0 -7 10 525.95 44.9
1 6 -10 306.47 31.1
-7 1 -10 250.77 34.3
6 -7 -10 364.66 36.2
-7 1 -10 291.67 24.9
-1 -6 10 298.27 34.6
-1 -6 10 277.77 29.3
-6 7 10 275.37 31.9
-7 2 -10 137.39 24.4
-7 2 -10 178.38 19.9
2 5 -10 166.98 22.2
5 -7 -10 138.39 23.9
-2 -5 10 118.09 24.2
-2 -5 10 140.59 18.5
-5 7 10 123.29 21.2
4 -7 -10 21.2 16.2
-7 3 -10 -1.6 10.7
-7 3 -10 9.4 14.5
3 4 -10 10.6 11.8
-4 7 10 26 13.1
-3 -4 10 21.4 17.7
3 -7 -10 100.09 16.6
4 3 -10 104.89 17.9
3 -7 -10 100.19 21.2
-7 4 -10 165.08 22.1
-7 4 -10 106.19 20.4
-3 7 10 173.78 20.3
-4 -3 10 145.39 25.8
2 -7 -10 1214.58 79.99
2 -7 -10 1173.18 73.39
-7 5 -10 1258.77 78.29
5 2 -10 1180.68 74.49
-7 5 -10 1208.68 74.99
-5 -2 10 1253.67 82.69
-5 -2 10 1257.17 75.49
-2 7 10 1287.27 74.69
1 -7 -10 873.41 63.89
-7 6 -10 896.41 62.69
-7 6 -10 856.21 56.89
1 -7 -10 823.72 58.19
-6 -1 10 988.3 67.59
-6 -1 10 935.51 59.19
0 -7 -10 506.35 43.6
-7 7 -10 511.25 38.3
-7 7 -10 552.24 47.4
0 -7 -10 524.55 46.8
-7 0 10 529.05 47.9
-7 0 10 478.45 40.6
-1 -7 -10 407.16 42.1
-1 -7 -10 407.56 43.7
-7 8 -10 402.66 44.1
-8 1 10 522.35 41
-8 1 10 437.96 45.2
-2 -7 -10 288.47 36.1
-7 9 -10 314.17 39.8
-2 -7 -10 321.67 40.3
-9 2 10 225.98 33.7
7 -9 10 209.98 35.3
-9 2 10 262.37 32.1
-7 10 -10 147.89 32.2
-3 -7 -10 211.68 33.1
-3 -7 -10 136.99 31.5
-10 3 10 192.68 30.3
-10 3 10 167.78 29
7 -10 10 186.88 36.8
-7 11 -10 320.17 43.1
-4 -7 -10 317.37 41.6
-4 -7 -10 320.87 47.2
-11 4 10 413.56 43.5
7 -11 10 302.17 47.3
-5 -7 -10 391.16 52.49
-7 12 -10 381.06 49.8
-5 -7 -10 353.66 58.49
7 -12 10 368.66 53.39
-12 5 10 341.67 44.5
-4 12 -10 28.2 26.1
-8 -3 -10 215.38 42.4
-3 11 -10 168.88 34
-11 8 10 186.88 35.5
3 -11 10 246.98 40.2
-8 -2 -10 285.97 45.3
-2 10 -10 224.98 35.2
2 -10 10 269.37 39.3
-10 8 10 211.58 35.7
2 -10 10 283.77 33.7
9 -8 -10 42.4 18.6
-1 9 -10 31.5 19.8
-8 -1 -10 37 26.1
1 -9 10 15.8 16.7
-9 8 10 6.1 21.1
1 -9 10 29.1 20.4
0 8 -10 140.79 25.1
-8 0 -10 200.68 34.9
8 -8 -10 184.68 29.3
-8 8 10 207.98 31
0 -8 10 182.68 28.9
0 -8 10 226.78 29.8
7 -8 -10 373.96 42.4
-8 1 -10 450.55 48.4
1 7 -10 377.76 38.4
-1 -7 10 499.75 41.7
-7 8 10 479.25 43.4
-1 -7 10 521.15 45.7
2 6 -10 60.99 17.6
6 -8 -10 69.99 21.8
-8 2 -10 58.39 14.4
-8 2 -10 33.6 20.6
-2 -6 10 64.99 20.9
-6 8 10 43.7 17.8
5 -8 -10 -4 15.5
3 5 -10 5.6 12.5
-8 3 -10 11.1 17.2
-8 3 -10 3.5 11.6
-5 8 10 -7.1 13.2
-3 -5 10 -2 16.3
4 -8 -10 23.1 19.4
4 4 -10 15.5 13.4
-8 4 -10 17.7 14.2
-8 4 -10 38.8 17.2
-4 -4 10 10.1 16.5
-4 8 10 0.6 12.8
3 -8 -10 149.59 26.1
5 3 -10 137.69 21.2
-8 5 -10 120.59 22.5
-8 5 -10 128.49 23
-3 8 10 246.68 30.7
-5 -3 10 164.58 29.2
6 2 -10 327.87 31.6
-8 6 -10 284.67 33.9
2 -8 -10 287.57 35.9
-8 6 -10 274.07 31.1
-6 -2 10 312.67 33.2
-6 -2 10 301.77 38.7
1 -8 -10 135.69 23.2
1 -8 -10 133.49 27.4
-8 7 -10 111.89 25.6
-7 -1 10 88.09 25.3
-7 -1 10 143.29 22.8
0 -8 -10 206.28 29.5
0 -8 -10 153.68 29.7
-8 8 -10 133.39 28.5
-8 0 10 180.88 26.1
-8 0 10 215.98 34.4
-1 -8 -10 429.76 46.8
-1 -8 -10 556.14 51.09
-8 9 -10 498.25 51.09
-9 1 10 532.95 44.5
-9 1 10 476.45 49.8
-8 10 -10 288.87 40.6
-2 -8 -10 221.58 35.3
-2 -8 -10 259.77 37.9
-10 2 10 256.57 34.4
8 -10 10 229.08 39.8
-10 2 10 262.67 37.1
-3 -8 -10 48.8 25.3
-8 11 -10 56.69 27.6
-3 -8 -10 39.2 26.5
-11 3 10 111.49 25.5
8 -11 10 94.79 33.1
-8 12 -10 222.68 39.9
-9 -2 -10 128.59 38.2
-2 11 -10 74.79 28.1
-11 9 10 40.1 26.5
2 -11 10 42.6 25.5
-1 10 -10 84.19 25
-9 -1 -10 66.79 32.6
-10 9 10 78.99 28.5
1 -10 10 121.69 25.3
1 -10 10 98.29 28.1
9 -9 -10 391.46 45.4
-9 0 -10 431.56 51.69
0 9 -10 314.27 38.3
0 -9 10 362.66 42.1
-9 9 10 334.07 43.4
1 8 -10 528.15 45.7
8 -9 -10 558.44 52.49
-9 1 -10 490.75 54.69
-1 -8 10 522.15 51.49
-8 9 10 481.65 50.59
-9 2 -10 356.66 42.8
7 -9 -10 310.77 39.3
2 7 -10 318.87 35.3
-2 -7 10 260.87 37
-7 9 10 193.78 31.4
-9 3 -10 67.39 23.6
-9 3 -10 41.5 15.9
6 -9 -10 29.9 21.9
3 6 -10 41 17
-6 9 10 14.4 16.6
-3 -6 10 47 22.8
4 5 -10 31.2 16.9
-9 4 -10 72.69 18.5
-9 4 -10 85.09 23.5
5 -9 -10 44.5 22.2
-5 9 10 -0.8 15.2
-4 -5 10 59.59 24
-9 5 -10 192.88 28.9
-9 5 -10 202.28 28.1
4 -9 -10 195.18 32.5
5 4 -10 180.38 25.2
-5 -4 10 220.58 34.7
3 -9 -10 226.88 35.6
6 3 -10 280.57 32.3
-9 6 -10 282.27 33.2
-9 6 -10 297.87 34.8
-6 -3 10 223.08 35.2
-9 7 -10 143.59 27.5
2 -9 -10 170.88 30.1
7 2 -10 184.48 26
-7 -2 10 180.98 26.1
-7 -2 10 158.28 32.5
-9 8 -10 26.4 20.7
1 -9 -10 15.8 21.2
-8 -1 10 12 21.6
-8 -1 10 2.5 15.6
-9 9 -10 393.16 45.6
0 -9 -10 409.96 47
-9 0 10 333.27 44.6
-9 0 10 335.77 37.9
-9 10 -10 355.96 45.5
-1 -9 -10 354.26 57.69
-1 -9 -10 444.26 49.5
-10 1 10 356.66 46
-10 1 10 362.76 40.4
-9 11 -10 33.3 27.2
-2 -9 -10 13.4 23.7
-2 -9 -10 30.5 25.8
-11 2 10 73.49 23.6
-11 2 10 42.9 25.4
-1 11 -10 13.2 23
-10 -1 -10 29.8 32.1
-11 10 10 6.7 26.7
-10 0 -10 176.88 39.8
10 -10 -10 92.09 27.5
0 10 -10 140.69 28.3
0 -10 10 123.59 27.9
-10 10 10 113.49 31.1
-10 1 -10 517.95 59.29
9 -10 -10 282.27 42.6
1 9 -10 385.66 43
-9 10 10 340.87 44.7
-1 -9 10 345.27 44.2
2 8 -10 277.87 33.6
-10 2 -10 272.37 43.2
8 -10 -10 255.57 39.2
-8 10 10 238.98 37.2
-2 -8 10 231.88 37.2
7 -10 -10 147.49 31.9
-10 3 -10 232.58 37.9
3 7 -10 136.59 25.7
-7 10 10 199.08 31.7
-3 -7 10 167.88 32.1
4 6 -10 128.69 23.7
-10 4 -10 139.39 23.4
-10 4 -10 161.68 30.9
6 -10 -10 115.89 29.3
-6 10 10 86.39 23.5
-4 -6 10 81.59 28.5
5 -10 -10 245.08 38.5
5 5 -10 168.68 26.4
-10 5 -10 160.68 27
-10 5 -10 157.48 30.2
-5 -5 10 141.99 31.6
6 4 -10 413.66 39.9
-10 6 -10 408.16 43.2
4 -10 -10 365.56 46.4
-6 -4 10 437.56 51.39
3 -10 -10 596.14 58.49
7 3 -10 576.74 48.6
-10 7 -10 671.43 56.79
-7 -3 10 619.04 60.59
2 -10 -10 257.77 40
-10 8 -10 209.58 35.3
8 2 -10 244.58 31.5
-8 -2 10 275.37 33.5
-8 -2 10 285.47 42.2
1 -10 -10 66.19 28.3
-10 9 -10 96.69 28.4
-9 -1 10 62.39 27.7
-9 -1 10 87.39 22.1
0 -10 -10 119.79 33.4
-10 10 -10 105.69 30.8
-10 0 10 131.19 27
-10 0 10 137.09 33.3
-1 -10 -10 38.1 28.4
-10 11 -10 83.79 30.3
-11 1 10 96.09 31.6
-11 1 10 72.19 23.9
10 -11 -10 66.19 27.1
1 10 -10 61.39 25.3
-11 1 -10 54.29 33.5
-1 -10 10 48 25.6
-10 11 10 68.49 28.4
-11 2 -10 69.09 32.7
2 9 -10 70.89 24.5
9 -11 -10 47.6 28.1
-9 11 10 70.19 27.8
-2 -9 10 81.59 28.1
-11 3 -10 146.69 35.3
3 8 -10 62.99 23.3
8 -11 -10 38.3 26.2
-8 11 10 84.59 26.9
-3 -8 10 47.3 26.8
7 -11 -10 302.87 44.7
-11 4 -10 357.26 46.3
-7 11 10 286.27 38.9
-4 -7 10 328.37 46.8
6 -11 -10 217.48 39.3
-11 5 -10 149.19 27.4
-11 5 -10 172.08 34.4
5 6 -10 178.58 28
-5 -6 10 201.58 37.6
6 5 -10 134.69 25.2
5 -11 -10 170.08 36.4
-11 6 -10 116.69 26.5
-6 -5 10 171.68 36.4
4 -11 -10 297.47 44.8
7 4 -10 283.87 33.9
-11 7 -10 237.68 35.6
-7 -4 10 257.07 42.9
-11 8 -10 173.08 33.3
8 3 -10 204.08 30
3 -11 -10 219.98 40.1
-8 -3 10 133.39 35.6
-11 9 -10 48.5 26.1
2 -11 -10 60.09 28.2
9 2 -10 50.79 22.5
-9 -2 10 21.5 27.4
-11 10 -10 97.69 31.1
1 -11 -10 26.2 26.8
-10 -1 10 4.7 20.4
-10 -1 10 44.7 28.1
7 -12 -10 419.36 53.79
-5 -7 10 350.16 51.69
6 -12 -10 90.09 32.4
-12 6 -10 105.59 26.2
-6 -6 10 73.69 31.7
5 -12 -10 15.1 27.9
-12 7 -10 18 21.5
-7 -5 10 -1.3 26.1
8 4 -10 76.59 30.4
0 0 -11 7.4 5.8
-1 0 -11 2551.34 138.69
0 1 -11 2601.64 140.09
-1 1 11 2690.53 139.59
1 0 -11 2461.25 133.39
0 -1 -11 2565.24 132.19
-1 1 -11 2438.46 133.29
-1 -1 -11 3409.86 178.78
-1 -1 -11 3365.66 174.58
-1 2 -11 3346.27 177.68
-2 1 11 3218.98 177.08
-2 -1 -11 1359.06 78.29
-1 3 -11 1378.76 77.09
-2 -1 -11 1308.87 71.89
-3 2 11 1308.07 76.19
-2 0 -11 4143.19 218.88
0 2 -11 4176.78 221.58
-2 2 11 4245.38 220.78
-2 1 -11 3428.96 182.48
1 1 -11 3485.85 181.38
-2 1 -11 3312.17 180.08
-2 2 -11 4076.29 222.88
0 -2 -11 4043 223.18
0 -2 -11 4091.39 219.78
-2 0 11 4404.06 223.58
0 2 11 4490.55 220.38
-2 3 -11 869.01 52.19
-1 -2 -11 807.82 52.29
-1 -2 -11 833.02 46.2
-3 1 11 813.72 51.59
-3 1 11 898.31 51.79
4 -2 -11 58.39 9.9
-2 -2 -11 42.2 13.4
-2 4 -11 42.9 12.5
-2 -2 -11 58.29 5.9
-4 2 11 33.7 10.7
-4 2 11 59.59 11.5
5 -3 -11 631.14 39.8
-3 -2 -11 600.64 45.2
-5 3 11 566.24 42.2
-3 -1 -11 77.09 18.4
-3 -1 -11 56.29 7.6
4 -3 -11 79.19 13.3
-4 3 11 37.6 11.8
-3 0 -11 563.34 34.5
-3 3 11 567.74 37.6
-3 1 -11 878.11 50.49
-3 1 -11 803.52 52.79
-2 3 11 857.11 50.39
1 -3 -11 1362.76 74.49
-3 2 -11 1267.47 75.19
-3 2 -11 1362.16 74.89
2 1 -11 1319.27 75.49
-2 -1 11 1213.18 76.39
0 -3 -11 567.24 38.2
-3 3 -11 574.84 38.8
0 3 11 563.44 32.9
-3 0 11 576.04 38.4
-3 0 11 564.44 39.6
-1 -3 -11 184.28 21.5
-1 -3 -11 187.78 11.6
-3 4 -11 194.18 22.1
4 -1 -11 162.48 14.8
-4 1 11 128.19 17.5
-4 1 11 194.08 20.9
-2 -3 -11 1342.67 83.79
-3 5 -11 1373.66 82.99
5 -2 -11 1323.87 76.49
-5 2 11 1471.15 82.19
-5 2 11 1420.76 80.99
6 -3 -11 1137.19 66.09
-3 -3 -11 1154.18 74.59
-6 3 11 1093.59 70.79
-6 3 11 1131.39 68.09
3 -6 11 1169.08 74.19
7 -4 -11 806.82 61.69
-3 7 -11 927.31 66.79
-4 -3 -11 1003.1 71.39
-7 4 11 1046.7 61.49
-7 4 11 1183.88 68.99
3 -7 11 1138.69 71.49
-4 -2 -11 908.81 62.69
6 -4 -11 950.2 55.99
-6 4 11 813.42 57.89
2 -6 11 809.92 59.39
5 -4 -11 32.8 11.9
-4 -1 -11 59.29 7
-5 4 11 18.3 11.8
-4 0 -11 64.29 9.9
4 -4 -11 39 12.7
-4 4 11 96.19 15.2
0 -4 11 113.59 17.3
-4 1 -11 168.78 17.6
3 -4 -11 174.88 20.4
-4 1 -11 191.78 22
-3 4 11 194.18 19.8
-1 -3 11 161.78 20.9
-4 2 -11 41.8 11.8
-4 2 -11 32 10.8
2 -4 -11 63.29 11
-2 4 11 38 9.9
-2 -2 11 43.9 13.6
1 -4 -11 52.19 10.9
-4 3 -11 49.8 11.6
-4 3 -11 70.69 13.6
-1 4 11 21.9 7.3
-3 -1 11 25.1 12.6
-4 4 -11 60.09 15.1
0 -4 -11 63.19 13.8
0 4 11 101.69 9.6
-4 0 11 62.49 15.3
5 -1 -11 1160.48 65.29
-4 5 -11 1293.77 75.69
-1 -4 -11 1225.28 74.69
-5 1 11 1198.18 74.79
-4 6 -11 1296.07 76.19
-2 -4 -11 1264.27 76.39
-6 2 11 1012.2 71.59
-3 -4 -11 541.45 47.3
-4 7 -11 622.54 46.1
-7 3 11 536.75 41.1
4 -7 11 477.55 46.3
-7 3 11 496.45 41.9
-4 8 -11 282.67 35
-4 -4 -11 295.67 38.3
4 -8 11 227.98 34.9
-8 4 11 269.87 27.9
-8 4 11 284.57 32.6
-5 -4 -11 553.44 55.39
-4 9 -11 520.75 50.09
4 -9 11 620.74 55.49
-9 5 11 565.34 49.9
-3 8 -11 460.65 42.5
-5 -3 -11 384.26 46.2
-8 5 11 445.66 42.3
3 -8 11 428.16 44.3
7 -5 -11 582.14 44.5
-5 -2 -11 658.33 53.49
-2 7 -11 528.55 46.5
-7 5 11 697.13 49.8
2 -7 11 659.13 51.39
-1 6 -11 37.3 14.6
6 -5 -11 28.5 13.5
1 -6 11 38 13.9
-6 5 11 40.3 14.9
1 -6 11 44.5 15.7
-5 0 -11 263.47 30.8
-5 0 -11 280.77 21.4
5 -5 -11 273.87 29
0 5 -11 263.07 27.8
-5 5 11 319.57 29.5
0 -5 11 349.96 30.9
4 -5 -11 1292.87 68.69
-5 1 -11 1211.78 76.09
1 4 -11 1223.28 72.99
4 -5 -11 1231.58 75.59
-5 1 -11 1264.07 70.29
-1 -4 11 1144.99 75.79
-4 5 11 1158.98 72.99
-5 2 -11 1426.96 81.59
3 -5 -11 1396.96 85.19
3 -5 -11 1420.86 78.99
2 3 -11 1417.76 82.39
-5 2 -11 1396.66 84.09
-3 5 11 1444.66 81.89
3 2 -11 678.33 43.8
2 -5 -11 635.54 41.2
2 -5 -11 655.33 46.3
-5 3 -11 695.93 44.7
-5 3 -11 656.03 44.5
-3 -2 11 606.64 49
-2 5 11 600.14 40.6
-5 4 -11 65.09 13.2
-5 4 -11 33.6 14
1 -5 -11 59.89 13.3
-4 -1 11 32 15.5
-4 -1 11 31.5 11.5
-1 5 11 23.9 8.3
-5 5 -11 278.27 30.7
-5 5 -11 265.17 25.5
0 -5 -11 332.87 29.9
-5 0 11 330.37 32
-5 0 11 286.27 31.3
-5 6 -11 885.21 60.49
-1 -5 -11 729.33 57.79
-6 1 11 907.91 57.19
-6 1 11 929.91 60.19
-2 -5 -11 712.23 53.29
-5 7 -11 698.73 52.89
-7 2 11 627.94 49.1
-7 2 11 632.34 48.4
-5 8 -11 89.79 22.4
-3 -5 -11 93.39 25.4
-8 3 11 75.49 18.5
5 -8 11 86.49 25.4
-8 3 11 90.89 20.5
-4 -5 -11 292.87 39.4
-5 9 -11 331.77 38.9
5 -9 11 241.58 37.2
-9 4 11 186.58 29.7
-5 -5 -11 534.75 56.79
-5 10 -11 459.45 51.59
-10 5 11 569.24 51.49
5 -10 11 533.25 56.39
-6 -5 -11 56.19 30.1
-5 11 -11 59.59 28.1
-6 -5 -11 61.49 23.1
-11 6 11 103.09 29.5
5 -11 11 99.09 32.9
-4 10 -11 295.77 41.6
-6 -4 -11 386.96 50.29
-10 6 11 376.16 43.2
4 -10 11 328.47 45.4
-3 9 -11 336.07 39.7
-6 -3 -11 291.67 43.5
-9 6 11 384.26 41.8
3 -9 11 377.56 43.8
-6 -2 -11 262.67 37
-2 8 -11 261.77 32.3
8 -6 -11 245.98 29.1
2 -8 11 261.37 34
-8 6 11 257.37 33.8
7 -6 -11 42.5 15.7
-6 -1 -11 32.5 21.1
-1 7 -11 18.6 15.8
1 -7 11 65.29 18.9
1 -7 11 50.19 16.1
-7 6 11 26.1 16.9
-6 0 -11 203.68 30.8
0 6 -11 252.67 28.3
6 -6 -11 204.38 27.9
0 -6 11 272.27 28.7
-6 6 11 278.27 30.1
0 -6 11 277.67 30.4
-6 1 -11 780.02 58.29
-6 1 -11 771.12 49.7
5 -6 -11 787.52 56.89
1 5 -11 779.72 53.99
-5 6 11 903.11 56.39
-1 -5 11 937.61 59.89
-6 2 -11 1227.88 75.79
4 -6 -11 1181.78 66.39
-6 2 -11 1285.87 70.79
4 -6 -11 1286.37 76.39
2 4 -11 1340.57 73.29
-4 6 11 1003.4 70.89
-2 -4 11 970.5 74.39
-6 3 -11 1197.58 72.49
3 3 -11 1070.09 69.59
-6 3 -11 1168.08 70.79
3 -6 -11 1178.28 74.69
3 -6 -11 1144.99 66.69
-3 6 11 1208.48 69.59
-6 4 -11 951.2 59.79
2 -6 -11 895.91 62.09
4 2 -11 987.4 58.49
-6 4 -11 951 58.79
2 -6 -11 953.5 56.49
-4 -2 11 787.02 61.79
-2 6 11 820.12 53.99
-6 5 -11 62.99 14.4
1 -6 -11 62.79 15
-6 5 -11 49.5 16.8
-5 -1 11 49.99 17.6
-5 -1 11 42.5 14
-6 6 -11 250.77 25.2
-6 6 -11 232.08 29.5
0 -6 -11 276.87 29
0 -6 -11 204.58 27.3
-6 0 11 265.77 27.7
-6 0 11 249.18 30.9
-6 7 -11 760.02 49.2
-6 7 -11 758.92 57.19
-1 -6 -11 722.33 54.49
-1 -6 -11 736.03 55.59
-7 1 11 710.03 56.09
-7 1 11 745.93 52.79
-6 8 -11 663.63 52.59
-6 8 -11 621.94 42.1
-2 -6 -11 606.54 52.69
-2 -6 -11 636.94 50.29
-8 2 11 485.05 47.5
-8 2 11 536.45 46.3
-3 -6 -11 336.37 39.5
-3 -6 -11 335.87 41.5
-6 9 -11 321.67 39.3
-9 3 11 350.46 37.6
6 -9 11 342.27 44.1
-9 3 11 354.06 38.2
-4 -6 -11 487.55 47.8
-6 10 -11 588.54 53.19
-4 -6 -11 459.55 53.79
-10 4 11 422.86 46.4
6 -10 11 555.24 56.89
-5 -6 -11 145.19 35.7
-5 -6 -11 95.69 26.2
-6 11 -11 163.68 34.1
6 -11 11 178.78 38.7
-11 5 11 168.98 33.1
-6 -6 -11 37.4 31.6
-6 12 -11 -6.3 25.8
6 -12 11 27 29.5
-12 6 11 -30.6 21.3
-4 11 -11 -15.2 20.9
-7 -4 -11 -17.3 25.9
4 -11 11 28.1 25.4
-11 7 11 5.6 22.7
-3 10 -11 55.59 24.1
-7 -3 -11 57.09 28.8
-10 7 11 24.6 22.6
3 -10 11 42.6 24.4
-7 -2 -11 68.59 26.1
-2 9 -11 23.8 19.9
-9 7 11 62.79 23.8
2 -9 11 75.79 24.3
-1 8 -11 44.1 19
8 -7 -11 48.4 17.5
-7 -1 -11 20 22.5
1 -8 11 26.6 17.8
1 -8 11 25.9 16.2
-8 7 11 8.4 17.5
7 -7 -11 186.38 27.7
0 7 -11 211.98 26.9
0 -7 11 209.98 27.3
0 -7 11 210.08 28.6
-7 7 11 186.28 28.4
1 6 -11 727.93 52.19
6 -7 -11 760.42 56.99
-7 1 -11 643.74 56.59
-1 -6 11 773.82 56.99
-1 -6 11 730.43 50.59
-6 7 11 747.03 54.19
5 -7 -11 640.34 52.79
-7 2 -11 686.53 53.19
2 5 -11 746.43 49.2
-7 2 -11 662.33 45.6
-2 -5 11 681.43 53.89
-5 7 11 633.24 49.2
-7 3 -11 528.65 39.4
3 4 -11 583.94 41.3
-7 3 -11 487.65 44
4 -7 -11 498.45 45.2
-3 -4 11 497.35 45.6
-4 7 11 505.75 40
3 -7 -11 851.71 64.89
-7 4 -11 905.81 62.49
-7 4 -11 909.51 61.59
4 3 -11 844.02 59.49
-4 -3 11 986.7 68.19
-3 7 11 1092.29 60.19
5 2 -11 549.05 43.5
-7 5 -11 552.64 46.8
2 -7 -11 607.84 42.7
-7 5 -11 543.95 43.8
2 -7 -11 572.44 48.6
-5 -2 11 703.23 53.59
-5 -2 11 682.33 45.7
1 -7 -11 40.8 18.7
1 -7 -11 40.9 15.1
-7 6 -11 41.8 14.4
-7 6 -11 38.7 18
-6 -1 11 44.7 15.5
-6 -1 11 54.39 20
0 -7 -11 223.28 29.9
-7 7 -11 229.38 32.9
0 -7 -11 269.17 33.6
-7 7 -11 262.87 26.5
-7 0 11 241.08 28.6
-7 0 11 218.78 33.6
-1 -7 -11 667.43 55.59
-7 8 -11 741.03 57.39
-1 -7 -11 631.04 53.59
-8 1 11 665.63 55.79
-8 1 11 629.64 50.09
-7 9 -11 430.96 47.1
-2 -7 -11 533.65 50.19
-2 -7 -11 437.06 46
-9 2 11 382.96 44.7
-9 2 11 404.46 41.7
-7 10 -11 344.07 43.4
-3 -7 -11 306.27 40.4
-3 -7 -11 351.76 45.3
7 -10 11 370.26 48.5
-10 3 11 387.16 41.4
-10 3 11 299.17 37.9
-4 -7 -11 98.89 30.8
-7 11 -11 110.29 31.1
-4 -7 -11 80.79 26.8
-11 4 11 130.59 29.2
7 -11 11 67.79 30.6
-3 11 -11 120.89 31.7
-8 -3 -11 152.28 40.4
-11 8 11 97.09 33.1
3 -11 11 169.18 35.3
-8 -2 -11 125.29 34.8
-2 10 -11 86.99 25.5
2 -10 11 85.29 27.9
-10 8 11 109.99 29.9
-1 9 -11 33 19.6
9 -8 -11 40.2 19.6
-8 -1 -11 5.3 24.1
1 -9 11 43.1 21.1
1 -9 11 36.3 18.3
-9 8 11 29.6 22
0 8 -11 160.28 26.4
8 -8 -11 201.58 30
-8 0 -11 160.28 32
0 -8 11 144.59 26.5
0 -8 11 165.58 27
-8 8 11 125.79 28
-8 1 -11 732.83 59.69
7 -8 -11 739.13 56.19
1 7 -11 615.94 49.8
-7 8 11 652.93 53.29
-1 -7 11 575.94 53.59
6 -8 -11 642.04 52.29
2 6 -11 611.54 46.8
-8 2 -11 677.13 53.69
-6 8 11 536.95 47.3
-2 -6 11 449.76 49.2
3 5 -11 96.39 20
5 -8 -11 100.59 24.9
-8 3 -11 98.99 18
-8 3 -11 124.49 24.9
-3 -5 11 117.39 27.4
-5 8 11 98.39 19.9
4 -8 -11 261.47 34.3
-8 4 -11 288.67 33.8
4 4 -11 251.87 29.2
-8 4 -11 255.37 29.4
-4 -4 11 260.47 35
-4 8 11 243.38 28.4
5 3 -11 473.45 39.3
3 -8 -11 368.36 43.1
-8 5 -11 464.75 40.1
-8 5 -11 465.45 39.8
-5 -3 11 422.46 43.9
-8 6 -11 288.77 30.9
6 2 -11 214.18 27.6
-8 6 -11 266.97 33.6
2 -8 -11 243.78 33
-6 -2 11 265.97 36.4
-6 -2 11 282.07 31.1
1 -8 -11 19.2 17.8
-8 7 -11 10 13.5
1 -8 -11 49.3 17.9
-8 7 -11 39.6 20.1
-7 -1 11 1.9 18.5
-7 -1 11 8.5 15
-8 8 -11 122.39 28.6
0 -8 -11 161.88 26.9
0 -8 -11 132.29 27.7
-8 0 11 108.29 21.9
-8 0 11 132.09 29.2
-1 -8 -11 199.98 32
-8 9 -11 138.29 30.7
-1 -8 -11 135.29 29.2
-9 1 11 154.98 31.7
-9 1 11 148.49 25.9
-2 -8 -11 41.9 24.3
-2 -8 -11 20.1 23.1
-8 10 -11 99.39 28.9
-10 2 11 43.4 20.1
-10 2 11 48.4 23.4
-3 -8 -11 36.6 27
-3 -8 -11 5.5 21.9
-8 11 -11 26.4 24.8
-11 3 11 25.9 21.8
8 -11 11 10.3 25.5
-9 -2 -11 197.88 43.4
-2 11 -11 198.48 35.6
2 -11 11 197.78 36.4
-11 9 11 216.58 38.9
-1 10 -11 111.99 27.8
-9 -1 -11 162.98 39
-10 9 11 138.19 32.7
1 -10 11 108.39 25.8
1 -10 11 141.09 40
9 -9 -11 40.8 20.9
-9 0 -11 22.1 26.2
0 9 -11 36.6 20.6
-9 9 11 15.8 21
0 -9 11 23.7 19.8
-9 1 -11 138.69 33.8
8 -9 -11 139.49 28.8
1 8 -11 140.09 26.4
-1 -8 11 202.18 31.8
-8 9 11 204.98 33.4
2 7 -11 463.95 41.7
-9 2 -11 499.65 50.49
7 -9 -11 451.35 47.4
-2 -7 11 329.67 42.8
-7 9 11 350.06 41.3
-9 3 -11 339.37 41.9
6 -9 -11 380.86 44.1
3 6 -11 310.47 34.4
-6 9 11 320.07 36.1
-3 -6 11 326.47 41.1
-9 4 -11 248.58 34
-9 4 -11 240.08 28.9
5 -9 -11 225.18 34.6
4 5 -11 212.78 28.4
-5 9 11 231.78 29.5
-4 -5 11 234.58 37.3
-9 5 -11 581.14 49
5 4 -11 556.24 45.2
-9 5 -11 607.24 48.9
4 -9 -11 518.95 53.49
-5 -4 11 605.24 55.49
-9 6 -11 311.27 35.8
6 3 -11 320.97 34.4
3 -9 -11 314.67 41.8
-9 6 -11 303.37 36.8
-6 -3 11 427.16 48.2
7 2 -11 49.99 18.5
2 -9 -11 31.8 22.6
-9 7 -11 67.39 22
-7 -2 11 21.9 22.7
-7 -2 11 62.89 19.2
1 -9 -11 42.3 23.1
-9 8 -11 37.8 22.5
-8 -1 11 22.1 17.3
-8 -1 11 44.3 25.2
-9 9 -11 21.2 22.3
0 -9 -11 16.2 22.5
-9 0 11 14.7 22.6
-9 0 11 24.9 18.6
-1 -9 -11 -10.9 21.8
-9 10 -11 2.9 22.5
-10 1 11 -0.4 21.4
-10 1 11 5.2 17.7
-2 -9 -11 9 24.7
-2 -9 -11 7.5 23.8
-9 11 -11 16 24.8
-11 2 11 1.1 21.6
-11 2 11 -33.5 16.4
0 10 -11 165.28 32
10 -10 -11 152.08 30.5
-10 0 -11 171.18 41.3
0 -10 11 136.59 29.4
-10 10 11 137.39 33.8
-10 1 -11 2.4 26.7
1 9 -11 -17.2 17
9 -10 -11 13.9 20.9
-9 10 11 -14 20.5
-1 -9 11 -21.3 17.7
-10 2 -11 57.49 28.8
2 8 -11 78.69 23.8
8 -10 -11 89.89 28.3
-2 -8 11 88.39 27.1
-8 10 11 72.89 25.6
3 7 -11 311.07 36
7 -10 -11 317.37 44.2
-10 3 -11 292.87 43.6
-7 10 11 356.26 40.9
-3 -7 11 336.57 43.2
6 -10 -11 474.15 54.09
-10 4 -11 560.84 54.69
4 6 -11 526.25 45.4
-6 10 11 494.65 47.1
-4 -6 11 526.45 54.99
5 5 -11 592.44 48.1
5 -10 -11 606.04 57.99
-10 5 -11 542.45 53.69
-10 5 -11 579.94 49.1
-5 -5 11 562.94 57.89
4 -10 -11 364.96 45.6
-10 6 -11 349.67 39.2
-10 6 -11 296.97 46
6 4 -11 318.27 35.7
-6 -4 11 299.37 43.4
-10 7 -11 62.69 24.2
7 3 -11 68.29 20.9
3 -10 -11 108.49 29
-7 -3 11 70.09 27.2
-10 8 -11 94.79 26.9
2 -10 -11 109.19 29.8
8 2 -11 112.39 24.1
-8 -2 11 147.39 34
1 -10 -11 85.09 30.3
-10 9 -11 159.38 32.2
-9 -1 11 123.89 32.9
-9 -1 11 103.29 24.7
0 -10 -11 155.48 35.4
-10 10 -11 167.18 35.2
-10 0 11 157.48 34.5
-10 0 11 135.99 28.1
9 -11 -11 -20.4 24.2
2 9 -11 -18.8 18.9
-11 2 -11 36 29.6
-9 11 11 -13.2 21.4
-2 -9 11 -13.4 21.9
3 8 -11 66.29 23.5
-11 3 -11 -15.5 25.4
8 -11 -11 -8.3 22.2
-3 -8 11 16.2 23.4
-8 11 11 44.4 24.1
7 -11 -11 121.99 32.3
-11 4 -11 90.59 31.4
4 7 -11 131.99 26.3
-4 -7 11 115.19 32
-7 11 11 53.59 24
5 6 -11 131.19 26.6
-11 5 -11 134.19 31.7
-5 -6 11 168.98 36.9
5 -11 -11 74.39 30.4
6 5 -11 41 20.1
-11 6 -11 115.09 25.7
-6 -5 11 55.39 28.5
7 4 -11 -2.6 16.3
4 -11 -11 -29.7 22.6
-11 7 -11 -30.2 16.7
-7 -4 11 -11.4 22.9
-11 8 -11 173.08 32.6
8 3 -11 109.49 26
3 -11 -11 182.18 37.9
-8 -3 11 65.99 30.9
2 -11 -11 153.48 37.4
-11 9 -11 165.68 35
9 2 -11 217.08 31.7
-9 -2 11 185.58 38.9
6 -12 -11 5.6 26.2
6 6 -11 -2.3 19.2
-6 -6 11 7.5 27.3
0 0 -12 9043.79 468.55
-1 0 -12 3086.79 160.58
0 1 -12 3096.89 161.98
-1 1 12 2901.71 160.98
1 0 -12 3161.48 165.18
-1 1 -12 3046 164.78
0 -1 -12 3079.29 163.48
-1 -1 -12 585.64 33.4
-1 2 -12 606.74 37.1
-1 -1 -12 555.34 37.7
-2 1 12 453.75 35.1
-2 -1 -12 142.29 19.1
-1 3 -12 125.79 16.9
-2 -1 -12 139.29 13.1
-3 2 12 228.28 19.4
0 2 -12 617.14 40.2
-2 0 -12 613.24 37.1
-2 2 12 614.04 38.8
-2 1 -12 589.94 35.8
1 1 -12 602.74 37.1
-2 1 -12 574.14 37.6
-1 2 12 475.55 34
0 -2 -12 624.44 37.8
0 -2 -12 682.43 42.3
-2 2 -12 639.04 41.2
-2 0 12 652.03 41.7
-2 3 -12 141.19 17.3
-1 -2 -12 122.99 11.6
-1 -2 -12 127.29 17.4
-3 1 12 123.09 16
-2 -2 -12 579.24 32.4
-2 4 -12 605.84 40.5
4 -2 -12 579.84 36.9
-2 -2 -12 542.95 41.2
-4 2 12 568.54 40.1
5 -3 -12 297.47 25.2
-3 -2 -12 298.37 31.5
-5 3 12 301.27 28.3
-3 -1 -12 640.64 48.4
4 -3 -12 690.33 44.2
-3 -1 -12 700.73 39.5
-4 3 12 703.63 46.3
-3 0 -12 530.95 33.2
0 3 -12 506.05 37.1
-3 3 12 553.64 36.8
-3 1 -12 120.39 16.8
1 2 -12 114.19 14.9
-3 1 -12 113.49 13.9
-2 3 12 109.39 14.3
-3 2 -12 132.69 16.7
-3 2 -12 152.18 18.9
1 -3 -12 159.98 17.2
2 1 -12 132.19 17.3
-2 -1 12 203.18 21.2
0 -3 -12 532.95 37.8
-3 3 -12 570.94 38.4
-3 0 12 483.85 36.3
-3 0 12 557.64 39.2
0 3 12 567.24 32.4
-3 4 -12 1022.2 60.09
-1 -3 -12 938.61 50.29
-1 -3 -12 966.5 59.39
-4 1 12 840.82 57.19
-4 1 12 926.41 58.59
5 -2 -12 149.99 16.6
-2 -3 -12 131.89 21.4
-3 5 -12 158.98 21.7
-5 2 12 174.08 20.7
-5 2 12 200.58 22.6
6 -3 -12 468.95 33.1
-3 6 -12 520.35 52.79
-3 -3 -12 463.95 42.2
-6 3 12 464.95 35.4
-6 3 12 471.05 38.4
-4 -3 -12 515.75 49.1
-3 7 -12 608.34 47
3 -7 12 597.04 48.6
-7 4 12 559.54 45.5
-7 4 12 541.15 39.5
-4 -2 -12 32.8 17.5
-2 6 -12 31.4 19.1
6 -4 -12 23.2 11.3
-6 4 12 43.8 15.5
5 -4 -12 1252.27 72.69
-5 4 12 1153.68 73.59
-4 0 -12 1516.45 79.59
4 -4 -12 1477.15 84.89
-4 4 12 1354.76 83.79
0 -4 12 1377.96 85.39
3 -4 -12 1007.8 60.29
-4 1 -12 967.9 60.79
-4 1 -12 922.71 56.09
-3 4 12 914.81 57.39
-4 2 -12 629.34 42
2 -4 -12 610.74 38.4
-4 2 -12 618.24 39.8
-2 4 12 510.45 37
-4 3 -12 682.93 45.1
1 -4 -12 650.23 43.6
-4 3 -12 653.33 45
-3 -1 12 725.53 48.4
-4 4 -12 1487.25 86.29
0 -4 -12 1457.35 84.69
0 4 12 1432.86 77.49
-4 0 12 1421.56 86.79
-4 5 -12 131.69 21.1
-1 -4 -12 155.38 21.8
-5 1 12 101.79 18.6
-4 6 -12 409.26 37.7
-2 -4 -12 333.67 36.7
-6 2 12 439.06 35.7
-6 2 12 419.26 39.2
-4 7 -12 1962.9 117.89
-3 -4 -12 2010.7 120.59
-7 3 12 1978.2 113.89
-7 3 12 1966.1 116.09
-4 -4 -12 1163.08 84.69
-4 8 -12 1179.88 81.99
-8 4 12 1290.77 81.39
-8 4 12 1220.78 75.49
4 -8 12 1331.77 86.29
-5 -4 -12 152.28 32.8
-4 9 -12 135.19 28.3
4 -9 12 173.98 32
-9 5 12 143.69 28
-5 -3 -12 233.28 34.8
-3 8 -12 203.88 30.5
3 -8 12 170.68 29.7
-8 5 12 204.98 30.5
-5 -2 -12 7.6 17.5
-2 7 -12 -12.4 14.7
7 -5 -12 2.2 11.7
2 -7 12 2 14.1
-7 5 12 -6.1 14.1
-1 6 -12 129.19 21.3
6 -5 -12 176.18 22.2
-5 -1 -12 133.19 24.7
-6 5 12 118.99 21.4
0 5 -12 877.61 56.69
-5 0 -12 802.92 59.39
5 -5 -12 843.82 57.19
-5 0 -12 848.22 49.99
0 -5 12 865.61 58.19
-5 5 12 901.81 57.49
4 -5 -12 165.58 16.6
-5 1 -12 151.58 23.4
4 -5 -12 161.08 22
1 4 -12 165.58 20.7
-5 1 -12 158.68 17.7
-1 -4 12 110.79 20.9
-4 5 12 130.89 19.1
-5 2 -12 161.08 21
3 -5 -12 170.48 22.9
3 -5 -12 163.78 17.7
2 3 -12 150.28 19.6
-5 2 -12 161.08 19.3
-3 5 12 193.28 20.8
2 -5 -12 275.47 24.1
2 -5 -12 352.46 30.9
-5 3 -12 252.47 26.9
-5 3 -12 316.07 27.6
3 2 -12 255.87 29.5
-3 -2 12 318.37 32
-2 5 12 280.47 23.9
-5 4 -12 1272.67 75.79
1 -5 -12 1235.08 73.29
-5 4 -12 1237.68 73.69
-1 5 12 1182.58 72.79
-4 -1 12 1202.78 78.09
-5 5 -12 851.11 54.69
0 -5 -12 831.22 56.59
-5 5 -12 884.01 58.59
-5 0 12 840.12 59.69
-1 -5 -12 5.9 14.7
-5 6 -12 48.3 17.5
-6 1 12 44.2 16.9
-6 1 12 16.7 12.9
-2 -5 -12 1302.57 81.99
-5 7 -12 1272.27 81.29
-7 2 12 1219.08 79.29
-7 2 12 1139.19 76.79
-5 8 -12 1753.32 108.29
-3 -5 -12 1712.23 109.59
-8 3 12 1745.13 105.59
-8 3 12 1722.83 104.19
-5 9 -12 885.61 67.59
-4 -5 -12 925.51 72.29
5 -9 12 1007.5 74.49
-9 4 12 864.01 65.39
-5 -5 -12 46.6 26.8
-5 10 -12 10.9 22.8
5 -10 12 12.1 23.8
-10 5 12 -1.4 19.5
-5 11 -12 100.79 31.4
-6 -5 -12 80.09 32.5
5 -11 12 74.69 30
-11 6 12 72.09 26.8
-4 10 -12 37.4 22.3
-6 -4 -12 106.99 31.7
4 -10 12 30.6 23.5
-10 6 12 73.19 25.5
-6 -3 -12 22.8 23.8
-3 9 -12 34.6 20.9
-9 6 12 52.19 21.9
3 -9 12 69.59 23.2
-2 8 -12 142.79 26.7
-6 -2 -12 177.58 33
8 -6 -12 142.89 28.5
-8 6 12 168.68 27.3
2 -8 12 132.19 26.7
-6 -1 -12 260.87 35.3
-1 7 -12 237.88 30.6
7 -6 -12 280.27 31
1 -7 12 212.48 28.6
-7 6 12 281.97 33.4
1 -7 12 230.08 30.2
-6 0 -12 138.69 24.7
6 -6 -12 140.19 23.1
0 6 -12 169.08 24
-6 6 12 128.99 23
0 -6 12 96.19 21.6
-6 1 -12 42.9 11.6
-6 1 -12 34.1 16.5
1 5 -12 20.1 13.2
5 -6 -12 18.3 14.8
-5 6 12 34.2 14.4
-1 -5 12 28.9 15.4
4 -6 -12 383.96 27.9
-6 2 -12 396.76 31.8
4 -6 -12 407.66 38.2
2 4 -12 362.36 33.4
-6 2 -12 382.86 36.9
-2 -4 12 448.16 39.5
-4 6 12 422.36 33.9
-6 3 -12 458.85 35.5
3 -6 -12 390.36 38.4
3 3 -12 429.46 34.5
3 -6 -12 433.56 31.1
-6 3 -12 408.56 36.3
-3 6 12 424.66 33.1
-6 4 -12 23.5 13.4
4 2 -12 30.9 13.6
2 -6 -12 32.6 12.5
2 -6 -12 39 16.1
-6 4 -12 18.9 14
-4 -2 12 75.79 20.4
-2 6 12 17.8 10
1 -6 -12 135.29 20.1
-6 5 -12 120.19 21.7
1 -6 -12 137.29 21.6
-6 5 -12 151.58 20
-5 -1 12 126.69 24.3
-5 -1 12 111.99 19.2
0 -6 -12 172.28 24.5
-6 6 -12 164.68 25.6
0 -6 -12 122.69 22.6
-6 6 -12 172.98 21.1
-6 0 12 124.99 21.7
-6 0 12 128.79 24.8
-1 -6 -12 343.07 36.5
-6 7 -12 344.47 30.1
-6 7 -12 303.17 37.5
-1 -6 -12 284.47 34.4
-7 1 12 295.27 32.5
-7 1 12 314.67 35.6
-6 8 -12 800.92 51.69
-2 -6 -12 738.83 60.19
-6 8 -12 778.22 61.29
-2 -6 -12 757.92 58.79
-8 2 12 707.33 57.69
-8 2 12 772.62 56.69
-3 -6 -12 667.13 55.99
-6 9 -12 729.03 59.29
-3 -6 -12 657.23 60.39
-9 3 12 662.13 54.49
-9 3 12 674.73 54.79
-6 10 -12 68.99 27
-4 -6 -12 81.29 23.9
-4 -6 -12 109.19 30.8
-10 4 12 68.89 23
6 -10 12 68.19 28.9
-5 -6 -12 41 29.7
-5 -6 -12 58.29 24.5
-6 11 -12 43.6 26.6
-11 5 12 58.59 25.2
6 -11 12 17.7 27.9
-4 11 -12 156.78 33.7
-7 -4 -12 175.38 40.1
4 -11 12 101.09 31.6
-11 7 12 158.88 33.6
-3 10 -12 136.69 28.9
-7 -3 -12 93.29 31.8
3 -10 12 92.29 28.5
-10 7 12 85.39 26.5
-7 -2 -12 309.87 45
-2 9 -12 282.57 37.8
2 -9 12 358.76 41.7
-9 7 12 363.96 42.9
8 -7 -12 231.38 30.9
-7 -1 -12 214.48 35.8
-1 8 -12 207.48 29.7
-8 7 12 245.58 34.3
1 -8 12 263.87 31.8
1 -8 12 228.88 31.5
0 7 -12 81.89 20.4
7 -7 -12 81.89 21.4
-7 0 -12 118.39 27.4
-7 7 12 82.49 20.8
0 -7 12 90.49 22.2
0 -7 12 114.39 21.3
1 6 -12 303.47 34.1
6 -7 -12 375.46 39.2
-7 1 -12 383.86 41.2
-1 -6 12 326.17 37.8
-6 7 12 385.46 37.3
-7 2 -12 1309.37 74.89
5 -7 -12 1250.37 82.59
2 5 -12 1295.97 77.99
-7 2 -12 1196.68 81.49
-5 7 12 1144.29 77.59
-2 -5 12 1260.17 83.69
-7 3 -12 1998.6 118.09
-7 3 -12 2043.7 113.79
4 -7 -12 1898.21 118.59
3 4 -12 1994.8 114.59
-3 -4 12 1956.8 121.09
-4 7 12 2028.9 114.39
3 -7 -12 543.95 47
-7 4 -12 514.05 43.1
-7 4 -12 536.35 43.1
4 3 -12 589.34 42.5
-4 -3 12 466.85 46.7
-3 7 12 583.44 40.3
-7 5 -12 5.6 14
2 -7 -12 -8.5 13.8
-7 5 -12 9.5 12.6
5 2 -12 8 12.5
2 -7 -12 -5.9 10.9
-5 -2 12 10.3 16.6
-7 6 -12 211.68 30.3
1 -7 -12 252.27 29.2
-7 6 -12 313.37 29.6
1 -7 -12 220.48 31.4
-6 -1 12 255.07 29.4
-6 -1 12 215.88 32.6
-7 7 -12 119.19 25.5
0 -7 -12 96.49 21.8
-7 7 -12 107.39 18.8
0 -7 -12 111.69 25.5
-7 0 12 109.99 25.7
-7 0 12 133.39 22.3
-1 -7 -12 23.1 19.5
-1 -7 -12 2.2 17.2
-7 8 -12 19.4 20
-8 1 12 23 16
-8 1 12 -8.2 16.2
-7 9 -12 109.49 28.4
-2 -7 -12 97.19 26.2
-9 2 12 117.89 25
-9 2 12 79.49 23.3
-3 -7 -12 0 23.1
-3 -7 -12 2.7 20.6
-7 10 -12 41.9 24
-10 3 12 9.3 19
-7 11 -12 -3.9 23.3
-4 -7 -12 49.7 24
-4 -7 -12 3 25.6
7 -11 12 -2.3 25.9
-11 4 12 -16.4 20.7
-8 -3 -12 8 29.6
-3 11 -12 50.29 25.3
-11 8 12 11 24
3 -11 12 69.19 27.6
-8 -2 -12 53.99 29.6
-2 10 -12 23.3 22.5
-10 8 12 67.59 26.2
2 -10 12 38.7 23.8
-8 -1 -12 313.87 46.5
-1 9 -12 277.47 36.3
9 -8 -12 281.77 42.1
-9 8 12 302.17 39.9
1 -9 12 330.17 39.3
1 -9 12 292.97 36.2
8 -8 -12 243.48 33.6
-8 0 -12 213.78 38.3
0 8 -12 230.18 32.1
-8 8 12 244.38 34.2
0 -8 12 254.67 34.7
0 -8 12 240.98 34.2
7 -8 -12 3.8 17.4
-8 1 -12 25.3 22.1
1 7 -12 26 16.2
-7 8 12 8.4 16.8
-1 -7 12 28.1 19.9
6 -8 -12 783.42 61.59
2 6 -12 776.12 56.09
-8 2 -12 805.82 62.79
-2 -6 12 715.33 61.39
-6 8 12 807.12 58.19
3 5 -12 1764.42 104.89
5 -8 -12 1717.33 110.59
-8 3 -12 1825.62 110.29
-8 3 -12 1740.63 102.89
-5 8 12 1756.92 105.39
-3 -5 12 1810.02 111.89
4 -8 -12 1181.48 83.09
-8 4 -12 1272.37 77.79
-8 4 -12 1228.48 80.49
4 4 -12 1180.98 77.29
-4 -4 12 1218.08 84.49
-4 8 12 1248.58 76.39
-8 5 -12 217.98 29.2
3 -8 -12 216.48 31.4
5 3 -12 266.97 30.2
-8 5 -12 214.28 29
-5 -3 12 242.58 36.1
6 2 -12 184.48 26.5
2 -8 -12 132.29 26.5
-8 6 -12 191.78 25.7
-8 6 -12 148.09 26.9
-6 -2 12 182.18 31.7
1 -8 -12 186.88 31.7
-8 7 -12 248.88 28
-8 7 -12 201.58 32.2
-7 -1 12 288.17 32.2
-7 -1 12 207.58 33.7
0 -8 -12 243.58 33.7
0 -8 -12 231.68 34.4
-8 8 -12 230.38 34.6
-8 0 12 176.28 28.5
-8 0 12 290.97 38.8
-1 -8 -12 68.69 24.1
-1 -8 -12 44.2 22.7
-8 9 -12 35.5 23.6
-9 1 12 19.7 21.7
-9 1 12 46.8 19.2
-8 10 -12 103.29 29.2
-2 -8 -12 68.29 26.6
-2 -8 -12 57.69 26
-10 2 12 92.39 27.4
-3 -8 -12 102.59 30.9
-3 -8 -12 122.99 31.8
-8 11 -12 97.79 31.8
-11 3 12 70.09 24.7
-2 11 -12 26.9 24.4
-9 -2 -12 9 30.7
2 -11 12 66.19 28.4
-11 9 12 20.4 25.2
-9 -1 -12 -3.2 27.3
-1 10 -12 11.3 21.5
1 -10 12 -1 17.3
-10 9 12 -2.4 21.2
0 9 -12 210.18 32.3
-9 0 -12 189.58 37.6
9 -9 -12 152.78 30.6
0 -9 12 144.39 28.6
-9 9 12 109.89 29.3
1 8 -12 40.2 20.5
-9 1 -12 37.7 27.7
8 -9 -12 64.79 23.7
-8 9 12 46.7 22.8
-1 -8 12 -1.1 18.1
2 7 -12 92.49 22.3
7 -9 -12 71.29 25.2
-9 2 -12 129.89 30.7
-2 -7 12 89.29 26.6
-7 9 12 62.19 22.9
-9 3 -12 723.73 60.49
3 6 -12 654.63 52.99
6 -9 -12 684.73 59.99
-3 -6 12 671.93 59.89
-6 9 12 702.63 54.79
5 -9 -12 870.01 70.29
-9 4 -12 904.91 67.89
-9 4 -12 869.71 61.79
4 5 -12 995.8 64.09
-4 -5 12 865.51 70.39
-5 9 12 929.21 63.99
-9 5 -12 167.48 26.6
4 -9 -12 127.29 29.7
5 4 -12 120.59 23.6
-9 5 -12 164.18 27.2
-5 -4 12 191.88 32.4
3 -9 -12 45.5 22.2
6 3 -12 59.49 18.9
-9 6 -12 44 20.1
-9 6 -12 54.99 20.5
-6 -3 12 17.6 20.9
-9 7 -12 282.87 37.1
7 2 -12 326.37 35.7
2 -9 -12 268.37 39.5
-7 -2 12 284.27 41
1 -9 -12 277.77 38.5
-9 8 -12 280.47 38.5
-8 -1 12 355.26 44.8
-8 -1 12 225.28 31.4
0 -9 -12 217.48 35.2
-9 9 -12 178.88 33.5
-9 0 12 156.08 28.1
-9 0 12 71.69 28.7
-1 -9 -12 126.09 31.9
-9 10 -12 146.49 33.2
-10 1 12 128.19 31.5
-10 1 12 150.38 28.9
-9 11 -12 121.99 33.4
-2 -9 -12 131.49 32.6
-11 2 12 60.49 24
-11 2 12 129.29 30.8
-10 0 -12 22.1 30.6
0 10 -12 5.3 22
-10 10 12 -8.3 23
0 -10 12 9.5 21.8
9 -10 -12 139.79 32.5
1 9 -12 158.58 29.8
-10 1 -12 141.19 36.4
-9 10 12 135.19 31.7
-1 -9 12 173.28 32
-10 2 -12 79.69 30.3
8 -10 -12 98.69 27.7
2 8 -12 80.49 23.6
-2 -8 12 95.49 28.9
-8 10 12 92.49 26.5
-10 3 -12 3.2 21.4
7 -10 -12 12.7 22.2
3 7 -12 -3 17.1
-7 10 12 23.3 19.5
-3 -7 12 8 21.8
-10 4 -12 106.29 27.9
6 -10 -12 100.89 29.3
4 6 -12 114.39 23.5
-6 10 12 76.19 29
-4 -6 12 81.69 28.2
5 5 -12 10.7 17
5 -10 -12 11.9 22.2
-10 5 -12 43.9 22.7
-10 5 -12 50.39 19
-5 -5 12 28.7 23.7
6 4 -12 47.5 19.3
-10 6 -12 49.4 21.9
4 -10 -12 17.7 24
-10 6 -12 63.29 22.9
-6 -4 12 60.89 26.4
-10 7 -12 146.39 30
3 -10 -12 112.49 30.4
7 3 -12 137.79 26.1
-7 -3 12 121.09 31.7
-10 8 -12 49.7 24.3
2 -10 -12 28.8 25
8 2 -12 69.29 21.8
-8 -2 12 75.49 29.1
1 -10 -12 0.1 22.7
-10 9 -12 -5.9 21.2
-9 -1 12 -13.6 17
-9 -1 12 -1.9 24
-10 10 -12 -7.6 23
0 -10 -12 -19 24.1
-10 0 12 0.2 24.7
-10 0 12 -21.7 17.4
-11 2 -12 125.69 36.5
2 9 -12 128.09 28.5
9 -11 -12 96.99 31.4
-9 11 12 73.69 28.3
-2 -9 12 69.39 28.5
-11 3 -12 90.69 33
3 8 -12 93.69 25.7
8 -11 -12 122.69 31.7
-3 -8 12 118.49 33
-8 11 12 104.59 28.7
4 7 -12 -5.5 18.9
-11 4 -12 13.8 26.3
7 -11 -12 23.2 24.6
-4 -7 12 6 24.6
6 -11 -12 34.3 27.2
5 6 -12 55.89 21.5
-11 5 -12 44.7 26.3
-5 -6 12 56.49 29.6
-11 6 -12 74.79 24.1
5 -11 -12 7.5 25.7
6 5 -12 53.59 22.4
-6 -5 12 54.29 29.3
7 4 -12 97.09 24.3
4 -11 -12 171.78 37.9
-11 7 -12 180.88 31.7
-7 -4 12 156.78 36.6
8 3 -12 18.1 20.1
3 -11 -12 -18.4 23.1
-11 8 -12 0.8 22.1
-8 -3 12 -11.5 26.8
-11 9 -12 26.7 25.3
9 2 -12 19.7 20.8
2 -11 -12 33.1 27.8
-9 -2 12 32 27.4
1 -1 -13 1190.48 69.49
-1 0 -13 1299.17 69.49
0 1 -13 1287.77 71.09
-1 1 13 1144.29 69.49
-1 1 -13 1289.67 71.69
1 0 -13 1238.08 71.69
0 -1 -13 1239.38 70.09
-1 2 -13 1481.95 85.19
-1 -1 -13 1492.95 81.99
-1 -1 -13 1521.95 86.29
-2 1 13 1511.95 84.89
-2 -1 -13 957 54.29
-1 3 -13 956.5 58.99
-2 -1 -13 938.21 60.49
-3 2 13 1029.9 59.39
-2 0 -13 1742.13 96.09
0 2 -13 1877.21 99.49
-2 2 13 1686.33 97.59
1 1 -13 1561.84 87.29
-2 1 -13 1507.35 85.89
-1 2 13 1558.04 85.39
-2 2 -13 1838.32 101.09
0 -2 -13 1828.12 97.79
0 -2 -13 1813.62 101.79
2 0 -13 1762.92 100.89
-2 0 13 1810.12 101.39
-1 -2 -13 346.77 23.1
-1 -2 -13 372.26 30
-2 3 -13 362.36 29.1
-3 1 13 361.26 28.7
-2 -2 -13 60.79 15.6
-2 -2 -13 46.9 7
-2 4 -13 22.8 11.6
-4 2 13 84.49 14.7
-3 -2 -13 735.93 51.99
5 -3 -13 677.93 45.4
-2 5 -13 742.43 51.69
-5 3 13 668.83 48.7
-3 -1 -13 45.4 15.8
-3 -1 -13 86.79 10.2
-1 4 -13 86.69 16.4
4 -3 -13 61.79 12.9
-4 3 13 86.79 15.4
0 3 -13 528.75 38.2
-3 0 -13 535.05 34.2
-3 3 13 553.04 37.3
-3 1 -13 418.26 31.8
1 2 -13 334.97 29
-3 1 -13 365.46 27.7
-2 3 13 391.16 27.7
-3 2 -13 995 59.69
1 -3 -13 921.51 57.39
-3 2 -13 1003.9 58.19
2 1 -13 920.81 57.89
-1 3 13 934.41 54.99
-3 3 -13 502.15 37.3
0 -3 -13 539.25 31.7
0 -3 -13 501.55 37.4
-3 0 13 502.45 37.1
-3 0 13 573.84 39.4
-3 4 -13 278.27 27.4
-1 -3 -13 273.17 26.7
-1 -3 -13 267.87 17.3
-4 1 13 229.88 24.9
-4 1 13 282.47 26.4
5 -2 -13 939.51 52.89
-2 -3 -13 971.4 60.79
-3 5 -13 905.81 59.29
-5 2 13 832.82 57.29
-5 2 13 776.52 55.39
-3 -3 -13 1118.79 72.49
-3 6 -13 1081.29 70.29
6 -3 -13 1090.99 65.19
-6 3 13 1064.69 65.89
-6 3 13 993.4 68.49
-4 -3 -13 806.22 62.89
-3 7 -13 765.92 59.29
-7 4 13 900.21 59.79
6 -4 -13 538.75 39.7
-4 -2 -13 492.75 44.5
-2 6 -13 562.24 43.7
-6 4 13 595.94 44.2
5 -4 -13 68.89 15.5
-5 4 13 97.09 18.2
4 -4 -13 94.49 16.7
-4 0 -13 97.89 12.4
-4 4 13 56.59 13.7
-4 1 -13 291.67 28.3
-4 1 -13 246.38 22.8
3 -4 -13 265.87 26.1
-3 4 13 250.97 24.1
2 -4 -13 61.49 12
-4 2 -13 36.1 11.4
-4 2 -13 34.4 13.2
-2 4 13 77.59 12.4
-4 3 -13 64.19 14.9
1 -4 -13 89.39 14.9
-4 3 -13 81.49 15.6
-3 -1 13 67.89 16.2
-4 4 -13 101.09 17.5
0 -4 -13 96.69 16.7
0 4 13 48.6 8.7
-4 0 13 38.3 13.9
-4 5 -13 1001.2 67.99
-1 -4 -13 1017.2 67.59
-5 1 13 1158.18 68.69
-4 6 -13 1449.46 88.19
-2 -4 -13 1421.66 89.09
-6 2 13 1394.86 85.89
-6 2 13 1378.46 85.49
-3 -4 -13 652.03 56.09
-4 7 -13 695.93 54.99
-7 3 13 735.13 50.89
-7 3 13 759.92 54.09
-4 8 -13 280.67 36.6
-4 -4 -13 299.07 40.7
-8 4 13 378.76 37.4
-8 4 13 372.46 39
-4 9 -13 489.25 46.3
-5 -4 -13 456.35 52.29
-9 5 13 411.66 44.7
4 -9 13 434.76 49.1
-5 -3 -13 439.96 50.69
-3 8 -13 469.55 47.5
3 -8 13 655.43 51.99
-8 5 13 626.34 49.5
-5 -2 -13 406.96 45.7
-2 7 -13 538.65 44.2
7 -5 -13 528.05 40.1
-7 5 13 483.15 43.9
6 -5 -13 107.59 19.4
-1 6 -13 125.69 20.7
-5 -1 -13 112.09 23
-6 5 13 71.59 18.6
5 -5 -13 182.28 24.3
0 5 -13 244.48 27
-5 0 -13 200.88 28.5
-5 5 13 213.08 25.9
0 -5 13 203.68 25.7
-5 1 -13 1047 62.59
-5 1 -13 1059.79 69.09
4 -5 -13 1043.4 68.59
1 4 -13 981 68.59
4 -5 -13 1014.9 61.79
-4 5 13 1127.09 66.99
-1 -4 13 1208.18 70.89
-5 2 -13 886.41 54.99
3 -5 -13 895.91 58.79
-5 2 -13 944.41 59.09
3 -5 -13 865.51 52.99
-3 5 13 812.42 54.49
-5 3 -13 738.33 49
-5 3 -13 771.02 49.99
2 -5 -13 691.03 45.7
2 -5 -13 731.03 50.89
-2 5 13 675.63 44.4
-3 -2 13 691.13 52.39
-5 4 -13 77.29 17.2
1 -5 -13 80.99 15.7
-5 4 -13 79.29 16.7
-4 -1 13 102.39 20
-5 5 -13 166.08 21.5
-5 5 -13 185.58 25.6
0 -5 -13 147.39 21.9
-5 0 13 163.38 24.7
-5 0 13 151.78 24.1
-5 6 -13 1138.29 73.59
-1 -5 -13 1038.1 71.59
-6 1 13 1126.59 70.19
-6 1 13 1097.79 72.59
-5 7 -13 658.13 53.29
-2 -5 -13 633.64 52.89
-7 2 13 640.04 49.6
-7 2 13 690.73 50.69
-5 8 -13 76.89 23.9
-3 -5 -13 84.59 24.7
-8 3 13 44.2 17.7
-8 3 13 49.99 17.2
-5 9 -13 261.47 37.6
-4 -5 -13 265.67 38.9
-9 4 13 244.08 33.8
-5 -5 -13 367.46 47.6
-5 10 -13 299.77 42.3
-10 5 13 383.16 43.1
5 -10 13 374.46 48.1
-6 -5 -13 135.89 37.5
-5 11 -13 131.99 32.2
-11 6 13 92.79 30.1
5 -11 13 71.49 30.5
-4 10 -13 141.59 31.1
-6 -4 -13 125.69 33.3
4 -10 13 169.78 34.2
-10 6 13 131.89 29
-3 9 -13 258.57 35
-6 -3 -13 183.78 36.6
3 -9 13 190.58 33.1
-9 6 13 186.68 31.6
-6 -2 -13 136.69 30.5
-2 8 -13 172.48 28.3
2 -8 13 239.48 32.1
-8 6 13 165.78 29.1
-1 7 -13 34.2 17.9
7 -6 -13 33.1 16
-6 -1 -13 36.2 20.3
-7 6 13 51.09 18.9
0 6 -13 203.38 26.2
6 -6 -13 264.37 30.3
-6 0 -13 244.58 33.2
0 -6 13 208.78 29
-6 6 13 216.38 28.3
5 -6 -13 1086.99 71.39
-6 1 -13 1098.79 69.49
-6 1 -13 1155.28 74.29
1 5 -13 1044.1 68.89
-1 -5 13 1145.99 73.79
-5 6 13 1018.1 68.89
4 -6 -13 1475.45 89.59
2 4 -13 1492.05 86.79
4 -6 -13 1432.16 81.09
-6 2 -13 1366.96 83.39
-6 2 -13 1459.75 89.49
-2 -4 13 1453.75 91.29
-4 6 13 1403.66 85.49
-6 3 -13 1154.38 69.19
-6 3 -13 1077.89 70.59
3 -6 -13 1123.09 65.59
3 3 -13 1135.39 69.29
3 -6 -13 1141.59 73.39
-3 -3 13 992.2 73.29
-3 6 13 1088.99 67.29
2 -6 -13 535.15 40
-6 4 -13 543.75 43.4
4 2 -13 605.44 43.1
2 -6 -13 579.74 46.2
-6 4 -13 564.74 44.1
-2 6 13 544.05 38.1
-4 -2 13 594.24 49
-6 5 -13 103.39 21.5
1 -6 -13 93.09 20.1
1 -6 -13 103.29 19
-6 5 -13 157.18 21.6
-5 -1 13 144.39 27.2
-5 -1 13 148.09 22.4
-6 6 -13 186.58 23.3
0 -6 -13 196.18 27.4
-6 6 -13 181.18 27.6
0 -6 -13 230.68 28.4
-6 0 13 163.98 24.2
-6 0 13 204.38 30.3
-6 7 -13 455.45 45.3
-1 -6 -13 474.15 43.4
-1 -6 -13 465.25 44.4
-6 7 -13 470.95 38.1
-7 1 13 477.25 41.2
-7 1 13 535.25 47.3
-2 -6 -13 381.76 40.8
-6 8 -13 385.36 43.7
-2 -6 -13 326.07 40.8
-6 8 -13 361.26 32.9
-8 2 13 373.36 39.2
-8 2 13 344.77 35.5
-6 9 -13 399.66 46.4
-3 -6 -13 461.75 46.2
-3 -6 -13 399.76 46.6
-9 3 13 338.77 40.1
-9 3 13 365.46 40.6
-6 10 -13 277.67 40.9
-4 -6 -13 347.07 46.8
-4 -6 -13 306.37 40.5
-10 4 13 344.17 41.1
-5 -6 -13 115.59 29.7
-6 11 -13 135.29 33.5
-5 -6 -13 184.98 40.5
-11 5 13 109.59 29.1
6 -11 13 122.69 34.7
-7 -4 -13 -23.7 26.1
-4 11 -13 16.4 24.6
4 -11 13 2.8 25.3
-11 7 13 12.5 24
-3 10 -13 11.5 22.1
-7 -3 -13 -15 23.8
3 -10 13 -8.6 20.9
-10 7 13 -5.8 21.5
-2 9 -13 5.7 19.7
-7 -2 -13 11.2 23
-9 7 13 5.5 19.3
2 -9 13 3.4 19
-7 -1 -13 91.19 28.1
-1 8 -13 54.69 20.9
8 -7 -13 84.29 21.4
1 -8 13 70.49 21.3
-8 7 13 87.19 22.5
1 -8 13 88.49 22.7
0 7 -13 314.87 35.1
7 -7 -13 314.87 36.7
-7 0 -13 356.96 42.7
-7 7 13 225.58 32.6
0 -7 13 265.87 34.6
6 -7 -13 432.86 43.3
1 6 -13 490.05 41.7
-7 1 -13 506.15 47.6
-1 -6 13 561.44 47.2
-6 7 13 452.15 41.7
-7 2 -13 674.83 54.49
2 5 -13 714.73 50.59
-7 2 -13 712.23 46.7
5 -7 -13 637.64 53.29
-2 -5 13 654.03 53.69
-5 7 13 658.43 50.29
3 4 -13 680.23 49.99
-7 3 -13 639.14 48.2
-7 3 -13 617.74 53.09
4 -7 -13 698.33 54.39
-3 -4 13 724.13 56.99
-4 7 13 797.72 50.49
3 -7 -13 893.41 64.29
-7 4 -13 930.21 60.19
4 3 -13 977 60.39
-7 4 -13 795.32 60.69
-3 7 13 854.21 58.79
-4 -3 13 849.22 65.99
2 -7 -13 486.95 44.8
-7 5 -13 468.85 39.3
-7 5 -13 459.05 42.3
5 2 -13 482.05 39.5
2 -7 -13 462.75 37.7
-5 -2 13 445.96 45.6
1 -7 -13 43.1 16.8
-7 6 -13 51.39 15.9
1 -7 -13 39.3 19.3
-7 6 -13 39.6 19.6
-6 -1 13 37.5 19.8
-6 -1 13 26.8 15.5
-7 7 -13 354.06 32.5
0 -7 -13 350.86 37.6
0 -7 -13 293.17 37
-7 7 -13 348.17 39.7
-7 0 13 293.27 34.9
-7 0 13 302.27 39.3
-1 -7 -13 477.35 47.2
-1 -7 -13 486.45 46.4
-7 8 -13 433.26 47
-8 1 13 451.75 42.2
-8 1 13 412.06 45.2
-7 9 -13 416.16 48.6
-2 -7 -13 374.46 45.5
-2 -7 -13 457.45 49.1
-9 2 13 526.25 48.6
-9 2 13 425.06 42.9
-7 10 -13 256.07 40.9
-3 -7 -13 214.38 38.1
-3 -7 -13 295.27 39.8
-10 3 13 316.17 38.3
-4 -7 -13 93.59 31
-4 -7 -13 79.89 27.6
-7 11 -13 23.1 25.6
-11 4 13 82.79 27.4
-8 -3 -13 60.19 33.6
-3 11 -13 69.69 27.1
-11 8 13 102.29 32.3
3 -11 13 76.79 29.4
-8 -2 -13 179.08 38.4
-2 10 -13 179.78 32.7
-10 8 13 166.78 32.7
2 -10 13 202.58 34.1
-8 -1 -13 64.39 28.9
-1 9 -13 74.99 23.9
1 -9 13 51.19 20.1
1 -9 13 21.4 19.2
-9 8 13 48 22.9
-8 0 -13 101.89 28.4
8 -8 -13 84.59 23.7
0 8 -13 84.89 22.1
0 -8 13 87.99 23.6
-8 8 13 149.88 28
-8 1 -13 421.06 48.6
1 7 -13 408.96 41.2
7 -8 -13 475.25 47.3
-7 8 13 440.26 43.3
-1 -7 13 434.86 44.9
-8 2 -13 333.77 40.7
6 -8 -13 365.36 43.1
2 6 -13 356.36 36.9
-2 -6 13 313.37 39.8
-6 8 13 405.76 39.2
-8 3 -13 61.69 16.3
-8 3 -13 53.29 21.8
3 5 -13 61.19 18.9
5 -8 -13 89.59 24.9
-5 8 13 56.39 17.8
-3 -5 13 55.69 23.4
4 4 -13 293.17 33.3
-8 4 -13 282.17 35.7
-8 4 -13 336.37 33.3
4 -8 -13 280.37 36.6
-4 -4 13 361.86 41.4
-8 5 -13 466.65 42.2
3 -8 -13 534.35 48.4
5 3 -13 498.45 42.1
-8 5 -13 413.56 42.1
-5 -3 13 599.34 51.39
2 -8 -13 116.49 26
6 2 -13 131.09 22.8
-8 6 -13 148.49 26.5
-8 6 -13 99.89 21.1
-6 -2 13 147.49 30.1
-8 7 -13 86.59 23.7
1 -8 -13 71.99 22.4
-8 7 -13 65.39 18.5
-7 -1 13 79.79 20.7
-7 -1 13 77.09 25
-8 8 -13 97.19 26.5
0 -8 -13 90.39 23.1
0 -8 -13 90.09 25.6
-8 0 13 102.69 26.8
-8 0 13 58.79 21.3
-8 9 -13 142.49 31.2
-1 -8 -13 91.69 25.9
-1 -8 -13 138.19 30.9
-9 1 13 58.89 25.1
-9 1 13 76.89 23
-8 10 -13 41.7 26.7
-2 -8 -13 48.4 26.1
-2 -8 -13 11.7 23.6
-10 2 13 59.19 22.3
-10 2 13 57.29 24.6
-8 11 -13 38.5 27.4
-3 -8 -13 54.59 29.2
-3 -8 -13 40.6 26.3
-11 3 13 -5.8 20.3
-9 -1 -13 174.68 39.3
-1 10 -13 140.39 30.4
-10 9 13 105.59 31.6
1 -10 13 156.58 29.6
-9 0 -13 -2.2 25.8
9 -9 -13 -2.6 17.6
0 9 -13 24.7 20.4
-9 9 13 13.4 21.8
0 -9 13 -12.8 18.6
8 -9 -13 119.09 28.4
1 8 -13 102.79 25.4
-9 1 -13 112.69 31.7
-8 9 13 75.29 24.7
-1 -8 13 114.29 28.9
-9 2 -13 401.76 48.2
2 7 -13 373.66 41.5
7 -9 -13 385.16 46.1
-7 9 13 430.66 44.3
-2 -7 13 435.26 47.7
-9 3 -13 426.86 45.5
3 6 -13 324.57 37.4
6 -9 -13 417.86 46
-6 9 13 399.56 40.3
-3 -6 13 271.97 41.7
5 -9 -13 269.77 38.4
4 5 -13 219.88 29.5
-9 4 -13 246.78 34.8
-9 4 -13 201.88 28.2
-4 -5 13 245.88 37.5
-9 5 -13 439.46 42.5
4 -9 -13 533.85 51.09
5 4 -13 420.26 42.4
-9 5 -13 451.55 46.4
-5 -4 13 434.36 49.2
6 3 -13 234.98 31.1
3 -9 -13 245.68 35.7
-9 6 -13 265.17 33.3
-9 6 -13 247.98 32.1
-6 -3 13 186.28 35
7 2 -13 11.3 17
-9 7 -13 29 20.8
2 -9 -13 15.5 20.3
-7 -2 13 -20.9 19.1
1 -9 -13 61.09 24.9
-9 8 -13 63.19 24.4
-8 -1 13 34.7 20
-8 -1 13 21.5 23.1
0 -9 -13 -12.8 21.1
-9 9 -13 -41 19.1
-9 0 13 23.1 18.8
-9 0 13 0.9 21.5
-1 -9 -13 -0.3 23.7
-9 10 -13 41.8 28.2
-10 1 13 -23.9 21.2
-10 1 13 27.4 20.8
0 10 -13 200.68 34.5
-10 0 -13 160.18 40.6
0 -10 13 168.18 33.4
-10 10 13 111.89 32.2
1 9 -13 -6.7 18.3
9 -10 -13 10.2 22.6
-10 1 -13 4 27
-1 -9 13 -5.5 20.1
-9 10 13 -1.9 21.8
8 -10 -13 47.6 24.5
2 8 -13 49.3 22.6
-10 2 -13 102.39 31.7
-2 -8 13 59.89 25.6
-8 10 13 32.3 22.5
-10 3 -13 221.58 38.9
7 -10 -13 291.67 42
3 7 -13 287.77 36.1
-7 10 13 386.06 42
-3 -7 13 232.08 41.1
4 6 -13 331.47 38.1
6 -10 -13 299.17 43.8
-10 4 -13 297.37 41.9
-4 -6 13 294.47 45.4
-10 5 -13 325.57 42.5
5 -10 -13 403.76 47.3
5 5 -13 331.17 39
-10 5 -13 349.27 38.8
-5 -5 13 376.96 48.6
4 -10 -13 166.58 35
-10 6 -13 95.79 25.5
-10 6 -13 140.99 27.8
6 4 -13 125.59 25.3
-6 -4 13 113.99 30.7
7 3 -13 -6.2 17.1
-10 7 -13 -13.4 19.2
3 -10 -13 12.5 22.6
-7 -3 13 -17.4 21.4
-10 8 -13 235.98 34.8
8 2 -13 194.28 30.9
2 -10 -13 137.49 33.4
-8 -2 13 195.88 38.1
-10 9 -13 117.89 30.5
9 1 -13 133.59 28.1
1 -10 -13 138.89 34.7
-9 -1 13 196.18 31.9
-9 -1 13 95.29 32
0 -10 -13 190.38 38.9
-10 10 -13 164.28 35.5
-10 0 13 200.28 39.5
-10 0 13 188.98 32.1
3 8 -13 44.8 23.7
8 -11 -13 43.9 27
-11 3 -13 43.7 30.9
-3 -8 13 7.4 26.5
-8 11 13 7.6 22
4 7 -13 12.1 20.8
7 -11 -13 72.69 29.2
-11 4 -13 106.49 31.5
-4 -7 13 4.1 26.1
6 -11 -13 96.49 31.3
-11 5 -13 160.78 34.3
5 6 -13 124.19 27.2
-5 -6 13 133.19 34.6
6 5 -13 124.19 26.2
-11 6 -13 78.89 23.8
5 -11 -13 45.9 28.2
-6 -5 13 60.09 30.2
4 -11 -13 15.6 25.8
7 4 -13 -3.1 17.9
-11 7 -13 29.7 22.1
-7 -4 13 -14.2 24.6
-11 8 -13 57.99 26.3
3 -11 -13 80.09 31.5
8 3 -13 59.49 23.3
-8 -3 13 70.99 31.2
0 0 -14 6 7.3
1 -1 -14 288.87 22.8
-1 0 -14 306.57 23.1
0 1 -14 273.07 24.1
0 -1 -14 266.67 21.5
1 0 -14 292.67 23.8
-1 1 -14 272.97 23.5
-1 -1 -14 815.72 45.5
-1 2 -14 824.42 49
-1 -1 -14 810.62 50.39
-2 1 14 613.64 47
-2 -1 -14 711.23 50.39
-2 -1 -14 728.43 43.8
-1 3 -14 772.42 49.5
-3 2 14 795.32 48.6
-2 0 -14 1102.79 62.19
0 2 -14 1144.09 65.59
-2 2 14 1008.4 63.49
-2 1 -14 775.22 46.2
1 1 -14 759.02 47.2
-1 2 14 682.03 44.8
-2 2 -14 1076.89 63.59
0 -2 -14 1114.09 60.39
2 0 -14 1054.59 63.69
0 -2 -14 1045.5 64.39
-2 0 14 1008.8 63.69
-1 -2 -14 2264.97 120.29
-1 -2 -14 2186.18 126.39
-2 3 -14 2217.68 125.69
-3 1 14 2375.56 126.19
-2 -2 -14 1938.81 108.39
-2 -2 -14 1978.2 116.79
-2 4 -14 2118.49 116.49
-4 2 14 2180.38 115.99
-3 -2 -14 899.91 64.89
-2 5 -14 917.51 62.99
5 -3 -14 955.5 59.49
-5 3 14 1104.89 64.09
4 -3 -14 286.97 25.2
-3 -1 -14 246.08 28.2
-3 -1 -14 250.47 19.4
-1 4 -14 270.37 27.9
-4 3 14 248.68 26.9
0 3 -14 476.35 35.9
-3 0 -14 450.15 31.1
-3 3 14 482.25 34.7
-3 1 -14 2311.47 125.09
1 2 -14 2213.38 126.89
-2 3 14 2343.27 125.19
2 1 -14 748.43 49.99
-3 2 -14 747.03 49.8
1 -3 -14 811.32 50.29
-3 2 -14 772.42 51.69
-1 3 14 849.41 47.7
0 -3 -14 448.96 35.5
0 -3 -14 474.85 30
-3 3 -14 456.75 35.7
-3 0 14 542.65 36.9
-1 -3 -14 1336.67 84.39
-3 4 -14 1395.96 84.79
-4 1 14 1532.15 84.79
-3 5 -14 1195.28 75.89
-2 -3 -14 1210.38 76.79
5 -2 -14 1141.39 69.19
-5 2 14 1299.97 75.09
-3 6 -14 208.28 28.7
-3 -3 -14 243.58 32
-6 3 14 298.57 30.5
-4 -3 -14 198.78 30.3
-3 7 -14 170.28 27.5
-7 4 14 213.08 29.3
-2 6 -14 413.86 38.9
6 -4 -14 449.56 35.5
-4 -2 -14 381.26 41.6
-6 4 14 536.05 40.6
-1 5 -14 559.84 40.2
5 -4 -14 435.16 35.7
-4 -1 -14 478.35 39.8
-5 4 14 381.16 36.4
-4 0 -14 420.46 29.4
4 -4 -14 419.66 34.2
-4 4 14 440.16 35.3
3 -4 -14 1420.86 85.39
-4 1 -14 1466.55 87.19
-4 1 -14 1391.56 81.99
-3 4 14 1512.95 84.29
2 -4 -14 2155.58 118.89
-4 2 -14 2160.88 122.29
-4 2 -14 2042 119.09
-2 4 14 2219.98 117.99
-4 3 -14 310.47 28.3
1 -4 -14 254.17 25.3
-4 3 -14 273.47 26.8
-1 4 14 270.57 24.3
-3 -1 14 271.77 29.4
-4 4 -14 461.95 37
0 -4 -14 456.75 35.5
-4 0 14 403.36 33.9
-4 0 14 432.06 37.3
-4 5 -14 586.14 47.5
-1 -4 -14 616.74 48.4
-5 1 14 683.43 48
-5 1 14 672.43 46.7
-4 6 -14 523.55 42.3
-2 -4 -14 427.06 40.5
-6 2 14 403.46 37.3
-6 2 14 415.86 37.9
-3 -4 -14 18.4 19
-4 7 -14 29.6 19.1
-7 3 14 18.9 13.4
-7 3 14 -11.2 13.1
-4 -4 -14 36.5 21.8
-4 8 -14 43.3 19.9
-8 4 14 37.3 18.2
-5 -4 -14 126.99 32
-4 9 -14 170.48 30.8
-9 5 14 139.69 28.3
-5 -3 -14 184.58 33
-3 8 -14 148.19 26.9
-8 5 14 122.19 25.8
-5 -2 -14 645.44 54.89
-2 7 -14 607.34 49.6
7 -5 -14 589.24 51.89
-7 5 14 628.44 50.39
-5 -1 -14 744.83 56.49
-1 6 -14 724.23 53.59
6 -5 -14 799.22 52.99
-6 5 14 700.63 53.59
0 5 -14 774.12 53.39
-5 0 -14 867.01 58.39
5 -5 -14 729.83 53.49
-5 5 14 691.83 52.09
-5 1 -14 559.54 40
-5 1 -14 612.74 47.4
4 -5 -14 566.34 45.6
1 4 -14 598.14 43.6
4 -5 -14 595.14 39.9
-4 5 14 662.93 44.7
-1 -4 14 688.33 48.8
-5 2 -14 1185.38 72.29
3 -5 -14 1204.28 76.49
3 -5 -14 1181.18 71.09
-5 2 -14 1211.98 76.69
-3 5 14 1294.97 72.79
-5 3 -14 884.61 60.69
2 -5 -14 936.51 62.99
2 -5 -14 849.12 58.29
-5 3 -14 919.11 61.69
-2 5 14 1072.39 57.89
-3 -2 14 1049.4 66.39
4 1 -14 489.05 38.2
1 -5 -14 480.65 36.3
-5 4 -14 424.46 38
-5 4 -14 424.46 35.9
-4 -1 14 407.46 38.2
-4 -1 14 421.36 38.5
-5 5 -14 848.82 56.59
0 -5 -14 857.61 55.19
-5 5 -14 786.82 52.19
-5 0 14 674.03 51.79
-5 0 14 692.73 55.39
-1 -5 -14 384.66 36.2
-5 6 -14 395.26 38
-6 1 14 285.07 33.9
-6 1 14 271.77 31.2
-2 -5 -14 123.29 25.2
-5 7 -14 120.49 24.2
-7 2 14 75.49 19.1
-7 2 14 104.89 22.1
-5 8 -14 11.6 18.6
-3 -5 -14 9.3 20
-8 3 14 13.3 15.9
-8 3 14 7.3 14.3
-5 9 -14 -5.9 18.4
-4 -5 -14 -38.1 18.8
-9 4 14 17.9 17.7
-5 10 -14 96.39 28.9
-5 -5 -14 81.89 31.4
-10 5 14 122.99 28.6
-6 -5 -14 113.09 36.9
-5 11 -14 94.39 31.2
-11 6 14 69.19 27
-6 -4 -14 284.87 45.3
-4 10 -14 265.47 39.5
-10 6 14 295.97 41.5
-6 -3 -14 217.08 37.5
-3 9 -14 163.08 30.9
-9 6 14 196.48 32.5
-6 -2 -14 216.38 36.7
-2 8 -14 223.68 33.1
-8 6 14 197.88 32
-6 -1 -14 579.94 51.39
7 -6 -14 585.24 47.5
-1 7 -14 616.24 49
-7 6 14 569.04 49.3
6 -6 -14 672.43 52.39
0 6 -14 670.13 52.19
-6 0 -14 657.13 56.29
-6 6 14 794.02 54.79
0 -6 14 755.02 55.49
5 -6 -14 326.97 35.4
-6 1 -14 373.36 38.3
1 5 -14 388.16 34.2
-1 -5 14 286.47 35.3
-5 6 14 280.37 32.6
4 -6 -14 442.86 40.2
4 -6 -14 434.66 32.3
2 4 -14 454.15 38
-6 2 -14 423.06 33.9
-6 2 -14 439.96 40.2
-4 6 14 418.26 36.3
-2 -4 14 450.25 41.9
3 -6 -14 290.37 25.5
3 3 -14 265.17 29.3
3 -6 -14 276.67 32.4
-6 3 -14 255.87 29.6
-6 3 -14 255.47 28.2
-3 6 14 256.57 26
-3 -3 14 284.17 32.4
-6 4 -14 484.65 39.2
-6 4 -14 441.06 39.1
2 -6 -14 484.35 36.5
2 -6 -14 429.66 41.2
4 2 -14 443.86 38.3
-4 -2 14 495.95 44.2
1 -6 -14 760.22 51.89
5 1 -14 723.43 51.69
1 -6 -14 698.23 54.49
-6 5 -14 784.32 51.79
-6 5 -14 748.43 54.09
-5 -1 14 662.63 51.29
-5 -1 14 682.63 56.49
0 -6 -14 777.62 54.69
-6 6 -14 719.13 51.39
-6 6 -14 681.23 55.39
0 -6 -14 701.53 55.39
-6 0 14 671.13 56.59
-6 0 14 796.32 53.69
-1 -6 -14 120.49 24.3
-6 7 -14 123.39 26.5
-1 -6 -14 145.19 26.8
-6 7 -14 142.79 22.1
-7 1 14 276.07 29.9
-7 1 14 203.08 29.6
-2 -6 -14 34.5 21.5
-2 -6 -14 32.9 19.9
-6 8 -14 17.4 21
-6 8 -14 52.49 15.9
-8 2 14 9.6 16.2
-8 2 14 11.5 15.5
-3 -6 -14 23.1 20.6
-3 -6 -14 13.6 21.6
-6 9 -14 10.3 19.9
-9 3 14 20.3 18.9
-9 3 14 17.1 17.6
-4 -6 -14 60.79 27
-4 -6 -14 83.19 25.6
-6 10 -14 59.69 27.7
-10 4 14 82.99 25
-6 11 -14 207.38 37.9
-5 -6 -14 199.58 34.7
-5 -6 -14 145.89 37.5
-11 5 14 130.39 32.6
-4 11 -14 206.98 38.1
-7 -4 -14 227.18 44.5
4 -11 14 226.48 40.1
-11 7 14 224.38 39.7
-3 10 -14 444.96 49.8
-7 -3 -14 381.36 52.89
-10 7 14 445.76 50.39
3 -10 14 424.66 49.8
-7 -2 -14 178.38 35.6
-2 9 -14 148.89 29.8
-9 7 14 202.28 34.2
-1 8 -14 43.2 20.9
-7 -1 -14 38.5 25.1
8 -7 -14 41.7 19.1
-8 7 14 58.29 22.2
7 -7 -14 304.87 37.2
0 7 -14 308.07 36.9
-7 0 -14 381.06 45.4
-7 7 14 382.06 39.7
0 -7 14 412.66 40.7
-7 1 -14 191.08 31.8
1 6 -14 127.59 23.1
6 -7 -14 137.59 26.5
-1 -6 14 233.98 31.9
-6 7 14 182.18 27
-7 2 -14 119.29 24.2
5 -7 -14 109.69 23.3
2 5 -14 82.49 19.4
-5 7 14 73.59 18.9
-2 -5 14 74.39 23.4
3 4 -14 11.7 14.7
-7 3 -14 -4.6 15.1
-7 3 -14 20.2 12.9
4 -7 -14 18.1 17.5
-3 -4 14 -5.4 14.9
-4 7 14 14.6 12.5
-7 4 -14 254.17 28.6
-7 4 -14 226.38 28.5
3 -7 -14 192.38 29.2
4 3 -14 193.28 25.3
-4 -3 14 202.58 30.6
-7 5 -14 638.34 50.99
-7 5 -14 611.44 48.9
2 -7 -14 575.04 51.99
5 2 -14 713.93 49.4
2 -7 -14 692.53 46.9
-5 -2 14 535.15 53.29
-7 6 -14 608.34 45.9
6 1 -14 604.94 46.6
-7 6 -14 576.84 50.29
1 -7 -14 582.04 50.89
1 -7 -14 628.64 47.2
-6 -1 14 511.85 51.99
-6 -1 14 505.65 45.7
-7 7 -14 312.87 39.2
0 -7 -14 280.17 35.9
0 -7 -14 330.77 39.6
-7 7 -14 336.47 33.9
-7 0 14 472.65 45.2
-7 0 14 381.36 37.2
-1 -7 -14 159.88 28.9
-7 8 -14 153.08 31.5
-1 -7 -14 136.39 27.9
-7 8 -14 159.88 35.2
-8 1 14 129.79 28.7
-8 1 14 119.19 25
-2 -7 -14 109.39 28.3
-7 9 -14 114.29 29.8
-2 -7 -14 125.89 28
-9 2 14 89.09 25.5
-9 2 14 114.29 25
-7 10 -14 105.59 30.4
-3 -7 -14 112.29 30.9
-3 -7 -14 103.59 28.5
-10 3 14 69.49 23.5
-7 11 -14 162.58 37.1
-4 -7 -14 159.38 33.7
-4 -7 -14 155.48 36.6
-11 4 14 144.59 32.4
-2 10 -14 186.68 34.7
-8 -2 -14 244.78 44.5
2 -10 14 235.18 36.9
-10 8 14 279.97 41.4
-8 -1 -14 -5.9 24.5
-1 9 -14 74.79 25
-9 8 14 16.4 22
-8 0 -14 94.29 29.8
0 8 -14 111.69 25.2
8 -8 -14 79.39 24
-8 8 14 89.69 25
0 -8 14 80.69 24.3
7 -8 -14 117.69 26.5
-8 1 -14 145.29 31.4
1 7 -14 113.29 24.8
-7 8 14 133.59 25.6
-1 -7 14 115.29 27.4
6 -8 -14 58.89 22
2 6 -14 39 18.9
-8 2 -14 83.49 25.5
-2 -6 14 6.2 19.3
-6 8 14 26.1 17
-8 3 -14 -9.1 17.2
5 -8 -14 -3.9 16.6
3 5 -14 17.7 16.5
-3 -5 14 -12.3 17.8
-5 8 14 19.5 14.9
4 -8 -14 15.5 18.6
-8 4 -14 60.89 20.7
4 4 -14 52.79 18.3
-8 4 -14 40.6 16.4
-4 -4 14 39 21.2
-8 5 -14 122.39 24.3
3 -8 -14 120.79 26.1
-8 5 -14 128.99 23.8
5 3 -14 101.79 21.2
-5 -3 14 114.59 28.6
6 2 -14 196.98 27.5
-8 6 -14 202.48 30.7
-8 6 -14 216.68 28.3
2 -8 -14 202.38 31.8
-6 -2 14 215.78 34.5
1 -8 -14 62.89 24.2
7 1 -14 67.29 20
-8 7 -14 43.2 21.5
-8 7 -14 68.99 19.1
-7 -1 14 69.89 21.2
-7 -1 14 36.8 22.5
0 -8 -14 104.79 26.6
-8 8 -14 123.19 29.2
0 -8 -14 97.49 28.4
-8 0 14 118.99 29.5
-8 0 14 108.09 23.9
-1 -8 -14 299.87 42.1
-1 -8 -14 266.17 38
-8 9 -14 288.27 41.4
-9 1 14 274.67 36.1
-9 1 14 325.67 42
-2 -8 -14 179.68 35.7
-8 10 -14 162.38 34.8
-2 -8 -14 167.58 34.4
-10 2 14 216.68 33.8
-10 2 14 166.48 33.4
-1 10 -14 134.79 30.5
-9 -1 -14 168.38 40.9
-10 9 14 139.79 32.4
-9 0 -14 207.98 42.9
0 9 -14 252.37 37.1
9 -9 -14 195.68 38.2
0 -9 14 320.57 40.7
-9 9 14 361.86 43.2
8 -9 -14 266.97 38.4
1 8 -14 279.57 36.7
-9 1 -14 232.88 41.6
-1 -8 14 300.67 40.4
-8 9 14 289.87 38.7
-9 2 -14 117.99 30.7
7 -9 -14 145.79 30.6
2 7 -14 133.39 26.8
-7 9 14 148.69 28.2
-2 -7 14 129.59 30.9
6 -9 -14 26.9 21.3
-9 3 -14 33.6 23.3
3 6 -14 10 17.5
-6 9 14 35.6 18.8
-3 -6 14 24.1 22.7
4 5 -14 -6.1 16.1
-9 4 -14 7.6 19.5
5 -9 -14 -10.2 19.1
-4 -5 14 8.9 21.6
4 -9 -14 162.68 32.1
5 4 -14 147.19 25.7
-9 5 -14 200.98 31
-9 5 -14 159.58 27.3
-5 -4 14 177.38 35.7
-9 6 -14 213.18 30.8
3 -9 -14 193.38 33.5
-9 6 -14 213.88 30.7
6 3 -14 147.39 27.1
-6 -3 14 184.28 36.5
-9 7 -14 165.68 29.7
2 -9 -14 182.28 32.1
7 2 -14 114.59 24.9
-7 -2 14 128.69 31.7
8 1 -14 40.8 20.2
1 -9 -14 28.8 23.6
-9 8 -14 50.69 24.5
-8 -1 14 51.39 25.8
-8 -1 14 96.19 24.4
-9 9 -14 270.77 41.1
0 -9 -14 241.78 40
-9 0 14 322.07 44.1
-9 0 14 361.46 40.4
-1 -9 -14 208.68 39.5
-9 10 -14 225.18 40.7
-10 1 14 310.27 43.4
-10 1 14 262.87 37.2
1 9 -14 193.28 34.9
-10 1 -14 273.87 45.5
9 -10 -14 288.67 40.7
-1 -9 14 240.38 38.8
-9 10 14 229.68 38.9
-10 2 -14 161.08 36.7
8 -10 -14 203.28 36.1
2 8 -14 202.78 32.3
-2 -8 14 164.18 34.6
-8 10 14 242.28 35.8
3 7 -14 125.79 27.2
-10 3 -14 126.59 32.6
7 -10 -14 107.09 30.7
-3 -7 14 134.69 32.5
-7 10 14 63.09 23.3
-10 4 -14 81.39 28.7
4 6 -14 96.49 24.8
6 -10 -14 50.09 26.2
-4 -6 14 163.48 36.6
-10 5 -14 86.79 26.8
5 -10 -14 100.09 29.1
5 5 -14 49.1 20.9
-5 -5 14 91.29 31.1
6 4 -14 262.67 34.5
4 -10 -14 313.07 43.3
-10 6 -14 303.17 38.3
-10 6 -14 231.58 34.6
-6 -4 14 205.98 39.2
3 -10 -14 375.76 48.2
7 3 -14 442.16 45.8
-10 7 -14 420.46 46
-7 -3 14 421.76 52.79
8 2 -14 256.37 35.1
-10 8 -14 225.28 36.5
2 -10 -14 242.48 39.9
-8 -2 14 173.18 37.3
-10 9 -14 144.79 32.9
1 -10 -14 134.79 35
9 1 -14 149.69 30.3
-9 -1 14 108.79 32.6
-9 -1 14 150.48 29.3
7 -11 -14 197.08 38.7
4 7 -14 185.18 32.8
-11 4 -14 149.99 36.6
-4 -7 14 157.78 37.4
5 6 -14 187.28 31.1
-11 5 -14 179.88 35.5
6 -11 -14 153.88 37.3
-5 -6 14 88.29 32.9
6 5 -14 51.79 23.6
5 -11 -14 77.69 29.5
-6 -5 14 81.99 34.2
4 -11 -14 261.77 42.3
7 4 -14 184.28 32.4
-11 7 -14 240.38 36.6
-7 -4 14 249.28 43.5
0 0 -15 -1 7.3
1 -1 -15 44.7 10.3
-1 0 -15 32.6 9.6
0 1 -15 34.3 10.9
0 -1 -15 50.29 10
-1 1 -15 43.8 11
1 0 -15 60.19 12.5
2 -1 -15 177.88 20.3
-1 -1 -15 180.28 18.1
-1 2 -15 244.08 22.5
-1 -1 -15 185.18 22.4
-2 1 15 231.18 21.8
-2 -1 -15 554.94 35.8
-1 3 -15 558.24 41.2
-2 -1 -15 591.44 43.3
-3 2 15 623.04 41.1
-2 0 -15 413.36 28.7
0 2 -15 388.26 31.7
-2 2 15 403.06 30.6
-2 1 -15 157.18 18.8
1 -2 -15 206.88 19
1 1 -15 195.18 21.3
-1 2 15 211.28 19.6
2 0 -15 403.16 30.8
0 -2 -15 385.96 32.3
0 -2 -15 365.86 26.9
-2 2 -15 405.56 30.7
-1 -2 -15 157.68 20.9
-2 3 -15 134.89 18.6
-1 -2 -15 154.78 14.3
-3 1 15 63.79 14.7
-2 -2 -15 270.77 30.3
-2 4 -15 341.37 31.1
-4 2 15 339.07 29.8
-3 -2 -15 978.8 67.89
5 -3 -15 1040.9 62.29
-2 5 -15 1034.3 66.29
-5 3 15 955.5 64.99
-3 -1 -15 2657.13 154.18
4 -3 -15 2697.53 150.48
-1 4 -15 2755.92 153.28
-4 3 15 2896.11 152.78
-3 0 -15 2484.55 131.69
0 3 -15 2353.56 135.39
-3 3 15 2461.35 134.79
1 2 -15 135.99 18.1
-3 1 -15 149.59 17.6
-2 3 15 102.89 15.8
1 -3 -15 599.74 42
-3 2 -15 555.74 41.5
2 1 -15 594.04 42.7
-3 2 -15 609.54 44.1
-1 3 15 681.23 39.7
0 -3 -15 2488.25 136.69
3 0 -15 2383.66 135.79
-3 3 -15 2462.95 136.19
0 -3 -15 2402.26 130.39
-3 0 15 2503.85 136.29
-1 -3 -15 365.06 33.5
-3 4 -15 401.66 34.5
-4 1 15 378.36 33.4
-2 -3 -15 38.2 17
-3 5 -15 29.8 16.8
5 -2 -15 54.69 12
-5 2 15 41.8 14.6
-3 -3 -15 157.78 26.7
-3 6 -15 164.08 25.9
-6 3 15 166.18 24.8
-4 -3 -15 21.9 19.2
-3 7 -15 0.7 15.8
-7 4 15 14.8 16.5
-4 -2 -15 524.85 46.3
6 -4 -15 470.15 37.6
-2 6 -15 495.35 41.2
-6 4 15 490.95 42.1
-4 -1 -15 1461.25 90.79
5 -4 -15 1504.05 86.79
-1 5 -15 1441.26 87.89
-5 4 15 1363.16 87.59
4 -4 -15 2532.25 143.69
0 4 -15 2531.95 144.19
-4 0 -15 2508.65 138.79
-4 0 -15 2651.53 149.09
-4 4 15 2701.03 144.19
1 3 -15 354.86 32.8
-4 1 -15 435.56 34.8
-4 1 -15 383.86 30.1
-3 4 15 379.36 31.7
2 2 -15 335.57 30.7
2 -4 -15 379.66 30.4
-4 2 -15 311.97 30.1
-4 2 -15 374.46 33.9
-2 4 15 393.96 28.5
-4 3 -15 2749.02 156.38
1 -4 -15 2851.41 156.18
3 1 -15 2823.02 156.68
-4 3 -15 2758.42 157.28
-3 -1 15 2991.2 160.38
-1 4 15 2865.31 151.78
0 -4 -15 2536.35 149.39
-4 4 -15 2644.74 150.98
-4 0 15 2734.13 150.28
-4 0 15 2865.61 152.98
-1 -4 -15 710.93 52.79
-4 5 -15 710.93 52.59
-5 1 15 662.43 51.39
-5 1 15 742.83 50.99
-4 6 -15 -7.7 15.3
-2 -4 -15 -7.1 14.2
-6 2 15 -7.1 11.5
-6 2 15 8.3 13.5
-4 7 -15 32.9 19
-3 -4 -15 -2.9 17
-7 3 15 -9.2 12.3
-7 3 15 21.8 16
-4 -4 -15 0.9 20
-4 8 -15 36.6 20.5
-8 4 15 17.7 18.4
-4 9 -15 15.2 21.2
-5 -4 -15 18.3 24.2
-9 5 15 13.6 19.1
-3 8 -15 49 21.4
-5 -3 -15 49.7 25.6
-8 5 15 26.2 19
-2 7 -15 39.7 18.4
-5 -2 -15 47.4 24.1
-7 5 15 32.8 17.5
-5 -1 -15 222.68 30.7
-1 6 -15 240.68 29.4
6 -5 -15 239.28 28.1
-6 5 15 233.38 29.8
0 5 -15 1299.27 77.09
5 -5 -15 1275.87 76.49
-5 0 -15 1214.08 79.89
-5 5 15 1057.29 74.49
1 4 -15 755.92 52.49
-5 1 -15 688.73 54.09
4 -5 -15 751.82 53.49
-5 1 -15 761.52 47.8
4 -5 -15 813.02 48.4
-1 -4 15 697.33 55.09
-4 5 15 719.03 51.19
-5 2 -15 48.9 17.4
-5 2 -15 37.1 13.4
2 3 -15 79.09 17.4
3 -5 -15 29.9 15
3 -5 -15 43.2 12.8
-2 -3 15 36 15.8
-3 5 15 37.6 13.3
-5 3 -15 908.11 62.19
2 -5 -15 980.6 59.69
3 2 -15 978.5 61.59
-5 3 -15 966 61.59
2 -5 -15 905.61 62.79
-3 -2 15 913.81 64.99
-2 5 15 915.61 56.79
1 -5 -15 1488.65 87.49
-5 4 -15 1530.65 89.79
-5 4 -15 1445.26 88.19
4 1 -15 1517.55 88.39
-4 -1 15 1321.77 90.79
-5 5 -15 1212.78 79.99
-5 5 -15 1351.66 77.89
0 -5 -15 1310.57 78.79
-5 0 15 1163.78 79.99
-5 0 15 1162.28 76.99
-1 -5 -15 173.08 26.5
-5 6 -15 174.98 28.1
-6 1 15 151.48 25.5
-6 1 15 104.79 20.6
-2 -5 -15 27.2 19.6
-5 7 -15 38.7 20
-7 2 15 9.6 13.4
-7 2 15 11.8 14.8
-5 8 -15 26.3 19.4
-3 -5 -15 -19.9 19.1
-8 3 15 1.7 16.6
-8 3 15 15.2 16
-5 9 -15 4.5 19.6
-4 -5 -15 -8.5 22.6
-9 4 15 22.8 19.1
-5 10 -15 46.9 26.1
-5 -5 -15 44.8 29.5
-10 5 15 39.8 24.3
-6 -5 -15 200.18 42.8
-5 11 -15 221.88 41.2
-11 6 15 213.28 37.6
-4 10 -15 36.9 24.8
-6 -4 -15 36.8 28.9
-10 6 15 52.29 25
-6 -3 -15 113.59 31.2
-3 9 -15 133.19 29.1
-9 6 15 108.69 28
-2 8 -15 370.16 43
-6 -2 -15 445.86 50.89
-8 6 15 416.16 43.8
-1 7 -15 221.08 31
-6 -1 -15 254.07 35
7 -6 -15 272.27 31.2
-7 6 15 198.18 30.4
6 -6 -15 21.8 15.4
-6 0 -15 -1.3 17.6
0 6 -15 19.8 17.1
-6 6 15 18.1 15.3
-6 1 -15 186.18 29.1
5 -6 -15 152.58 25
1 5 -15 178.38 25.5
-1 -5 15 151.88 27.2
-5 6 15 160.08 24.5
4 -6 -15 30 16.1
-6 2 -15 3.8 11
-6 2 -15 4.2 14.4
2 4 -15 0.9 12.3
4 -6 -15 5.8 16.3
-2 -4 15 -9 12.9
-4 6 15 -0.4 11.7
3 -6 -15 214.88 28.6
-6 3 -15 205.28 24.8
-6 3 -15 247.58 28.9
3 3 -15 191.38 25
3 -6 -15 201.28 22.7
-3 -3 15 153.88 27.9
-3 6 15 130.09 19.7
2 -6 -15 499.15 38.1
-6 4 -15 457.35 40.7
-6 4 -15 529.95 41.5
2 -6 -15 468.45 41.1
4 2 -15 445.66 38.2
-4 -2 15 431.56 44.1
5 1 -15 281.67 30.6
-6 5 -15 216.18 29.3
1 -6 -15 243.38 30.5
1 -6 -15 252.37 28.8
-6 5 -15 285.37 30.3
-5 -1 15 208.78 31.4
-5 -1 15 237.68 27.8
-6 6 -15 16.1 17.7
0 -6 -15 11.9 15.7
0 -6 -15 23.6 16.4
-6 6 -15 21.2 14
-6 0 15 -5.2 15.6
-6 0 15 27.5 15.8
-1 -6 -15 13.7 18.7
-6 7 -15 28.8 20.4
-6 7 -15 27.7 14.7
-7 1 15 -18 16.4
-7 1 15 34.3 16.5
-6 8 -15 58.99 23.8
-6 8 -15 54.69 16.9
-2 -6 -15 44.9 23
-8 2 15 76.99 21
-8 2 15 84.49 22.9
-6 9 -15 -4.9 21.7
-3 -6 -15 15.1 21.7
-9 3 15 23.2 19.6
-9 3 15 5.7 17.2
-6 10 -15 11.3 24.3
-4 -6 -15 25 25.3
-4 -6 -15 12.8 21.3
-10 4 15 3.7 20
-5 -6 -15 75.79 26.7
-6 11 -15 76.69 30.7
-5 -6 -15 52.19 30.7
-11 5 15 69.39 27.6
-3 10 -15 36.1 25.1
-7 -3 -15 40.4 28.7
-10 7 15 1.7 21.8
-7 -2 -15 796.72 66.89
-2 9 -15 602.54 57.29
-9 7 15 620.44 58.39
-1 8 -15 895.51 68.09
-7 -1 -15 957.4 75.59
-8 7 15 932.91 69.79
-7 0 -15 488.25 49.5
0 7 -15 425.66 42.3
7 -7 -15 428.86 42.7
-7 7 15 374.06 41.6
0 -7 15 372.06 43.5
6 -7 -15 4.3 16.4
1 6 -15 37.7 17.8
-7 1 -15 31.2 20.2
-6 7 15 2.3 15.5
-1 -6 15 10.5 17.5
-7 2 -15 14.9 17.8
2 5 -15 28.2 17.2
5 -7 -15 19 17.5
-5 7 15 23.2 15.5
-2 -5 15 27.4 19.4
3 4 -15 3.7 14.7
-7 3 -15 20.1 14.2
4 -7 -15 4.7 15.9
-7 3 -15 31 17.7
-4 7 15 12.8 13.2
-3 -4 15 10 18
-7 4 -15 12.3 14.8
3 -7 -15 17.2 18.1
-7 4 -15 14.8 15
4 3 -15 33.9 16.1
-4 -3 15 3.5 17.4
2 -7 -15 31.6 15.9
-7 5 -15 68.89 19.9
2 -7 -15 51.19 20.6
-7 5 -15 55.39 18.3
5 2 -15 50.89 18.1
-5 -2 15 64.29 23.1
-7 6 -15 307.67 36.3
1 -7 -15 225.68 29.4
-7 6 -15 208.48 27.6
1 -7 -15 297.37 35
6 1 -15 229.18 29.1
-6 -1 15 230.08 34.4
-6 -1 15 173.18 27.3
0 -7 -15 489.55 43.1
-7 7 -15 428.76 38.3
0 -7 -15 437.46 44.5
-7 7 -15 332.27 41.5
-7 0 15 388.86 39.6
-7 0 15 327.07 42.5
-1 -7 -15 80.79 25.2
-1 -7 -15 74.79 24.2
-7 8 -15 121.69 22.9
-7 8 -15 86.49 25.7
-8 1 15 86.69 22.6
-8 1 15 29.1 22.2
-7 9 -15 15.6 22.6
-2 -7 -15 10.7 21
-2 -7 -15 10.3 21.1
-9 2 15 -4.5 18.9
-9 2 15 18.4 18.7
-3 -7 -15 143.79 31.1
-7 10 -15 126.19 33.4
-3 -7 -15 90.99 30.4
-10 3 15 125.79 27.9
-2 10 -15 151.88 33.8
-8 -2 -15 178.28 38.9
-10 8 15 186.28 36.6
-1 9 -15 559.34 52.89
-8 -1 -15 554.34 60.39
-9 8 15 502.25 55.49
0 8 -15 634.24 52.99
8 -8 -15 630.64 54.29
-8 0 -15 658.53 61.89
-8 8 15 515.25 52.59
0 -8 15 531.55 53.69
7 -8 -15 61.29 23.4
-8 1 -15 89.19 27.8
1 7 -15 94.69 23.6
-7 8 15 97.59 24.4
-1 -7 15 62.79 24
6 -8 -15 44.1 21.1
-8 2 -15 14.3 21.3
2 6 -15 48.5 18.9
-6 8 15 57.69 19.8
-2 -6 15 37.4 22.2
3 5 -15 1.9 15.6
5 -8 -15 0.6 18.1
-8 3 -15 26 20.3
-5 8 15 16.4 16
-3 -5 15 -12.5 19.3
4 4 -15 25.7 17
-8 4 -15 37.3 16
-8 4 -15 3 17.5
4 -8 -15 27 19.8
-4 -4 15 -25.2 17.3
5 3 -15 74.49 20.2
3 -8 -15 49.1 22.5
-8 5 -15 66.19 19.9
-8 5 -15 46.5 20.1
-5 -3 15 57.09 24.3
6 2 -15 428.46 41.9
-8 6 -15 460.45 44
2 -8 -15 399.76 46.5
-8 6 -15 419.76 40.3
-6 -2 15 436.16 49.6
1 -8 -15 979.4 72.69
-8 7 -15 959.8 65.29
-8 7 -15 925.51 69.79
7 1 -15 923.11 66.29
-7 -1 15 887.91 73.39
-7 -1 15 879.91 66.09
0 -8 -15 623.24 56.19
-8 8 -15 530.85 53.49
-8 0 15 515.85 48.3
-8 0 15 532.65 56.19
-8 9 -15 44.3 26.6
-1 -8 -15 40.9 25
-1 -8 -15 40 22.8
-9 1 15 19.9 22.8
-9 1 15 77.19 24.7
-8 10 -15 129.59 34.4
-2 -8 -15 92.79 31.4
-2 -8 -15 46.1 28.3
-10 2 15 139.49 29.1
-10 2 15 136.79 30.4
-9 -1 -15 144.19 38.1
-1 10 -15 79.09 28
-10 9 15 95.89 30.5
0 9 -15 154.88 30.7
-9 0 -15 168.18 40.1
-9 9 15 190.88 35.8
0 -9 15 167.48 33
8 -9 -15 62.49 24.7
-9 1 -15 29.2 26.8
1 8 -15 32.8 21.4
-1 -8 15 67.89 25.3
-8 9 15 43.2 23.3
2 7 -15 -5.6 18.6
-9 2 -15 37.1 24.8
7 -9 -15 -16.3 18.4
-2 -7 15 52.09 24.3
-7 9 15 10.1 19.3
-9 3 -15 42.6 24
3 6 -15 21.2 18.9
6 -9 -15 45.3 22.6
-6 9 15 7.8 19.6
-3 -6 15 21.5 22.5
5 -9 -15 21.7 21.5
-9 4 -15 5 20.6
4 5 -15 3.7 17.1
-4 -5 15 -1.2 21.3
-9 5 -15 -14.6 18
-9 5 -15 17.6 17.1
4 -9 -15 -3.3 21.1
5 4 -15 19.4 18
-5 -4 15 25.9 23.6
3 -9 -15 154.78 32.1
-9 6 -15 115.39 27
6 3 -15 155.08 28.2
-9 6 -15 116.09 25.8
-6 -3 15 130.69 32.5
-9 7 -15 664.53 59.09
7 2 -15 738.83 58.19
2 -9 -15 662.73 62.69
-7 -2 15 878.01 69.99
-9 8 -15 532.45 52.29
1 -9 -15 525.95 54.29
8 1 -15 474.85 47.9
-8 -1 15 474.35 54.79
-8 -1 15 437.26 46.8
0 -9 -15 90.59 31.7
-9 9 -15 174.78 34.6
-9 0 15 177.68 31
-9 0 15 125.19 33.9
-9 10 -15 45.5 28.5
-1 -9 -15 64.49 29.7
-10 1 15 19.8 25.4
-10 1 15 62.59 24.8
-10 1 -15 47 30.1
9 -10 -15 92.09 28.2
1 9 -15 93.69 27.8
-1 -9 15 53.79 25.8
-9 10 15 55.09 27.2
2 8 -15 49.5 24.3
8 -10 -15 91.19 29
-10 2 -15 84.19 32.6
-2 -8 15 132.29 32
-8 10 15 85.19 26.2
3 7 -15 174.38 30.9
7 -10 -15 154.08 34
-10 3 -15 98.29 33
-3 -7 15 110.09 31.5
-10 4 -15 5.2 23
6 -10 -15 -2 22.2
4 6 -15 -8 17.8
-4 -6 15 5.8 24.7
5 -10 -15 69.69 27.8
5 5 -15 27.6 21.4
-10 5 -15 64.29 25.7
-5 -5 15 63.89 29.4
6 4 -15 20 21.4
-10 6 -15 37.1 21.8
4 -10 -15 38.9 25.1
-10 6 -15 55.79 24.3
-6 -4 15 56.89 27.8
7 3 -15 -5.9 18.7
-10 7 -15 -7.6 19.6
3 -10 -15 -25 20.3
-7 -3 15 -6.9 24.6
2 -10 -15 128.89 32.8
8 2 -15 96.89 26.8
-10 8 -15 137.69 30.4
-8 -2 15 152.48 37.4
-10 9 -15 125.79 33.2
1 -10 -15 57.99 29.1
9 1 -15 115.59 28.4
-9 -1 15 84.09 26.6
-9 -1 15 146.99 34.7
-11 5 -15 83.79 29.9
5 6 -15 24 22.8
6 -11 -15 87.39 30
-5 -6 15 50.39 31.3
5 -11 -15 164.58 36.3
6 5 -15 199.28 33.4
-6 -5 15 166.38 39.7
0 0 -16 4.4 8.2
-1 0 -16 65.29 12.5
1 -1 -16 67.49 12.9
0 1 -16 63.49 13.6
0 -1 -16 55.69 12
1 0 -16 74.49 13.9
-1 1 -16 74.99 13.8
-1 -1 -16 274.37 27.8
2 -1 -16 296.67 25.9
-1 2 -16 295.87 26.6
-1 -1 -16 234.28 21.7
-2 1 16 284.97 26.3
-2 -1 -16 887.91 50.69
-1 3 -16 897.01 56.59
-2 -1 -16 820.22 57.59
-3 2 16 792.32 55.09
-2 0 -16 395.86 29.9
0 2 -16 475.35 34.5
-2 2 16 376.06 31.5
1 -2 -16 287.47 24
1 1 -16 308.67 27.1
-2 1 -16 259.57 24.9
-2 2 -16 466.35 34.5
2 0 -16 451.75 34.7
0 -2 -16 435.36 30.5
0 -2 -16 452.45 36.6
-2 3 -16 1270.87 79.29
-1 -2 -16 1325.17 81.09
-1 -2 -16 1392.76 74.09
-3 1 16 1288.97 79.19
-2 4 -16 1210.98 79.59
-2 -2 -16 1231.78 80.79
-4 2 16 1487.05 80.79
-3 -2 -16 570.44 47.4
5 -3 -16 572.44 40.7
-2 5 -16 558.94 45
-5 3 16 542.05 43.5
-1 4 -16 381.46 34.6
-3 -1 -16 288.87 33.5
-4 3 16 401.26 33.4
0 3 -16 663.43 47.1
-3 0 -16 709.83 42.6
-3 3 16 604.84 44.9
-3 1 -16 1377.76 77.39
1 2 -16 1373.76 80.19
-2 3 16 1242.78 76.99
-3 2 -16 874.91 57.19
1 -3 -16 861.11 51.19
2 1 -16 821.62 55.19
-3 2 -16 890.11 54.89
1 -3 -16 858.61 55.39
-1 3 16 785.02 51.19
3 0 -16 709.23 47.9
-3 3 -16 693.43 47.8
0 -3 -16 718.23 41.5
0 -3 -16 677.63 48.2
-3 0 16 590.54 46.7
-1 -3 -16 832.42 57.49
-3 4 -16 846.32 57.39
-4 1 16 867.11 56.89
-3 5 -16 903.91 62.79
-2 -3 -16 879.01 63.29
-5 2 16 968.9 62.09
-3 6 -16 292.07 35
-3 -3 -16 333.37 38.1
-6 3 16 334.47 34.4
-4 -3 -16 132.69 28.2
-3 7 -16 133.29 26.1
-7 4 16 174.78 27.1
-2 6 -16 293.47 34
6 -4 -16 307.07 30.6
-4 -2 -16 267.87 34.8
-6 4 16 271.17 32.5
5 -4 -16 279.07 29.5
-1 5 -16 295.77 31.9
-4 -1 -16 303.07 35.2
-5 4 16 267.17 30.7
4 -4 -16 226.98 26.4
-4 0 -16 238.38 29.4
0 4 -16 221.78 26.4
-4 4 16 214.98 25.8
1 3 -16 766.22 55.09
3 -4 -16 775.02 52.49
-4 1 -16 898.91 58.29
-4 1 -16 858.11 52.39
-3 4 16 831.62 53.39
2 2 -16 1240.78 79.09
-4 2 -16 1352.16 81.79
2 -4 -16 1287.17 77.99
-4 2 -16 1251.87 77.59
-2 4 16 1404.36 76.59
-4 3 -16 309.07 30.8
-4 3 -16 332.87 31.2
3 1 -16 362.46 32.2
1 -4 -16 320.27 30.7
-1 4 16 343.27 26.3
4 0 -16 234.18 25.9
-4 4 -16 252.17 28
0 -4 -16 180.48 24.8
-4 4 -16 222.58 27
-4 0 16 212.48 26.4
-1 -4 -16 453.05 40.6
-4 5 -16 448.96 40.2
-5 1 16 395.26 37.4
-2 -4 -16 188.78 28.9
-4 6 -16 222.08 30.2
-6 2 16 214.58 28.2
-3 -4 -16 122.69 27.2
-4 7 -16 110.59 25.6
-7 3 16 70.09 20.4
-4 -4 -16 15.1 21.7
-4 8 -16 38.8 21.1
-8 4 16 13.1 18
-4 9 -16 104.79 28.1
-5 -4 -16 130.89 33.9
-9 5 16 161.18 31.4
-5 -3 -16 85.29 28.5
-3 8 -16 145.89 28.6
-8 5 16 105.39 25
-2 7 -16 717.53 56.79
-5 -2 -16 798.62 62.99
-7 5 16 694.13 57.29
6 -5 -16 981.5 66.19
-1 6 -16 1036.7 67.49
-5 -1 -16 992.9 71.89
-6 5 16 978.7 68.49
5 -5 -16 562.74 44.6
-5 0 -16 501.85 45.2
0 5 -16 546.65 44.2
-5 5 16 557.94 43.9
-5 1 -16 449.76 40.5
-5 1 -16 396.16 43.2
4 -5 -16 452.35 32.9
1 4 -16 401.16 37
-4 5 16 384.96 35.4
-5 2 -16 879.51 59.09
3 -5 -16 894.61 58.59
-5 2 -16 1014.9 64.99
2 3 -16 905.81 61.49
3 -5 -16 955.4 63.49
-2 -3 16 1002.4 66.39
-3 5 16 914.61 59.39
3 2 -16 563.54 43.8
2 -5 -16 559.84 42.2
-5 3 -16 584.14 45.8
-5 3 -16 568.14 43.2
-2 5 16 581.54 39.2
-3 -2 16 598.64 48.3
-5 4 -16 255.67 30.3
4 1 -16 289.87 30.2
-5 4 -16 286.57 31.4
1 -5 -16 316.37 30.6
-4 -1 16 247.98 31.7
-5 5 -16 561.24 46.6
0 -5 -16 520.15 44.5
-5 5 -16 525.45 43.4
-5 0 16 601.04 45.2
-5 0 16 589.44 48.3
-5 6 -16 204.38 30.3
-1 -5 -16 166.68 27.6
-6 1 16 174.48 25.3
-6 1 16 194.58 28.1
-5 7 -16 52.29 22.2
-2 -5 -16 38.3 20.9
-7 2 16 73.79 19.7
-7 2 16 71.79 19.7
-3 -5 -16 17.6 21.5
-5 8 -16 23.3 20.9
-8 3 16 18.3 16.5
-8 3 16 37.6 20
-4 -5 -16 61.49 27.5
-5 9 -16 65.59 25.2
-9 4 16 38.1 22.2
-5 10 -16 165.58 34.8
-5 -5 -16 101.49 34.3
-10 5 16 179.28 33.5
-6 -4 -16 308.17 46.6
-4 10 -16 233.78 38.9
-10 6 16 245.08 38.9
-6 -3 -16 188.58 37.1
-3 9 -16 240.28 37.3
-9 6 16 215.68 33.9
-2 8 -16 355.46 40.7
-6 -2 -16 292.67 43.4
-8 6 16 300.87 38.9
-6 -1 -16 583.04 54.29
7 -6 -16 574.84 46.9
-1 7 -16 549.85 48.9
-7 6 16 548.85 48.9
0 6 -16 759.92 53.59
6 -6 -16 682.43 52.49
-6 0 -16 689.83 56.99
-6 6 16 546.25 49.99
5 -6 -16 199.08 27.4
1 5 -16 168.58 25.6
-6 1 -16 221.48 31.6
-5 6 16 230.08 27.3
-1 -5 16 172.28 29.6
2 4 -16 165.68 24.8
-6 2 -16 222.98 25.3
4 -6 -16 253.37 31.6
-6 2 -16 264.57 31.8
-2 -4 16 217.18 29.8
-4 6 16 185.08 24.5
3 -6 -16 322.37 28.6
-6 3 -16 309.97 34.7
3 3 -16 329.57 32.9
-6 3 -16 301.17 31.5
3 -6 -16 298.87 35.2
-3 -3 16 305.97 38.2
-3 6 16 295.37 29.4
-6 4 -16 340.67 34.7
-6 4 -16 324.27 34.1
2 -6 -16 335.07 31.2
4 2 -16 310.07 32.8
2 -6 -16 314.87 36
-4 -2 16 231.88 34.3
-6 5 -16 1004.8 69.59
1 -6 -16 1001.6 67.39
5 1 -16 1041.4 68.29
-6 5 -16 1049.79 68.29
1 -6 -16 1058.79 71.79
-5 -1 16 949.6 72.09
-6 6 -16 653.23 48.6
0 -6 -16 690.63 53.69
-6 6 -16 655.33 53.29
0 -6 -16 784.92 53.09
-6 0 16 544.05 48.3
-6 0 16 495.25 52.09
-6 7 -16 299.67 38.6
-1 -6 -16 247.78 34.9
-6 7 -16 288.77 31.9
-7 1 16 277.17 33.9
-7 1 16 292.77 36.8
-6 8 -16 42.3 23.8
-6 8 -16 48.2 17.7
-2 -6 -16 18.6 20.6
-8 2 16 21.2 18.8
-8 2 16 17.6 17.1
-3 -6 -16 13.9 22.7
-6 9 -16 50.29 26.2
-9 3 16 11.2 18.6
-4 -6 -16 33.2 26.7
-6 10 -16 63.19 28.9
-10 4 16 52.49 23.9
-3 10 -16 312.97 43.6
-7 -3 -16 330.47 49.2
-10 7 16 287.37 42.3
-7 -2 -16 110.89 32.7
-2 9 -16 157.48 30.8
-9 7 16 113.09 28.8
-7 -1 -16 51.19 27.3
-1 8 -16 64.19 23.5
-8 7 16 70.59 24.5
0 7 -16 406.06 43.3
7 -7 -16 372.86 42.4
-7 0 -16 397.16 48.8
-7 7 16 540.85 45.8
1 6 -16 340.17 36.2
-7 1 -16 242.38 35.6
6 -7 -16 246.68 33.8
-1 -6 16 233.38 34.1
-6 7 16 241.98 32.2
2 5 -16 57.19 19.3
5 -7 -16 38.2 19.1
-7 2 -16 54.79 22.3
-2 -5 16 66.49 22.9
-5 7 16 72.99 18.8
-7 3 -16 54.89 17.1
4 -7 -16 52.09 20.3
-7 3 -16 81.89 22.8
3 4 -16 75.39 20.2
-4 7 16 85.19 22.5
-3 -4 16 86.99 25.3
4 3 -16 111.59 22.7
-7 4 -16 178.88 27.4
3 -7 -16 174.08 29.7
-7 4 -16 133.79 23.4
-4 -3 16 196.58 33.2
-7 5 -16 738.93 54.69
5 2 -16 733.43 54.59
-7 5 -16 719.93 54.49
2 -7 -16 668.23 57.59
-5 -2 16 648.64 58.99
6 1 -16 659.73 50.99
-7 6 -16 653.73 50.09
1 -7 -16 557.84 52.59
1 -7 -16 611.84 49.2
-7 6 -16 643.14 53.99
-6 -1 16 543.55 47.7
-6 -1 16 631.14 55.89
0 -7 -16 471.95 45.7
-7 7 -16 474.75 42.1
0 -7 -16 477.95 48.2
-7 7 -16 352.06 44.1
-7 0 16 524.35 44.8
-7 0 16 392.06 47.5
-1 -7 -16 319.87 40.6
-1 -7 -16 241.78 35.6
-7 8 -16 213.98 28.3
-7 8 -16 201.98 34.4
-8 1 16 246.88 36.6
-8 1 16 223.98 33.7
-2 -7 -16 117.29 30.7
-7 9 -16 107.79 29.7
-2 -7 -16 170.28 32.5
-9 2 16 116.59 28.2
-9 2 16 109.19 27.6
-7 10 -16 197.38 38.1
-3 -7 -16 183.68 34.8
-3 -7 -16 175.78 36.6
-10 3 16 144.99 31.1
-2 10 -16 141.59 33.3
-8 -2 -16 120.29 38.4
-10 8 16 162.58 34.8
-8 -1 -16 30.9 27.3
-1 9 -16 77.39 25.9
-9 8 16 51.69 25.5
0 8 -16 134.99 29.5
-8 0 -16 176.88 36.2
8 -8 -16 141.89 29.2
-8 8 16 171.58 31.5
1 7 -16 246.38 32.9
7 -8 -16 237.28 35
-8 1 -16 204.48 36.4
-7 8 16 235.28 34.1
-1 -7 16 281.67 39
6 -8 -16 18 20.8
-8 2 -16 7.3 20.3
2 6 -16 3.5 17
-6 8 16 37.7 19
-2 -6 16 46.2 23.2
-8 3 -16 27.5 20.8
5 -8 -16 53.69 22
3 5 -16 11 18.2
-3 -5 16 44.2 22.9
4 -8 -16 16.2 20
-8 4 -16 23.3 19.9
-8 4 -16 22.1 16.6
4 4 -16 22.8 17.9
-4 -4 16 14.6 20.7
5 3 -16 113.79 23.8
-8 5 -16 122.69 25.6
3 -8 -16 142.59 28.4
-8 5 -16 160.78 26.6
-5 -3 16 87.39 27.3
2 -8 -16 309.47 39.9
-8 6 -16 307.27 38
-8 6 -16 327.97 38
6 2 -16 313.17 37.4
-6 -2 16 298.07 43.5
-8 7 -16 61.29 24.2
-8 7 -16 84.19 21.4
7 1 -16 45.1 20.6
1 -8 -16 82.19 26.5
-7 -1 16 65.09 21.5
-7 -1 16 72.19 26.2
-8 8 -16 167.28 33.2
0 -8 -16 157.98 32.7
-8 0 16 145.39 28.3
-8 0 16 159.48 33.4
-8 9 -16 245.88 41.7
-1 -8 -16 308.77 41.3
-1 -8 -16 275.57 41.4
-9 1 16 290.97 42.1
-9 1 16 269.77 37
-8 10 -16 230.68 41.1
-2 -8 -16 223.48 39.2
-2 -8 -16 192.98 36.9
-10 2 16 161.28 34.4
-10 2 16 246.68 37.3
0 9 -16 185.78 35.1
-9 0 -16 294.67 47.9
-9 9 16 218.78 37.3
8 -9 -16 215.68 35.3
-9 1 -16 249.38 43.2
1 8 -16 202.58 34.3
-8 9 16 265.27 38.4
-1 -8 16 243.48 38.5
-9 2 -16 89.99 29.6
7 -9 -16 141.49 31.7
2 7 -16 120.69 27.7
-7 9 16 123.49 28
-2 -7 16 101.79 29.8
-9 3 -16 15 22.1
6 -9 -16 8.6 21
3 6 -16 -2.3 18.7
-3 -6 16 50.79 25.9
-9 4 -16 49.6 23.7
5 -9 -16 31.3 22.7
4 5 -16 24 18.8
-4 -5 16 61.39 27.2
-9 5 -16 139.29 26.1
4 -9 -16 147.59 31.5
5 4 -16 106.49 25.2
-9 5 -16 144.79 29.6
-5 -4 16 177.58 35.3
3 -9 -16 258.07 38.5
-9 6 -16 302.87 36.5
-9 6 -16 273.37 36.4
6 3 -16 236.08 32.8
-6 -3 16 241.18 40.8
-9 7 -16 136.59 29.6
2 -9 -16 80.39 27.6
-9 7 -16 160.88 30.5
7 2 -16 120.49 26.5
-7 -2 16 63.39 28.5
-9 8 -16 136.49 30.5
8 1 -16 110.19 27.2
1 -9 -16 70.99 27.2
-8 -1 16 37.8 26.7
-8 -1 16 73.39 25.2
0 -9 -16 299.47 43.9
-9 9 -16 228.88 39.9
-9 0 16 196.78 37.8
-9 0 16 220.18 34.9
-10 2 -16 211.28 40.9
2 8 -16 176.48 33.1
8 -10 -16 145.99 34.9
-8 10 16 241.18 37
-2 -8 16 142.89 33.6
-10 3 -16 136.49 33.4
3 7 -16 175.18 32
7 -10 -16 135.09 33.4
-3 -7 16 167.18 36.3
-10 4 -16 77.89 28.5
6 -10 -16 81.19 28.7
4 6 -16 101.69 25.3
-4 -6 16 129.59 33.6
-10 5 -16 167.88 33.5
5 5 -16 149.79 30.2
5 -10 -16 118.89 32.4
-5 -5 16 137.79 35.8
6 4 -16 200.48 33
-10 6 -16 286.47 39.6
-10 6 -16 223.88 33.6
4 -10 -16 236.48 40.4
-6 -4 16 280.97 44.3
-10 7 -16 303.67 39.7
3 -10 -16 360.56 48.2
7 3 -16 327.57 39.7
-7 -3 16 283.27 48
-10 8 -16 148.69 33.3
8 2 -16 105.79 28.5
2 -10 -16 172.58 37.9
-8 -2 16 173.48 38.5
-1 0 -17 887.91 57.29
0 1 -17 944.91 59.99
1 -1 -17 1025.6 59.19
1 0 -17 974.4 59.29
-1 1 -17 924.41 58.59
0 -1 -17 943.61 57.39
-1 -1 -17 1365.66 76.69
-1 2 -17 1356.26 80.19
2 -1 -17 1285.57 78.99
-1 -1 -17 1362.16 82.19
-2 -1 -17 740.73 44.6
-2 -1 -17 681.33 51.79
-1 3 -17 687.93 50.29
-3 2 17 748.83 49.8
2 -2 -17 1652.93 96.39
-2 0 -17 1729.73 95.09
-2 0 -17 1624.34 99.79
0 2 -17 1715.83 98.59
-2 2 17 1721.63 97.19
1 -2 -17 1315.57 78.09
1 1 -17 1401.46 81.19
-2 1 -17 1359.46 79.39
0 -2 -17 1667.83 98.59
-2 2 -17 1689.43 97.19
0 -2 -17 1677.63 93.59
2 0 -17 1696.93 97.89
-1 -2 -17 443.26 37.1
-1 -2 -17 382.56 28.6
-2 3 -17 409.16 35.1
3 -1 -17 408.66 34.6
-3 1 17 485.95 36.3
-2 4 -17 71.49 18.4
-2 -2 -17 59.29 18
-4 2 17 68.59 17.1
-2 5 -17 444.46 41.8
5 -3 -17 538.35 37.8
-3 -2 -17 483.95 44.1
-5 3 17 460.45 40.5
-3 -1 -17 -1.2 13.7
-1 4 -17 -1.4 12.4
-4 3 17 57.69 15.7
0 3 -17 385.36 35.6
-3 0 -17 380.06 30.4
-3 0 -17 395.76 37.4
-3 3 17 527.65 35.8
-3 1 -17 384.96 32
1 2 -17 444.36 35.8
-3 1 -17 360.76 34.5
-2 3 17 480.95 33.3
2 1 -17 726.73 50.29
-3 2 -17 814.32 52.99
1 -3 -17 705.93 49.8
-3 2 -17 749.23 49.6
1 -3 -17 685.43 45.7
0 -3 -17 377.36 35.5
0 -3 -17 387.56 27.6
-3 3 -17 367.26 34.6
3 0 -17 429.36 34.8
-3 4 -17 -7.9 12.8
-1 -3 -17 31.8 15.3
-4 1 17 26.3 14.2
-2 -3 -17 364.26 37.7
-3 5 -17 362.66 37.1
-5 2 17 366.86 35.7
-3 -3 -17 468.65 45.3
-3 6 -17 481.05 44.4
-6 3 17 440.66 41.3
-4 -3 -17 568.44 55.29
-3 7 -17 639.64 53.59
-7 4 17 639.44 52.09
-2 6 -17 380.56 39.7
-4 -2 -17 411.16 43.2
-6 4 17 399.76 39.2
-4 -1 -17 132.89 25.6
5 -4 -17 136.79 21.4
-1 5 -17 130.89 23.8
-5 4 17 159.98 23.8
0 4 -17 34.1 15.4
4 -4 -17 27.8 14.2
-4 0 -17 12.7 14.8
-4 4 17 22.9 13.8
-4 1 -17 24.1 11.7
-4 1 -17 36.1 16.5
3 -4 -17 11.7 11.6
1 3 -17 39.1 15.3
-3 4 17 31.7 12.5
-4 2 -17 72.19 16
2 2 -17 60.69 17.3
2 -4 -17 77.89 16.5
-4 2 -17 76.59 19.3
-2 4 17 92.89 14.9
3 1 -17 18 13.5
1 -4 -17 1.8 8.7
-4 3 -17 15.6 13.1
-4 3 -17 -8.6 12.8
1 -4 -17 24.6 13
-4 4 -17 26.2 15.8
4 0 -17 48.1 16.4
0 -4 -17 42.6 16
-4 4 -17 13.9 14
-4 0 17 4.3 13.8
-4 5 -17 496.95 43.2
-1 -4 -17 511.95 43.3
-5 1 17 439.26 40.6
-4 6 -17 534.95 48.5
-2 -4 -17 583.94 49.6
-6 2 17 543.95 46
-4 7 -17 368.66 42
-3 -4 -17 361.46 43.6
-7 3 17 311.47 37.8
-4 -4 -17 191.48 35.2
-4 8 -17 230.08 34.8
-8 4 17 231.98 34.4
-5 -4 -17 344.37 47.9
-4 9 -17 327.47 43.4
-9 5 17 415.76 47.5
-3 8 -17 482.15 49.6
-5 -3 -17 539.15 55.19
-8 5 17 546.35 50.49
-2 7 -17 366.66 40.9
-7 5 17 399.16 41.1
-5 -1 -17 6.1 17.5
-1 6 -17 8.5 14.9
6 -5 -17 5 13.8
-6 5 17 34.1 18.1
5 -5 -17 296.37 32.6
-5 0 -17 321.77 37.1
0 5 -17 283.77 33.5
-5 5 17 315.67 33.9
4 -5 -17 459.95 36.6
-5 1 -17 499.45 43.9
4 -5 -17 456.05 41.6
1 4 -17 506.05 41.5
-4 5 17 476.15 38.9
3 -5 -17 423.16 37.7
3 -5 -17 369.06 32.8
-5 2 -17 396.76 33.4
-5 2 -17 423.26 39.1
2 3 -17 352.36 35.1
-3 5 17 330.77 31.1
2 -5 -17 520.25 40.3
-5 3 -17 498.45 40.9
-5 3 -17 530.05 43.7
3 2 -17 474.55 41
1 -5 -17 120.59 21.3
4 1 -17 138.59 22.4
-5 4 -17 134.89 23.3
-5 4 -17 117.99 22.3
-4 -1 17 198.38 29
5 0 -17 295.07 32.6
0 -5 -17 318.87 35.2
-5 5 -17 300.57 34.1
-5 5 -17 279.07 33.9
-5 0 17 359.76 36.9
-5 0 17 263.27 31.9
-5 6 -17 463.65 42.7
-1 -5 -17 463.65 45.6
-5 6 -17 524.25 48
-6 1 17 589.44 47.8
-6 1 17 614.84 46.6
-2 -5 -17 512.65 49.99
-5 7 -17 487.85 48
-7 2 17 455.15 44.1
-7 2 17 408.16 42.7
-3 -5 -17 69.99 27
-5 8 -17 83.69 26.5
-8 3 17 77.79 22.1
-4 -5 -17 253.77 40.5
-5 9 -17 169.38 34.2
-9 4 17 163.58 31
-5 10 -17 278.37 42.6
-5 -5 -17 388.06 50.29
-10 5 17 210.18 37.1
-6 -4 -17 211.68 43.2
-4 10 -17 107.39 32.4
-10 6 17 81.49 30.2
-3 9 -17 217.58 36.3
-6 -3 -17 238.58 41.7
-9 6 17 265.27 38.7
-2 8 -17 247.88 36.2
-6 -2 -17 176.68 35.1
-8 6 17 330.87 40.3
-6 -1 -17 -2 20
-1 7 -17 -3.8 17
-7 6 17 17.3 18.1
6 -6 -17 200.78 28.5
-6 0 -17 192.28 32.1
0 6 -17 219.88 30.1
-6 6 17 243.68 31.2
-6 1 -17 596.94 51.39
1 5 -17 582.94 46.8
5 -6 -17 514.25 47.2
-5 6 17 534.85 45.6
-6 2 -17 486.55 45.4
2 4 -17 494.85 42.5
4 -6 -17 517.95 46.4
-4 6 17 499.65 40.5
-2 -4 17 470.65 46.2
3 -6 -17 396.36 41.7
3 3 -17 431.16 39.8
-6 3 -17 465.05 42.6
-6 3 -17 456.95 39.2
3 -6 -17 420.66 36
-3 -3 17 490.85 45.5
2 -6 -17 411.36 36.4
-6 4 -17 428.06 39.5
4 2 -17 386.36 38
-6 4 -17 416.96 39.4
2 -6 -17 389.06 41
-4 -2 17 400.86 43
1 -6 -17 -0.4 14.2
-6 5 -17 -17.1 15.2
5 1 -17 3.3 15
1 -6 -17 1.1 15.9
-5 -1 17 14.5 17.2
0 -6 -17 269.47 33.5
-6 6 -17 228.38 33.2
-6 6 -17 228.08 29.5
-6 0 17 292.67 37.1
-6 0 17 215.18 30.9
-6 7 -17 397.26 48.5
-1 -6 -17 484.95 47.8
-6 7 -17 537.45 44.9
-7 1 17 570.34 47.1
-7 1 17 520.95 49.3
-6 8 -17 337.77 37.2
-6 8 -17 326.07 42.7
-2 -6 -17 326.97 42.8
-8 2 17 284.87 36.5
-8 2 17 369.16 40.2
-3 -6 -17 313.47 43.2
-6 9 -17 234.38 40
-9 3 17 323.07 40.3
-4 -6 -17 257.87 43
-6 10 -17 284.17 44.9
-10 4 17 206.18 35.9
-3 10 -17 5.1 24.5
-7 -3 -17 58.09 31.8
-10 7 17 17.4 23
-7 -2 -17 30.8 28.8
-2 9 -17 16.9 22.8
-9 7 17 71.09 25.5
-1 8 -17 -14.6 18.5
-7 -1 -17 23.6 23.9
-8 7 17 11.2 19.5
-7 0 -17 268.07 38.9
7 -7 -17 227.58 33.1
0 7 -17 281.37 35.9
-7 7 17 223.78 33.2
6 -7 -17 393.66 45.8
-7 1 -17 474.15 50.39
1 6 -17 536.35 46.5
-6 7 17 529.95 45.9
5 -7 -17 412.96 43.4
-7 2 -17 397.16 45.5
2 5 -17 440.76 42.5
-5 7 17 453.65 40.9
-2 -5 17 482.55 45.8
3 4 -17 261.77 32.9
4 -7 -17 357.46 39.9
-7 3 -17 363.76 39.7
-3 -4 17 282.97 39
-7 4 -17 570.04 48.4
4 3 -17 532.55 46.5
3 -7 -17 480.25 49.3
-7 4 -17 580.94 46.4
-4 -3 17 575.04 53.39
2 -7 -17 400.56 44.3
-7 5 -17 441.16 42.4
5 2 -17 411.16 40.9
-7 5 -17 389.26 40.7
-5 -2 17 385.56 46.1
6 1 -17 -1.6 16.6
1 -7 -17 15.7 17.1
1 -7 -17 -1.9 18.6
-7 6 -17 13.9 15.9
-7 6 -17 -9.8 17.2
-6 -1 17 23.2 20
-7 7 -17 238.18 31.2
-7 7 -17 261.27 36.6
0 -7 -17 204.38 34
0 -7 -17 275.97 35.3
-7 0 17 197.98 34.3
-7 0 17 243.18 32.6
-7 8 -17 309.17 36.6
-1 -7 -17 277.67 39.3
-7 8 -17 279.07 40.2
-1 -7 -17 425.76 47.1
-8 1 17 364.56 40.2
-8 1 17 327.97 41.6
-7 9 -17 353.26 45.6
-2 -7 -17 496.75 52.39
-2 -7 -17 359.06 46.5
-9 2 17 309.27 41.6
-9 2 17 332.27 41
-3 -7 -17 262.67 40.5
-3 -7 -17 247.98 41.9
-7 10 -17 264.07 42.6
-10 3 17 196.58 34.9
-8 -1 -17 10 27.7
-1 9 -17 47.5 25.5
-9 8 17 -0.6 22
-8 0 -17 83.89 31.1
0 8 -17 62.99 24.3
-8 8 17 65.89 24.9
-8 1 -17 300.97 43.1
1 7 -17 285.07 36.9
7 -8 -17 330.77 40.3
-7 8 17 329.37 39.7
-1 -7 17 277.97 40.6
6 -8 -17 329.97 41.5
2 6 -17 366.96 40.9
-8 2 -17 341.77 45.1
-6 8 17 353.26 38.6
-2 -6 17 330.37 43.8
-8 3 -17 82.29 25.9
5 -8 -17 107.19 26.4
3 5 -17 91.39 23.8
-3 -5 17 67.49 26.6
-8 4 -17 168.48 30.4
4 4 -17 162.28 27.6
4 -8 -17 183.28 32.1
-4 -4 17 247.18 38.4
-8 5 -17 545.65 49.99
3 -8 -17 495.55 51.59
-8 5 -17 518.25 47.2
5 3 -17 541.15 47.4
-5 -3 17 431.36 52.09
-8 6 -17 203.18 32.5
-8 6 -17 216.88 31.4
6 2 -17 201.08 31
2 -8 -17 248.58 36.4
-6 -2 17 277.37 40.1
-8 7 -17 -14.7 16.8
-8 7 -17 -7.8 19.7
1 -8 -17 16.5 22
7 1 -17 16.7 18.9
-7 -1 17 -16.7 18.9
-8 8 -17 55.99 26
0 -8 -17 96.39 29.6
-8 0 17 67.19 27.1
-8 0 17 58.49 24.2
-1 -8 -17 6.6 24.6
-8 9 -17 42.3 27.8
-9 1 17 56.49 24.1
-9 1 17 83.49 28.2
-9 0 -17 61.89 31.5
0 9 -17 4.1 22.7
-9 9 17 12.9 22.8
1 8 -17 26.8 24.7
8 -9 -17 22.4 24.1
-9 1 -17 103.39 32.7
-8 9 17 68.79 25.5
-1 -8 17 38.2 25.8
-9 2 -17 367.66 47.8
2 7 -17 373.66 43.3
7 -9 -17 296.57 42
-7 9 17 318.67 40.4
-2 -7 17 294.67 45
-9 3 -17 273.67 39.5
6 -9 -17 199.88 36.6
3 6 -17 227.78 34.1
-3 -6 17 284.87 43.1
4 5 -17 154.68 29.8
5 -9 -17 164.48 32.2
-9 4 -17 190.48 34.3
-4 -5 17 214.68 37.9
4 -9 -17 294.17 42.3
-9 5 -17 264.37 39.5
5 4 -17 394.46 42.1
-5 -4 17 419.06 51.09
-9 6 -17 199.78 32.7
3 -9 -17 194.68 35.6
-9 6 -17 216.18 32.8
6 3 -17 226.28 33.4
-6 -3 17 200.18 38.7
7 2 -17 19.6 21.2
2 -9 -17 28.4 24
-9 7 -17 64.89 22
-9 7 -17 -0.7 21.6
-7 -2 17 23.1 24.5
1 -9 -17 46.5 26.7
8 1 -17 20.5 21.7
-9 8 -17 19.3 24.9
-8 -1 17 24.7 25.8
0 -9 -17 27.3 27.2
-9 9 -17 64.49 28.2
9 0 -17 39.8 23.9
-9 0 17 13.1 21.7
-9 0 17 22.3 26.2
7 -10 -17 263.17 41.9
-10 3 -17 228.08 41
3 7 -17 287.57 38.6
-3 -7 17 315.07 47
-10 4 -17 252.17 41.3
6 -10 -17 292.37 43.8
4 6 -17 254.77 38.1
-4 -6 17 349.17 49.8
5 -10 -17 348.27 47.6
5 5 -17 277.87 38
-10 5 -17 343.57 44.7
-5 -5 17 251.57 44.6
-10 6 -17 161.78 32.3
6 4 -17 108.39 28
4 -10 -17 128.89 33.4
-6 -4 17 54.89 31.4
3 -10 -17 23.2 26.2
-10 7 -17 25.3 22.7
7 3 -17 -15.9 19.1
-7 -3 17 35.1 27.2
0 0 -18 6495.25 342.27
0 1 -18 2383.06 133.69
-1 0 -18 2404.36 131.79
-1 0 -18 2436.46 136.29
1 -1 -18 2351.16 132.49
1 0 -18 2361.16 131.29
-1 1 -18 2372.86 130.89
0 -1 -18 2314.37 129.19
2 -1 -18 398.46 33.4
-1 2 -18 376.16 33.9
-1 -1 -18 457.75 37.4
-1 -1 -18 392.26 30.2
-2 -1 -18 343.67 29.3
-1 3 -18 371.96 34.2
-2 -1 -18 366.56 36.3
-3 2 18 389.96 33.3
2 -2 -18 227.48 25.9
-2 0 -18 264.37 24.5
-2 0 -18 254.97 29.9
0 2 -18 268.97 29.2
-2 2 18 222.08 25.8
1 -2 -18 402.86 32.4
1 1 -18 395.06 34.9
-2 1 -18 445.96 37.6
-2 1 -18 458.85 34.3
0 -2 -18 273.17 29.2
0 -2 -18 257.27 23.6
-2 2 -18 208.08 25.6
2 0 -18 273.37 28
-1 -2 -18 77.29 19.2
-2 3 -18 89.69 18.9
3 -1 -18 103.99 18.5
-3 1 18 78.69 17.8
-2 -2 -18 346.37 35.7
-2 4 -18 287.97 32.9
-4 2 18 329.47 32.2
-2 5 -18 234.68 30.6
-3 -2 -18 197.38 30.2
5 -3 -18 260.67 28.4
-5 3 18 255.47 30.1
-3 -1 -18 682.43 52.09
-1 4 -18 655.53 50.19
-4 3 18 633.34 48.1
-3 0 -18 550.24 37.7
0 3 -18 570.24 43.3
-3 0 -18 500.15 44
-3 3 18 531.75 41
-3 1 -18 67.49 14.9
-3 1 -18 84.79 19
2 -3 -18 97.49 17.6
1 2 -18 74.59 18.2
-2 3 18 84.79 15.3
1 -3 -18 397.66 29.6
-3 2 -18 388.46 36
2 1 -18 357.36 33.8
-3 2 -18 343.17 32.6
1 -3 -18 397.46 34.2
3 0 -18 589.44 43.7
-3 3 -18 532.25 43.3
0 -3 -18 542.85 43.9
-1 -3 -18 191.18 27.2
-3 4 -18 288.87 31.4
-4 1 18 231.78 28.7
-2 -3 -18 84.09 22.2
-3 5 -18 48.5 18.7
-5 2 18 80.79 20.3
-3 -3 -18 146.59 29.7
-3 6 -18 185.98 29.4
-6 3 18 152.68 26
-4 -3 -18 227.38 36.8
-3 7 -18 272.87 36.5
-7 4 18 275.17 34.8
-2 6 -18 73.89 21.9
-4 -2 -18 41.4 21.8
-6 4 18 74.29 20.9
-4 -1 -18 582.44 51.09
-1 5 -18 637.54 49.1
5 -4 -18 608.54 46.8
-5 4 18 570.24 46.7
-4 0 -18 455.95 40.6
4 -4 -18 377.06 36.1
0 4 -18 382.46 37.5
-4 4 18 392.26 35.8
1 3 -18 260.17 29.9
3 -4 -18 232.48 26.6
-4 1 -18 228.38 25.2
-4 1 -18 198.58 28.7
-3 4 18 283.17 27.8
-4 2 -18 328.87 31.2
-4 2 -18 329.97 35.4
2 2 -18 335.97 33.6
2 -4 -18 278.97 31.2
-2 4 18 402.26 30
3 1 -18 639.94 46.9
-4 3 -18 603.54 46
1 -4 -18 578.54 45.8
-4 3 -18 566.64 46.9
-4 4 -18 401.66 38.5
4 0 -18 395.46 38.2
-4 4 -18 452.95 39.4
0 -4 -18 462.65 39.9
-1 -4 -18 27.3 17.6
-4 5 -18 38.5 18.8
-5 1 18 -18.5 13.1
-2 -4 -18 149.88 28.1
-4 6 -18 133.89 27.3
-6 2 18 126.29 23.9
-4 7 -18 1088.69 76.69
-3 -4 -18 1067.69 78.59
-7 3 18 1006.2 72.69
-4 8 -18 742.33 63.39
-4 -4 -18 774.32 66.49
-8 4 18 729.43 60.59
-4 9 -18 180.68 34.7
-5 -4 -18 171.68 37.8
-9 5 18 201.28 35.4
-3 8 -18 161.58 32.2
-5 -3 -18 239.68 40.2
-8 5 18 210.98 33.5
-2 7 -18 34.4 20.4
-5 -2 -18 37.2 23.6
-7 5 18 24.3 18.5
6 -5 -18 90.39 19.9
-5 -1 -18 126.59 27.6
-1 6 -18 80.29 21.8
-6 5 18 117.29 24
5 -5 -18 188.18 26
0 5 -18 141.49 24.7
-5 0 -18 164.88 28.2
-5 5 18 168.98 25.6
1 4 -18 8.5 15
4 -5 -18 18.2 12.9
-5 1 -18 -13.8 14.3
4 -5 -18 3.1 15
-4 5 18 13.6 13
-5 2 -18 74.49 21.1
-5 2 -18 74.29 17.1
3 -5 -18 86.69 17.8
3 -5 -18 62.59 18.9
2 3 -18 39.7 17.5
-3 5 18 46.8 14.9
2 -5 -18 302.27 29.9
3 2 -18 202.88 27.6
-5 3 -18 217.58 29.5
-5 3 -18 229.88 28.1
4 1 -18 635.94 48.3
-5 4 -18 566.04 46.9
1 -5 -18 560.94 45.4
-5 4 -18 604.74 48.1
-5 5 -18 178.58 26.9
5 0 -18 169.78 26.4
-5 5 -18 136.49 26.4
0 -5 -18 217.08 28.9
-5 0 18 181.98 28
-5 6 -18 36.2 17.2
-5 6 -18 20.6 19.1
-1 -5 -18 33.3 19.4
-6 1 18 31.8 17.4
-2 -5 -18 670.73 59.49
-5 7 -18 763.72 61.19
-7 2 18 717.53 57.59
-3 -5 -18 1157.78 84.89
-5 8 -18 1126.19 83.39
-8 3 18 1141.09 79.99
-4 -5 -18 640.34 64.39
-5 9 -18 652.23 60.69
-9 4 18 572.44 55.69
-5 10 -18 60.39 27.6
-5 -5 -18 61.69 31.1
-10 5 18 41.4 25.1
-3 9 -18 16 24.3
-6 -3 -18 -14.8 24.8
-9 6 18 10.8 22.1
-2 8 -18 81.09 25.7
-6 -2 -18 106.09 32.1
-8 6 18 85.39 25.4
-6 -1 -18 305.17 42
-1 7 -18 229.48 33
-7 6 18 271.87 36
-6 0 -18 78.79 24
6 -6 -18 75.69 21.3
0 6 -18 85.39 23.1
-6 6 18 92.49 23.3
5 -6 -18 44.1 18.5
1 5 -18 61.89 18.7
-6 1 -18 0.3 17.8
-5 6 18 27.3 17.3
4 -6 -18 116.79 24.3
2 4 -18 91.59 20
-6 2 -18 113.79 24.5
-4 6 18 94.59 19.9
-6 3 -18 144.79 23
3 -6 -18 149.59 22.7
-6 3 -18 159.28 27.1
3 3 -18 154.98 25
3 -6 -18 178.68 29.1
-3 -3 18 135.49 28.8
2 -6 -18 54.99 17.2
-6 4 -18 66.09 19.7
4 2 -18 53.19 18.8
2 -6 -18 51.89 20.2
-6 4 -18 51.69 18.8
-4 -2 18 62.59 23.3
5 1 -18 91.59 21
1 -6 -18 102.19 24.4
1 -6 -18 98.69 22.7
-6 5 -18 144.99 24
-6 5 -18 133.29 26.4
-5 -1 18 97.19 24.7
-6 6 -18 45.3 18.7
6 0 -18 88.59 22.4
-6 6 -18 120.79 26.8
0 -6 -18 111.99 23.9
-6 0 18 75.39 24.3
-6 0 18 93.79 21.8
-6 7 -18 127.39 23.7
-6 7 -18 103.69 26.7
-1 -6 -18 78.09 25
-7 1 18 183.88 28.6
-7 1 18 95.69 25.6
-2 -6 -18 374.86 46.6
-6 8 -18 435.86 42
-6 8 -18 371.86 45.5
-8 2 18 373.26 44.3
-8 2 18 366.86 43.3
-6 9 -18 343.67 47.3
-3 -6 -18 362.56 48.1
-9 3 18 460.55 47.4
-7 -2 -18 132.69 34.7
-2 9 -18 194.18 34.2
-9 7 18 109.09 30
-7 -1 -18 151.98 35.2
-1 8 -18 175.78 31.4
-8 7 18 167.58 31.4
7 -7 -18 105.19 25.3
-7 0 -18 115.39 29.6
0 7 -18 114.09 26.9
-7 7 18 80.69 24.4
-7 1 -18 137.19 30.3
1 6 -18 86.69 23.7
6 -7 -18 74.39 23.3
-6 7 18 142.89 26.5
5 -7 -18 599.84 56.69
2 5 -18 763.92 56.09
-7 2 -18 655.73 58.99
-5 7 18 714.43 53.69
-2 -5 18 661.03 59.89
4 -7 -18 1048.4 73.69
3 4 -18 1010.7 69.89
-7 3 -18 970.2 72.09
-3 -4 18 950.5 74.59
3 -7 -18 261.27 35.7
4 3 -18 233.98 30.9
-7 4 -18 315.37 33.9
-7 4 -18 226.28 32.6
-4 -3 18 230.88 37
-7 5 -18 35.8 19
2 -7 -18 21.3 20.8
-7 5 -18 28.6 18.8
5 2 -18 23.8 18.5
-5 -2 18 36.2 22.6
1 -7 -18 230.28 35.4
-7 6 -18 321.47 38.6
1 -7 -18 325.07 41.4
-7 6 -18 292.57 34.6
6 1 -18 275.87 35.5
-6 -1 18 240.48 37.8
0 -7 -18 109.59 27
-7 7 -18 113.19 23.9
-7 7 -18 120.79 29.1
0 -7 -18 134.89 28.3
7 0 -18 82.29 24.1
-7 0 18 120.99 26.7
-7 0 18 108.99 28
-7 8 -18 3.4 21.9
-1 -7 -18 12.8 22.3
-1 -7 -18 12.9 21.7
-7 8 -18 10.6 17
-8 1 18 26.4 21.2
-8 1 18 6.1 19.9
-2 -7 -18 27.1 25.5
-2 -7 -18 57.39 27.4
-7 9 -18 65.69 29.1
-9 2 18 37.4 23.4
-9 2 18 41.8 23
-8 -1 -18 158.88 37.7
-1 9 -18 181.18 34.1
-9 8 18 152.88 32.4
0 8 -18 92.39 28.3
-8 0 -18 60.69 28.9
-8 8 18 121.59 28.3
1 7 -18 11.6 20.3
7 -8 -18 8.8 20
-8 1 -18 -1.4 22.4
-7 8 18 -19.6 16.5
6 -8 -18 287.37 39.2
2 6 -18 408.76 42.3
-8 2 -18 289.97 41.7
-2 -6 18 348.07 44.7
-6 8 18 349.17 47.1
3 5 -18 1124.99 79.59
5 -8 -18 1187.38 84.19
-8 3 -18 1171.18 84.39
-3 -5 18 1185.78 86.59
-8 4 -18 729.63 61.19
4 -8 -18 698.33 61.39
4 4 -18 764.02 58.99
-4 -4 18 710.33 64.49
3 -8 -18 215.18 35.5
-8 5 -18 204.48 30.3
5 3 -18 137.29 27.1
-8 5 -18 201.58 32
-5 -3 18 128.09 31.7
-8 6 -18 84.99 23.8
6 2 -18 85.19 23.3
-8 6 -18 68.19 24.1
2 -8 -18 86.59 27.3
-6 -2 18 62.09 27.5
1 -8 -18 196.08 35.7
7 1 -18 174.68 30.5
-8 7 -18 167.08 29.4
-8 7 -18 256.37 36.9
-7 -1 18 150.48 34.2
8 0 -18 86.09 24.9
-8 8 -18 132.39 31.3
0 -8 -18 72.09 27.8
-8 0 18 56.29 26.9
-8 0 18 127.09 28.2
-1 -8 -18 19 25.8
-8 9 -18 29.7 26
-9 1 18 -0.9 20.2
-9 1 18 44.9 25
1 8 -18 28.8 23.6
-9 1 -18 50.09 30.1
8 -9 -18 26.9 25.7
-8 9 18 23.8 22.4
-9 2 -18 81.59 29.2
7 -9 -18 83.49 28.1
2 7 -18 57.69 24.9
-2 -7 18 36.2 26.2
-9 3 -18 382.86 47.8
3 6 -18 417.66 44.9
6 -9 -18 442.46 49.5
-3 -6 18 270.47 44.1
4 5 -18 619.34 55.09
-9 4 -18 676.03 60.99
5 -9 -18 540.95 57.49
-4 -5 18 565.84 60.59
5 4 -18 193.18 32.7
-9 5 -18 157.28 33.2
4 -9 -18 177.88 34.1
-5 -4 18 213.78 40.2
3 -9 -18 10.1 23.4
-9 6 -18 12.9 20.7
6 3 -18 -6.1 18
-9 6 -18 -6.8 19.9
-6 -3 18 -12.3 23.4
-9 7 -18 181.98 30.5
2 -9 -18 143.09 34.3
-9 7 -18 228.98 36.2
7 2 -18 202.58 32.4
-7 -2 18 132.99 35
-9 8 -18 206.98 37.1
1 -9 -18 109.79 34.1
8 1 -18 145.39 32.3
-8 -1 18 204.88 38.2
5 -10 -18 17.5 25.9
-10 5 -18 15.9 24.5
5 5 -18 54.99 24.3
-5 -5 18 45.5 30.6
-1 0 -19 689.53 51.99
-1 0 -19 740.63 48
0 1 -19 692.83 49.4
1 -1 -19 729.23 48.6
1 0 -19 732.33 48.9
0 -1 -19 653.53 50.59
0 -1 -19 692.03 46.8
-1 1 -19 724.93 48.9
2 -1 -19 893.81 60.69
-1 -1 -19 916.21 56.99
-1 2 -19 972.3 61.49
-1 -1 -19 961.8 63.69
3 -2 -19 552.24 42.3
-1 3 -19 544.25 43.9
-2 -1 -19 536.05 45.8
-3 2 19 562.54 42.6
0 2 -19 1263.37 76.09
-2 0 -19 1208.48 77.89
2 -2 -19 1171.58 73.49
-2 0 -19 1199.68 71.79
-2 1 -19 891.31 58.89
1 -2 -19 969.1 58.29
1 1 -19 920.01 60.79
1 -2 -19 879.21 61.09
-2 1 -19 952.7 63.29
2 0 -19 1212.48 74.49
-2 2 -19 1107.99 73.09
0 -2 -19 1198.98 70.29
0 -2 -19 1255.87 76.89
3 -1 -19 403.96 36.3
-2 3 -19 405.26 36.7
-1 -2 -19 430.96 39.2
-2 4 -19 84.19 19.2
-2 -2 -19 33.8 18.1
-4 2 19 39 16.3
-2 5 -19 442.26 43.9
-3 -2 -19 531.95 47.2
-5 3 19 528.25 45.1
-1 4 -19 55.19 18.5
-3 -1 -19 48.4 18.1
-4 3 19 38.7 16.2
0 3 -19 360.16 34.2
-3 0 -19 310.47 33.4
-3 3 19 298.47 31.6
2 -3 -19 369.86 34.8
2 -3 -19 412.76 33.6
-3 1 -19 437.06 39
-3 1 -19 396.46 34
1 2 -19 406.46 37.2
-2 3 19 433.66 34.4
1 -3 -19 501.15 36.8
2 1 -19 553.14 42.5
1 -3 -19 525.85 42.7
-3 2 -19 533.25 44.2
-3 2 -19 507.75 40.7
-3 3 -19 308.47 33.7
0 -3 -19 350.96 34.7
3 0 -19 329.17 33.6
-3 4 -19 72.19 19.5
-1 -3 -19 19.9 16.4
4 -1 -19 51.09 17.4
-4 1 19 46.3 17.4
-2 -3 -19 391.46 40.9
-3 5 -19 385.16 39.5
-5 2 19 380.06 39.3
-3 -3 -19 534.35 50.29
-3 6 -19 512.75 47.8
-6 3 19 455.95 45.9
-3 7 -19 592.14 54.09
-4 -3 -19 660.73 58.79
-7 4 19 564.94 51.89
-2 6 -19 347.07 40
-4 -2 -19 351.06 42
-6 4 19 332.87 37.9
5 -4 -19 101.99 21
-1 5 -19 153.68 25.4
-4 -1 -19 124.59 26.6
-5 4 19 111.49 22.5
0 4 -19 22.1 17.4
-4 0 -19 14.8 16.1
4 -4 -19 -3.5 13.5
-4 4 19 0.8 13.7
3 -4 -19 31.1 14.2
-4 1 -19 53.59 19.1
1 3 -19 48.9 18.4
-3 4 19 23.2 13.9
-4 2 -19 46.3 16.6
2 -4 -19 57.79 16.8
2 2 -19 38.2 15.9
-4 2 -19 71.99 20.7
-2 4 19 58.39 14.6
-4 3 -19 41.1 16.3
-4 3 -19 28.6 16.8
3 1 -19 32.2 16.3
1 -4 -19 64.29 17.7
-4 4 -19 -3.8 15
4 0 -19 27.7 16.4
-4 4 -19 34.8 17
0 -4 -19 35.1 16.9
-4 5 -19 316.17 37.2
-1 -4 -19 286.27 36.3
-5 1 19 373.16 37.7
-2 -4 -19 539.25 48.7
-4 6 -19 509.15 47.6
-6 2 19 390.96 42.8
-3 -4 -19 317.27 41.1
-4 7 -19 261.47 38.4
-7 3 19 392.06 40.7
-4 8 -19 202.28 35.1
-4 -4 -19 183.98 36
-8 4 19 202.08 33.3
-5 -4 -19 322.87 48.2
-4 9 -19 311.67 43.8
-9 5 19 302.37 41.3
-3 8 -19 360.66 45.2
-5 -3 -19 357.66 47.2
-8 5 19 316.47 40.4
-2 7 -19 417.16 45
-5 -2 -19 423.76 49.5
-7 5 19 424.66 46.1
-1 6 -19 31.3 19.3
-5 -1 -19 34.8 22.6
-6 5 19 41.9 19.4
-5 0 -19 218.88 32.2
5 -5 -19 194.68 28.5
0 5 -19 268.37 32.9
-5 5 19 178.18 27.3
4 -5 -19 310.77 36.1
1 4 -19 332.47 36.1
-5 1 -19 299.07 37.3
4 -5 -19 308.37 30.9
-4 5 19 320.17 31.8
-5 2 -19 375.66 40.2
2 3 -19 381.06 36.9
-5 2 -19 350.86 37.1
3 -5 -19 390.86 36.3
3 -5 -19 458.65 41.3
-3 5 19 381.76 34.3
-5 3 -19 485.55 41.3
2 -5 -19 483.95 40.9
-5 3 -19 483.15 43.9
3 2 -19 438.16 41.5
-5 4 -19 97.39 21.6
4 1 -19 94.39 21.6
1 -5 -19 100.79 20.8
-5 4 -19 65.79 20.2
0 -5 -19 259.57 32.4
5 0 -19 237.18 31.2
-5 5 -19 156.98 27.2
-5 5 -19 208.68 30.9
-5 6 -19 769.22 56.39
-1 -5 -19 667.93 57.09
-5 6 -19 704.03 59.79
-6 1 19 670.13 55.69
-2 -5 -19 613.24 57.19
-5 7 -19 597.94 55.29
-7 2 19 555.54 51.69
-3 -5 -19 20.3 24.1
-5 8 -19 39.5 24.6
-8 3 19 -0.8 18.8
-5 9 -19 96.29 30.5
-4 -5 -19 99.59 32.8
-9 4 19 67.09 26.1
-6 -3 -19 224.78 42.3
-3 9 -19 160.88 33.3
-9 6 19 143.59 32.6
-2 8 -19 195.38 33
-6 -2 -19 68.79 30.2
-8 6 19 143.09 30.1
-6 -1 -19 20.9 22.5
-1 7 -19 12.3 19.3
-7 6 19 30.2 20.6
0 6 -19 247.18 34
6 -6 -19 252.77 32.8
-6 0 -19 200.78 33.9
-6 6 19 296.37 36
1 5 -19 773.12 58.49
-6 1 -19 858.81 62.59
5 -6 -19 747.03 58.69
-5 6 19 686.13 56.19
4 -6 -19 509.35 46.5
-6 2 -19 550.94 48.9
2 4 -19 473.05 44.6
-4 6 19 418.56 45.7
-6 3 -19 519.75 42.9
3 -6 -19 469.25 55.89
3 3 -19 511.95 45.3
3 -6 -19 503.35 46.7
-6 3 -19 494.95 47.5
2 -6 -19 389.06 41.5
-6 4 -19 350.56 38.8
4 2 -19 361.46 38.5
2 -6 -19 392.96 37.1
-6 4 -19 349.96 40.1
-6 5 -19 23.1 18.4
1 -6 -19 21.4 20.3
5 1 -19 61.99 20.9
1 -6 -19 15.9 17.3
-6 5 -19 55.49 20.3
-5 -1 19 20.8 19.5
-6 6 -19 271.27 36.3
0 -6 -19 219.68 33.1
6 0 -19 205.78 32
-6 6 -19 237.88 31.6
-6 0 19 249.38 34.1
-6 0 19 244.78 35.8
-6 7 -19 327.97 37.9
-1 -6 -19 360.46 43.6
-6 7 -19 329.37 42.4
-7 1 19 385.46 41.5
-6 8 -19 209.18 31.2
-2 -6 -19 219.98 37.2
-6 8 -19 219.48 37.3
-8 2 19 212.08 34.5
-6 9 -19 162.68 36.5
-3 -6 -19 186.28 37.8
-9 3 19 163.38 32.9
-7 -2 -19 16.8 28.5
-2 9 -19 0.8 22.3
-9 7 19 1.7 22.4
-7 -1 -19 1.6 23.5
-1 8 -19 6.7 21
-8 7 19 17.5 22.3
0 7 -19 188.68 31.5
-7 0 -19 182.78 37.3
-7 7 19 253.17 35.4
6 -7 -19 303.17 38.7
1 6 -19 330.37 39.7
-7 1 -19 373.36 44.8
-6 7 19 415.96 42.4
2 5 -19 531.95 48.1
5 -7 -19 492.05 49.9
-7 2 -19 495.45 51.09
4 -7 -19 387.16 43.8
3 4 -19 316.37 38.3
-7 3 -19 314.27 39.4
-3 -4 19 342.37 42.8
3 -7 -19 560.84 55.09
-7 4 -19 632.84 50.79
4 3 -19 657.43 52.89
-7 4 -19 693.23 54.79
-4 -3 19 552.64 57.29
-7 5 -19 409.36 44
5 2 -19 405.16 41.6
-7 5 -19 420.76 43.2
2 -7 -19 304.17 41.3
-5 -2 19 333.97 44.1
-7 6 -19 27.4 19.8
6 1 -19 3.3 18.3
-7 6 -19 -10.1 17.7
1 -7 -19 10.4 20.8
-6 -1 19 3.6 21.5
0 -7 -19 187.88 32.2
-7 7 -19 179.58 33.6
7 0 -19 157.98 29.2
-7 7 -19 177.68 29.5
0 -7 -19 182.28 33.4
-7 0 19 196.98 30.3
-7 0 19 143.79 32.1
-1 -7 -19 283.07 39.8
-7 8 -19 311.07 43.1
-7 8 -19 308.87 36.1
-1 -7 -19 233.78 38.7
-8 1 19 209.88 34.8
-8 1 19 218.08 36.7
-2 -7 -19 242.88 41.4
-2 -7 -19 304.17 44
-7 9 -19 335.87 47.2
-9 2 19 284.37 41.2
-9 2 19 308.27 41.9
-8 0 -19 57.79 29.9
0 8 -19 22.2 23.6
-8 8 19 23.6 23
1 7 -19 237.18 35.6
7 -8 -19 203.18 34.6
-8 1 -19 236.28 40.3
-7 8 19 203.48 33.2
2 6 -19 168.08 31.1
-8 2 -19 181.08 35.6
6 -8 -19 233.18 35
3 5 -19 -2.1 18.7
-8 3 -19 37 24.3
5 -8 -19 -15.1 17.8
-3 -5 19 21.8 23.5
4 -8 -19 151.78 30.9
4 4 -19 238.68 34.2
-8 4 -19 226.08 35.4
-4 -4 19 158.68 34
3 -8 -19 388.06 47.1
-8 5 -19 349.27 43.2
5 3 -19 435.16 44.2
-8 5 -19 385.46 42.3
-5 -3 19 365.46 47.5
-8 6 -19 131.79 28.1
-8 6 -19 161.28 29.5
2 -8 -19 165.48 32.9
6 2 -19 116.29 26.7
-6 -2 19 123.99 32.2
-8 7 -19 22.5 22.5
1 -8 -19 11.7 24
-8 7 -19 38.7 22
7 1 -19 9.1 20.2
-7 -1 19 25.4 24.1
8 0 -19 44.7 23.5
0 -8 -19 37.9 28.1
-8 8 -19 29.8 25.5
-8 0 19 0.9 20.1
-8 0 19 29.2 24.7
-9 2 -19 288.97 43.8
7 -9 -19 233.38 39.4
2 7 -19 253.07 38.6
6 -9 -19 165.58 34
3 6 -19 184.08 32.1
-9 3 -19 193.68 38
-3 -6 19 217.78 40.9
4 5 -19 75.59 25.9
-9 4 -19 91.79 28.9
5 -9 -19 120.49 31.4
-4 -5 19 41.1 28.7
4 -9 -19 337.27 44.5
5 4 -19 227.68 35
-9 5 -19 368.66 45.5
-5 -4 19 287.47 44.9
-9 6 -19 235.08 37.3
6 3 -19 196.78 33.5
3 -9 -19 123.59 33.5
-9 6 -19 141.29 31.1
-6 -3 19 170.78 38.8
-9 7 -19 17.1 20.3
7 2 -19 15.3 21.2
2 -9 -19 12.5 23.7
-9 7 -19 27.4 25.2
-7 -2 19 1.2 24.5
0 0 -20 -13.1 11.1
1 -1 -20 33.6 13.6
0 1 -20 6.5 13.1
-1 0 -20 23.5 12.3
-1 0 -20 11.6 14.9
1 0 -20 13.8 13.4
0 -1 -20 19.1 11.6
0 -1 -20 15.9 14.5
-1 1 -20 34.6 14.4
2 -1 -20 167.38 23.3
-1 -1 -20 152.58 19.9
-1 -1 -20 182.58 26.3
-1 2 -20 151.18 22.9
-2 -1 -20 535.05 45.6
3 -2 -20 496.85 42.3
-1 3 -20 502.95 43.2
-3 2 20 521.65 42.7
0 2 -20 122.19 21.4
-2 0 -20 136.39 23.8
2 -2 -20 133.19 20.4
-2 0 -20 170.78 20.3
1 1 -20 130.49 21.1
1 -2 -20 133.99 22.9
1 -2 -20 122.09 18.8
-2 1 -20 137.09 20.1
-2 1 -20 148.19 24.8
0 -2 -20 143.79 23.7
0 -2 -20 135.39 18.2
-2 2 -20 151.58 22.3
2 0 -20 122.09 21.6
3 -1 -20 832.72 57.89
-1 -2 -20 791.22 59.59
-2 3 -20 867.31 58.69
-2 4 -20 1369.96 82.79
-2 -2 -20 1188.48 83.29
-4 2 20 1251.07 80.99
-3 -2 -20 430.36 44.9
-2 5 -20 376.86 42
-5 3 20 472.85 42.1
-1 4 -20 225.08 29.1
-3 -1 -20 154.38 28.7
-4 3 20 226.78 28.4
0 3 -20 181.18 26.1
-3 0 -20 230.08 30.3
-3 3 20 211.48 26.1
2 -3 -20 870.91 56.19
-3 1 -20 908.11 62.29
1 2 -20 929.61 61.49
-3 1 -20 805.72 55.79
2 -3 -20 802.02 57.99
1 -3 -20 468.65 36.2
2 1 -20 476.35 41.8
-3 2 -20 559.64 40.9
1 -3 -20 484.65 41.5
-3 2 -20 514.75 44.1
-3 3 -20 178.28 25.9
3 0 -20 204.88 27.1
0 -3 -20 186.98 27.6
4 -1 -20 639.44 51.69
-3 4 -20 692.03 52.79
-1 -3 -20 690.13 53.79
-4 1 20 687.43 52.49
-3 5 -20 704.03 53.59
-2 -3 -20 702.13 54.99
-5 2 20 535.15 49.7
-3 -3 -20 272.07 38.1
-3 6 -20 207.48 34.3
-6 3 20 330.67 38.1
-3 7 -20 94.39 27.3
-4 -3 -20 116.59 30.3
-7 4 20 125.69 26.3
-4 -2 -20 260.27 38.5
-2 6 -20 275.07 36.9
-6 4 20 311.37 36.2
-4 -1 -20 193.68 30.7
5 -4 -20 186.28 26.6
-1 5 -20 180.38 29
-5 4 20 185.78 28.9
0 4 -20 96.09 23.3
4 -4 -20 89.59 20.7
-4 0 -20 107.79 24
-4 4 20 145.09 24.3
-4 1 -20 752.32 56.99
3 -4 -20 733.43 52.39
1 3 -20 674.03 54.29
-3 4 20 752.72 51.79
2 2 -20 1236.68 81.89
2 -4 -20 1320.97 81.19
-4 2 -20 1304.77 79.69
2 -4 -20 1253.57 76.79
-4 2 -20 1315.77 85.09
1 -4 -20 160.78 24.6
-4 3 -20 180.28 27.9
3 1 -20 176.28 25.5
-4 3 -20 183.38 25.7
-4 4 -20 100.49 22.3
4 0 -20 90.29 21.6
0 -4 -20 98.39 22.5
-4 4 -20 129.79 24.3
-4 5 -20 290.07 35.9
5 -1 -20 304.37 35.6
-1 -4 -20 268.17 35.3
-2 -4 -20 129.19 29
-4 6 -20 149.29 28.8
-6 2 20 175.18 29.8
-4 7 -20 16.9 21.5
-3 -4 -20 18.5 22.9
-7 3 20 12.2 21
-4 -4 -20 14.2 25
-4 8 -20 7.2 22.4
-8 4 20 7.7 20.9
-5 -4 -20 76.79 32.5
-4 9 -20 67.89 29.2
-9 5 20 103.29 28.8
-3 8 -20 167.48 32.9
-5 -3 -20 104.99 32.6
-8 5 20 136.69 30.1
-5 -2 -20 371.96 49.5
-2 7 -20 422.76 46.6
-7 5 20 477.15 48.1
-5 -1 -20 576.64 55.39
-1 6 -20 549.25 50.79
-6 5 20 594.94 50.39
5 -5 -20 448.16 43.5
0 5 -20 430.56 44.2
-5 0 -20 488.95 48.1
-5 5 20 450.85 42.6
4 -5 -20 249.58 29.1
4 -5 -20 247.38 32.5
-5 1 -20 274.37 34.5
1 4 -20 289.17 34.2
-4 5 20 273.07 31.6
3 -5 -20 685.13 48.2
3 -5 -20 531.35 49
-5 2 -20 634.94 52.49
2 3 -20 548.55 49.1
-5 3 -20 465.05 44.3
3 2 -20 422.16 40.1
-5 3 -20 437.16 40.1
2 -5 -20 455.65 40.7
-5 4 -20 178.28 28.1
4 1 -20 143.99 25.9
1 -5 -20 199.98 28.2
-5 4 -20 206.18 29.9
0 -5 -20 450.45 44.7
-5 5 -20 473.15 44.4
5 0 -20 503.35 45.2
-5 5 -20 501.45 48.3
6 -1 -20 167.18 28.9
-5 6 -20 184.98 29
-1 -5 -20 205.88 32.4
-5 6 -20 137.99 29
-6 1 20 232.88 33.3
-2 -5 -20 57.69 24.9
-5 7 -20 80.39 26.5
-7 2 20 45.5 21.6
-3 -5 -20 10.3 22.2
-5 8 -20 -5.6 22.9
-8 3 20 15.2 22
-4 -5 -20 46.1 28.9
-5 9 -20 3.6 25
-9 4 20 20.2 24.2
-6 -3 -20 125.99 37.6
-3 9 -20 74.09 29.3
-9 6 20 110.39 31.1
-6 -2 -20 137.99 34.1
-2 8 -20 126.99 30.8
-8 6 20 128.89 30.2
-6 -1 -20 309.27 43.6
-1 7 -20 317.77 40.8
-7 6 20 359.56 41.9
0 6 -20 361.26 41.4
6 -6 -20 316.87 38.3
-6 0 -20 306.77 42.2
-6 6 20 407.46 42.4
-6 1 -20 211.08 34.5
5 -6 -20 179.78 29.9
1 5 -20 197.88 30.7
-5 6 20 169.88 27.4
2 4 -20 138.99 27
4 -6 -20 129.49 27.3
-6 2 -20 201.28 31
3 -6 -20 180.38 30.8
3 3 -20 262.37 33.2
-6 3 -20 261.47 36.5
2 -6 -20 287.47 33.2
2 -6 -20 259.97 35.9
-6 4 -20 269.27 35.7
-6 4 -20 251.97 32.9
4 2 -20 267.37 34.6
1 -6 -20 503.85 51.89
-6 5 -20 542.45 50.19
-6 5 -20 596.94 51.29
1 -6 -20 611.14 50.69
5 1 -20 581.64 50.39
0 -6 -20 373.26 43.3
6 0 -20 379.96 41.6
-6 6 -20 373.26 40.9
-6 6 -20 329.87 41.7
-6 7 -20 199.28 31.3
-1 -6 -20 204.78 35.3
-6 7 -20 244.18 37.5
-7 1 20 257.27 36.4
-2 -6 -20 68.69 27.9
-6 8 -20 40.9 25.3
-6 8 -20 27.4 20.2
-8 2 20 64.99 24.5
-6 9 -20 -4.2 24.1
-3 -6 -20 14.4 25.1
-9 3 20 -2.1 22
-7 -1 -20 2.2 24.4
-1 8 -20 -12.6 21
-8 7 20 20.8 23.7
-7 0 -20 185.78 37.5
0 7 -20 176.58 33.1
-7 7 20 198.08 32.6
1 6 -20 182.28 32.2
-7 1 -20 219.18 37.2
6 -7 -20 172.18 30.6
-6 7 20 196.68 31.1
-7 2 -20 63.79 25.9
2 5 -20 59.79 22.7
5 -7 -20 56.09 22.5
3 4 -20 19.5 19.3
4 -7 -20 25.6 20.8
-7 3 -20 26.6 21.4
-7 4 -20 76.49 24.8
3 -7 -20 90.59 27.1
4 3 -20 87.69 23.7
5 2 -20 360.16 42.1
-7 5 -20 377.76 43.8
-7 5 -20 418.46 44.5
2 -7 -20 367.06 46.4
-5 -2 20 495.65 52.09
1 -7 -20 330.07 42.1
6 1 -20 266.17 36
-7 6 -20 288.87 37.1
-7 6 -20 316.27 39.8
-6 -1 20 258.17 39.6
7 0 -20 204.68 33.9
0 -7 -20 183.28 33.6
-7 7 -20 188.78 30.9
0 -7 -20 161.88 33.7
-7 7 -20 183.18 34.3
-7 0 20 176.88 34.5
-1 -7 -20 176.18 34.9
-7 8 -20 150.98 29
-1 -7 -20 160.98 33.7
-7 8 -20 201.98 37.4
-8 1 20 119.69 30
1 7 -20 115.59 29.2
-8 1 -20 130.39 35.4
7 -8 -20 104.99 29
-7 8 20 180.88 32.3
2 6 -20 32.4 23.1
-8 2 -20 34.9 25.4
6 -8 -20 28.4 21.8
3 5 -20 -7.7 19.7
-8 3 -20 -1.3 22.1
5 -8 -20 11.7 20.4
4 4 -20 4.2 20
-8 4 -20 -0.8 19.6
4 -8 -20 4.8 20.3
-4 -4 20 6.1 23.6
5 3 -20 47.1 22.7
-8 5 -20 70.29 25.3
3 -8 -20 77.69 27.5
-5 -3 20 95.69 31.2
-8 6 -20 105.69 27.4
-8 6 -20 147.09 30.1
6 2 -20 125.29 27.4
2 -8 -20 98.69 32
-6 -2 20 155.68 35.4
-8 7 -20 -12.9 19.2
7 1 -20 -2.5 20.2
-8 7 -20 -1.4 21.2
1 -8 -20 32.4 26.8
-7 -1 20 8.9 23.7
3 6 -20 15.2 22.5
6 -9 -20 11.1 22.6
-9 3 -20 9.5 23.6
-3 -6 20 -6.1 25.1
5 -9 -20 1.6 22.4
-9 4 -20 20 25
4 5 -20 -7.5 20.3
-4 -5 20 26.9 26.4
5 4 -20 81.79 27.4
-9 5 -20 118.09 30.6
4 -9 -20 107.19 31.4
-5 -4 20 46.8 28.5
3 -9 -20 51.99 28.7
6 3 -20 98.59 27.8
-9 6 -20 117.59 30.2
-6 -3 20 116.59 34.7
0 0 -21 -12.9 11.5
0 1 -21 21.6 15
-1 0 -21 1.8 11.8
-1 0 -21 3.1 15.4
1 -1 -21 26.8 13.9
-1 1 -21 21 14.2
0 -1 -21 3.6 14.7
1 0 -21 19.3 14.6
0 -1 -21 10 12.7
-1 -1 -21 47.1 15.2
-1 2 -21 50.19 16.8
-1 -1 -21 42.8 18.6
2 -1 -21 50.59 16.9
-2 -1 -21 493.35 46.3
3 -2 -21 539.25 42.8
-1 3 -21 524.35 44.8
2 -2 -21 169.08 23.1
-2 0 -21 164.68 21.5
-2 0 -21 144.99 26.5
0 2 -21 193.88 26.5
1 -2 -21 48.6 14.8
1 1 -21 34.9 16.6
1 -2 -21 17.4 15.7
-2 1 -21 46.3 18.6
-2 1 -21 62.29 16.8
-2 2 -21 198.88 26.1
2 0 -21 179.88 26.2
0 -2 -21 186.28 27.8
3 -1 -21 21.4 15.4
-2 3 -21 22.5 16.8
-1 -2 -21 35.8 18.1
-2 4 -21 256.27 32.5
4 -2 -21 314.47 33.8
-2 -2 -21 274.87 35.4
-4 2 21 212.18 29.8
-2 5 -21 498.85 47.7
-3 -2 -21 508.75 49.8
-5 3 21 508.05 45.8
-3 -1 -21 1354.36 90.19
-1 4 -21 1313.67 87.09
-4 3 21 1397.16 86.79
3 -3 -21 1013.8 68.29
-3 0 -21 1096.99 73.99
0 3 -21 1072.89 71.09
-3 3 21 1021.1 68.79
-3 1 -21 16.2 13.2
2 -3 -21 14.5 15.2
2 -3 -21 16.9 12.8
1 2 -21 25.6 16.8
-3 1 -21 8.6 16.8
2 1 -21 399.76 40.7
-3 2 -21 485.45 40.3
-3 2 -21 452.25 42.6
1 -3 -21 498.05 41.8
3 0 -21 1137.59 72.19
-3 3 -21 1001.6 69.99
-3 3 -21 1015.4 72.69
0 -3 -21 1118.19 73.19
-3 4 -21 236.88 31
-1 -3 -21 215.28 31.5
4 -1 -21 220.78 30.2
-3 5 -21 31.5 20
-2 -3 -21 23.8 19.9
-5 2 21 26.4 18.8
-3 6 -21 29.8 21.6
-3 -3 -21 18.9 21.7
-6 3 21 19.4 18.2
-4 -3 -21 5.8 23
-3 7 -21 7 21.2
-7 4 21 34.7 21.6
-2 6 -21 228.38 33.5
-4 -2 -21 205.18 35.7
-6 4 21 245.98 33.7
-1 5 -21 854.11 62.29
-4 -1 -21 725.83 63.39
-5 4 21 807.02 60.49
-4 0 -21 1119.19 79.49
4 -4 -21 1107.89 75.29
0 4 -21 1100.29 76.89
-4 4 21 1253.37 76.59
3 -4 -21 249.88 29.2
-4 1 -21 223.58 32.2
1 3 -21 258.27 32.9
-3 4 21 216.78 27.5
-4 2 -21 263.67 30.6
2 -4 -21 271.17 31.4
-4 2 -21 223.78 33.1
2 2 -21 265.87 33.1
-4 3 -21 1294.97 85.49
-4 3 -21 1319.97 83.19
3 1 -21 1284.67 83.79
1 -4 -21 1283.97 83.79
-4 4 -21 1282.67 81.89
4 0 -21 1128.09 79.99
0 -4 -21 1167.18 80.29
-4 4 -21 1303.57 82.49
5 -1 -21 337.07 38.8
-1 -4 -21 307.07 38.1
-4 5 -21 361.36 41.6
-5 1 21 300.47 37.2
-4 6 -21 9 20.7
-2 -4 -21 11.6 19.9
-6 2 21 -1.2 18.3
-3 -4 -21 11.9 22.7
-4 7 -21 21.4 22
-7 3 21 19.6 19.9
-4 -4 -21 10.2 24.9
-4 8 -21 16.1 24.2
-8 4 21 -11 20.6
-5 -3 -21 127.39 34.8
-3 8 -21 52.79 26.9
-8 5 21 84.29 26.8
-5 -2 -21 -1.7 23.1
-2 7 -21 40 23.3
-7 5 21 18 19.4
-1 6 -21 141.39 29
-5 -1 -21 90.09 27.7
-6 5 21 107.09 24.8
-5 0 -21 588.34 54.99
5 -5 -21 638.54 51.89
0 5 -21 506.85 50.79
-5 5 21 619.14 50.79
1 4 -21 337.37 38.9
-5 1 -21 317.57 39.7
4 -5 -21 333.17 37.7
4 -5 -21 336.57 34.4
-4 5 21 351.66 36.8
3 -5 -21 9.6 17.7
2 3 -21 15.8 17.8
3 -5 -21 32.8 17.4
-5 2 -21 44.9 21.2
-5 3 -21 483.55 47
3 2 -21 447.16 44.3
-5 3 -21 482.35 43.4
2 -5 -21 515.45 44
4 1 -21 749.82 60.99
-5 4 -21 831.32 62.79
1 -5 -21 838.02 61.49
-5 4 -21 871.11 62.79
0 -5 -21 661.63 55.29
5 0 -21 637.34 53.89
-5 5 -21 657.83 53.79
-5 5 -21 562.54 52.89
6 -1 -21 85.99 25.1
-1 -5 -21 50.19 23.4
-5 6 -21 53.09 22
-5 6 -21 85.49 25.8
-6 1 21 78.59 23.6
-2 -5 -21 18.4 21.2
-5 7 -21 5.4 22.6
-7 2 21 -6.6 19
-3 -5 -21 -9.6 22
-5 8 -21 7.4 23.6
-8 3 21 -1 20.8
-6 -2 -21 169.78 37.2
-2 8 -21 177.18 35
-8 6 21 138.49 31.1
-6 -1 -21 112.39 32.7
-1 7 -21 102.49 28.1
-7 6 21 127.39 28.3
0 6 -21 8.9 19.9
-6 0 -21 -4.5 21.6
-6 6 21 10 17.5
-6 1 -21 50.69 24.1
1 5 -21 53.29 22
5 -6 -21 69.09 22.6
-5 6 21 54.09 20.9
2 4 -21 2.7 17.6
-6 2 -21 -18.2 18.9
4 -6 -21 -16.7 16.4
3 3 -21 21.2 18.6
3 -6 -21 25 19.1
-6 3 -21 45.7 21.8
-6 4 -21 173.48 31
4 2 -21 285.27 35.4
2 -6 -21 200.28 32.9
2 -6 -21 196.68 29.3
-6 4 -21 227.78 32.2
-6 5 -21 88.39 25.2
5 1 -21 86.79 24.5
-6 5 -21 110.59 26.9
1 -6 -21 117.59 25.8
-6 6 -21 -6.1 17.6
6 0 -21 7.2 19.1
0 -6 -21 15.3 21
-6 6 -21 -2.6 19.2
-6 7 -21 47.7 26.1
-1 -6 -21 25.1 24.3
-6 7 -21 45.3 21.1
7 -1 -21 37.5 23.7
-7 1 21 13.6 21.1
-2 -6 -21 69.19 27.5
-6 8 -21 43.3 21.7
-6 8 -21 16.2 25
-8 2 21 37.3 23.8
-1 8 -21 489.45 53.69
0 7 -21 233.28 34.9
-7 0 -21 189.18 38.8
-7 7 21 207.58 34.8
1 6 -21 20.1 21.6
-7 1 -21 96.89 29.2
6 -7 -21 11.2 20.7
5 -7 -21 4.8 19.1
2 5 -21 16.3 19.9
-7 2 -21 12.3 23
-7 3 -21 -6.4 19.1
4 -7 -21 12.8 21.7
3 4 -21 -5.4 17.5
4 3 -21 4.5 17.4
-7 4 -21 4.2 19.2
3 -7 -21 -2.8 20.9
2 -7 -21 28.4 21.8
-7 5 -21 35.1 20.4
-7 5 -21 32 22
5 2 -21 47.1 21.5
6 1 -21 125.49 27.7
1 -7 -21 63.59 26.9
-7 6 -21 96.89 27.1
-7 6 -21 90.09 25.6
-7 7 -21 242.18 38.1
7 0 -21 149.59 31.1
-7 7 -21 247.48 35.5
0 -7 -21 245.58 39.2
8 -1 -21 54.39 25.5
-7 8 -21 24.9 26.9
1 7 -21 -0.2 21.2
2 6 -21 39.2 25.1
-8 2 -21 57.09 29.2
6 -8 -21 12.1 21
-8 3 -21 -30.4 20.5
5 -8 -21 5.4 21.2
3 5 -21 3.7 20.7
4 -8 -21 -23 18.9
-8 4 -21 38.4 23.6
4 4 -21 -2.3 20.5
5 3 -21 30 21.8
-8 5 -21 91.09 28.7
3 -8 -21 50.89 26.3
6 2 -21 196.28 33.1
2 -8 -21 148.59 34.1
-8 6 -21 198.38 33.4
-8 6 -21 141.29 31
-6 -2 21 129.59 34
7 1 -21 488.25 52.69
-8 7 -21 485.45 55.19
0 0 -22 -0.7 13
0 1 -22 106.89 21.5
1 -1 -22 75.99 17.8
-1 0 -22 79.39 17.4
-1 0 -22 84.39 21.3
-1 1 -22 92.09 19.4
0 -1 -22 88.09 18.5
0 -1 -22 52.39 19.7
1 0 -22 54.09 17.8
-1 -1 -22 304.47 36.6
-1 2 -22 350.76 36.6
2 -1 -22 359.16 35.4
-1 3 -22 514.55 45.9
3 -2 -22 537.55 45.1
-2 -1 -22 512.05 48.6
2 -2 -22 381.86 35.4
0 2 -22 356.26 37.9
-2 0 -22 338.37 39.3
1 -2 -22 320.77 31.5
1 1 -22 317.57 34.7
-2 1 -22 320.77 32.9
1 -2 -22 364.76 37.9
-2 1 -22 312.57 37.7
-2 2 -22 347.87 36.8
0 -2 -22 342.57 38.1
2 0 -22 428.96 39.3
3 -1 -22 687.63 54.49
-2 3 -22 770.52 56.49
-1 -2 -22 725.33 57.59
-2 4 -22 894.61 64.09
4 -2 -22 826.02 61.19
-2 -2 -22 813.92 64.89
-2 5 -22 336.77 40.6
-3 -2 -22 341.37 41.4
-5 3 22 364.26 40.2
-3 -1 -22 208.08 32.7
4 -3 -22 154.88 25.5
-1 4 -22 156.78 27.7
-4 3 22 147.99 25.8
0 3 -22 225.48 31.1
-3 0 -22 210.28 32.8
3 -3 -22 219.48 27.8
2 -3 -22 765.52 55.59
-3 1 -22 743.13 58.59
1 2 -22 731.13 56.79
2 -3 -22 742.93 52.79
-3 2 -22 482.65 45.4
-3 2 -22 457.15 40.8
2 1 -22 538.35 45
1 -3 -22 487.05 43.6
3 0 -22 284.37 33.5
0 -3 -22 232.78 31.2
-3 3 -22 178.78 28.7
-3 3 -22 180.08 29.3
4 -1 -22 484.85 46.2
-1 -3 -22 549.95 50.79
-3 4 -22 545.55 47.5
5 -2 -22 613.64 54.19
-3 5 -22 659.83 54.89
-2 -3 -22 694.23 57.29
-5 2 22 602.94 53.39
-3 6 -22 101.19 26.5
-3 -3 -22 133.49 31.6
-6 3 22 108.39 26.5
-4 -3 -22 37.8 25.9
-3 7 -22 47.8 25.3
-7 4 22 38.4 24.9
-2 6 -22 160.38 31.3
-4 -2 -22 102.29 29.7
-6 4 22 110.09 26.6
-1 5 -22 116.99 25.8
-4 -1 -22 111.59 28.6
-5 4 22 171.98 27.9
-4 0 -22 113.19 27.3
0 4 -22 119.59 26.2
4 -4 -22 125.49 23.6
-4 4 22 137.49 25
3 -4 -22 505.45 45.8
1 3 -22 539.95 50.29
-4 1 -22 647.44 52.69
3 -4 -22 556.74 45
-3 4 22 604.54 46.5
2 -4 -22 818.32 58.49
-4 2 -22 900.91 63.99
2 2 -22 672.63 58.39
1 -4 -22 143.09 25.8
-4 3 -22 146.29 25.6
3 1 -22 157.38 27.4
-4 3 -22 189.58 30.9
-4 4 -22 72.19 23.4
4 0 -22 104.29 24
-4 4 -22 96.19 23.6
0 -4 -22 106.29 24
5 -1 -22 327.37 38.5
-1 -4 -22 272.67 37.6
-4 5 -22 328.67 39.6
-4 6 -22 98.89 27.1
-2 -4 -22 121.89 29.4
6 -2 -22 85.99 24.2
-6 2 22 140.09 29.1
-3 -4 -22 -6.1 22.1
-4 7 -22 -0.2 21.7
-7 3 22 22.5 20.2
-4 8 -22 26.3 25.5
-4 -4 -22 13.4 26
-8 4 22 11.4 23.6
-5 -3 -22 44.2 30.4
-3 8 -22 78.89 30.2
-8 5 22 64.19 26.2
-5 -2 -22 254.67 42.5
-2 7 -22 308.77 40.2
-7 5 22 243.58 37.9
-1 6 -22 261.37 37.7
-5 -1 -22 375.16 46.7
-6 5 22 328.37 39.7
-5 0 -22 259.37 38.7
5 -5 -22 232.58 33.3
0 5 -22 210.98 33.2
-5 5 22 253.07 33.9
1 4 -22 287.57 35.7
-5 1 -22 259.17 37.8
4 -5 -22 267.87 34.4
-5 2 -22 582.54 55.19
3 -5 -22 669.03 51.49
3 -5 -22 658.43 55.49
2 3 -22 656.73 54.89
-5 3 -22 309.97 39.6
-5 3 -22 425.36 55.09
3 2 -22 369.26 41
2 -5 -22 368.86 39.6
-5 4 -22 75.59 22.5
1 -5 -22 89.19 22.2
-5 4 -22 95.09 25
4 1 -22 103.29 24.4
-5 5 -22 267.17 35.6
-5 5 -22 239.98 35.2
0 -5 -22 264.67 36
5 0 -22 230.88 33.5
-1 -5 -22 129.89 29.9
-5 6 -22 78.79 24.6
6 -1 -22 117.89 27.9
-5 6 -22 149.69 30.7
-5 7 -22 71.69 27.4
-5 7 -22 38.9 21
-2 -5 -22 41.1 25.4
-7 2 22 69.89 26.1
-3 -5 -22 -7.3 23
-5 8 -22 29.8 26.1
-8 3 22 25 22.9
-1 7 -22 224.08 37
-6 -1 -22 278.87 43.7
-7 6 22 261.57 37.5
-6 0 -22 426.26 49.7
0 6 -22 407.16 46.9
-6 6 22 342.07 42.4
5 -6 -22 118.69 27.5
1 5 -22 130.49 27.7
-6 1 -22 77.09 29.2
-6 2 -22 94.59 26.8
2 4 -22 93.09 24.8
4 -6 -22 132.29 27.9
3 -6 -22 98.19 26.1
3 3 -22 137.69 27.7
-6 3 -22 144.89 30.5
-6 4 -22 154.88 29.7
2 -6 -22 127.89 28.6
4 2 -22 166.38 30.9
-6 4 -22 122.19 35
1 -6 -22 384.76 43.9
-6 5 -22 393.36 45.6
5 1 -22 398.06 46.1
-6 5 -22 374.36 43.9
6 0 -22 462.05 48.1
-6 6 -22 417.96 48.3
0 -6 -22 468.05 49.4
-6 6 -22 398.96 47.2
7 -1 -22 160.68 31.7
-6 7 -22 175.28 34.9
-1 -6 -22 127.79 32
-7 1 22 141.49 30.7
-7 0 -22 282.07 45.1
0 7 -22 256.57 40.2
-7 7 22 228.38 37
6 -7 -22 141.19 29.7
-7 1 -22 175.98 36.2
1 6 -22 95.79 27.9
5 -7 -22 -4.6 18.4
-7 2 -22 33.3 24.9
2 5 -22 69.39 24.8
3 4 -22 16.9 21.3
4 -7 -22 -26.8 18.6
-7 3 -22 17.9 21.9
3 -7 -22 48.9 24.3
4 3 -22 98.69 27
-7 4 -22 54.29 24.6
5 2 -22 295.67 38.9
2 -7 -22 272.77 40.1
-7 5 -22 303.37 39.9
6 1 -22 222.38 35.9
-7 6 -22 252.97 38.1
1 -7 -22 185.98 35.9
-7 6 -22 192.68 33.9
-7 7 -22 297.27 39
7 0 -22 277.47 40.5
-7 7 -22 322.47 44.7
0 -7 -22 292.87 44
5 -8 -22 3.1 20.4
3 5 -22 -9 20.8
-8 3 -22 27.1 25.6
4 4 -22 6.3 21.2
4 -8 -22 9.9 23
-8 4 -22 -1.1 21.8
3 -8 -22 95.79 31
-8 5 -22 43.5 25.7
5 3 -22 55.79 25.5
0 0 -23 90.29 19.3
-1 0 -23 401.26 41.7
-1 0 -23 431.06 36.9
0 1 -23 373.66 37.7
1 -1 -23 392.26 37.5
1 0 -23 377.96 38.2
0 -1 -23 338.37 34.3
0 -1 -23 393.36 40.3
-1 1 -23 389.46 37.2
2 -1 -23 591.24 48.4
-1 -1 -23 553.04 50.69
-1 2 -23 642.34 49.7
-2 -1 -23 381.56 42
-1 3 -23 290.67 36.5
3 -2 -23 381.46 38.3
-2 0 -23 735.63 59.49
0 2 -23 739.33 56.49
2 -2 -23 770.32 53.99
1 -2 -23 587.94 49.9
-2 1 -23 577.94 51.29
-2 1 -23 576.84 46.8
1 1 -23 716.13 51.29
1 -2 -23 564.74 45.4
2 0 -23 835.12 59.09
0 -2 -23 759.22 59.59
-2 2 -23 813.62 60.99
-2 2 -23 746.43 57.49
-2 3 -23 169.68 28.6
-1 -2 -23 210.18 31.2
3 -1 -23 185.98 28.7
-2 4 -23 56.39 21.3
4 -2 -23 74.79 22
-3 -2 -23 227.58 35.9
5 -3 -23 159.58 29.8
-2 5 -23 264.37 34.8
-5 3 23 238.68 34
-3 -1 -23 -9.8 18.9
4 -3 -23 35.5 18.3
-1 4 -23 21.9 18.8
-4 3 23 -6.4 16.1
-3 0 -23 173.38 30.5
3 -3 -23 177.88 26.4
0 3 -23 174.88 29
2 -3 -23 201.38 26.3
1 2 -23 219.98 31.6
-3 1 -23 238.18 33.3
2 -3 -23 184.98 27.8
1 -3 -23 399.56 39
-3 2 -23 293.77 34.8
-3 2 -23 312.07 38.4
2 1 -23 387.06 39.6
-3 3 -23 133.39 27.8
3 0 -23 163.28 27
0 -3 -23 147.99 27.6
-3 3 -23 203.78 29.4
-3 4 -23 38.7 21
-1 -3 -23 66.99 23
4 -1 -23 3.1 17.5
-2 -3 -23 208.18 34.5
5 -2 -23 241.68 33.1
-3 5 -23 168.78 31.4
-3 6 -23 277.97 39.5
-3 -3 -23 278.67 42.1
-6 3 23 267.87 37.9
-3 7 -23 228.38 37.2
-4 -3 -23 205.88 40.2
-7 4 23 218.88 35.8
-4 -2 -23 207.78 37.2
-2 6 -23 287.57 38.1
-6 4 23 224.38 34.6
-1 5 -23 63.39 23.7
-4 -1 -23 41 24.5
-5 4 23 51.59 22.4
-4 0 -23 -5.5 18.4
4 -4 -23 -15.8 14.9
4 -4 -23 -2.8 15.9
0 4 -23 -0.1 18.2
-4 4 23 -9.7 15.8
1 3 -23 50.69 21.8
-4 1 -23 33.7 20.8
3 -4 -23 50.99 18.7
2 2 -23 44.6 21
2 -4 -23 56.89 19.7
-4 2 -23 60.39 23.2
3 1 -23 35.5 19.2
-4 3 -23 57.09 23
1 -4 -23 43.9 19.3
-4 3 -23 26.8 17.9
4 0 -23 -19.4 16.1
-4 4 -23 2 18.1
0 -4 -23 2.1 18.2
-4 4 -23 -7.2 16.8
-4 5 -23 247.78 35.6
5 -1 -23 258.67 35.4
-1 -4 -23 275.97 37.5
-4 5 -23 268.77 37.8
6 -2 -23 322.77 40.9
-2 -4 -23 452.45 49.1
-4 6 -23 308.67 42.8
-6 2 23 375.56 44.6
-3 -4 -23 135.99 34.7
-4 7 -23 155.88 33.9
-7 3 23 98.29 28.1
-2 7 -23 205.58 36.4
-5 -2 -23 135.39 36.9
-7 5 23 147.29 32.3
-1 6 -23 31 22.9
-5 -1 -23 55.39 27.3
-6 5 23 27.5 22.3
-5 0 -23 135.19 31.2
0 5 -23 100.69 26.7
-5 5 23 107.09 25.4
4 -5 -23 300.67 37.6
-5 1 -23 291.67 40.6
1 4 -23 273.67 36.1
-5 2 -23 218.48 35.9
2 3 -23 293.07 36.8
3 -5 -23 201.68 32.5
3 -5 -23 194.88 29.4
-5 3 -23 242.28 35.5
3 2 -23 172.08 29.6
2 -5 -23 180.58 28.8
1 -5 -23 53.99 21.4
-5 4 -23 69.09 23.3
4 1 -23 67.49 22.5
-5 4 -23 86.39 24.8
-5 5 -23 147.09 30.5
5 0 -23 169.68 31.8
0 -5 -23 181.48 32.5
-5 5 -23 174.48 32.4
-5 6 -23 422.26 46.5
-5 6 -23 409.66 48.3
-1 -5 -23 455.45 49.7
6 -1 -23 415.06 46.7
-2 -5 -23 234.08 39.8
-5 7 -23 235.68 39.6
-5 7 -23 286.67 38.1
7 -2 -23 286.87 40.7
-7 2 23 269.77 39.1
-6 0 -23 105.89 31.6
0 6 -23 88.19 28.5
-6 6 23 70.79 25
5 -6 -23 360.46 43.3
1 5 -23 332.37 41.1
-6 1 -23 347.17 46.6
2 4 -23 377.46 43.9
-6 2 -23 385.56 47
4 -6 -23 327.47 42.2
3 3 -23 318.67 40.2
-6 3 -23 260.97 39.1
3 -6 -23 272.97 38.3
-6 4 -23 307.07 40.6
4 2 -23 299.57 39.8
2 -6 -23 268.07 39
-6 5 -23 56.29 24.5
-6 5 -23 54.39 23.2
5 1 -23 18.5 21.7
1 -6 -23 32.2 22
0 -6 -23 104.69 28.5
6 0 -23 107.79 28.7
-6 6 -23 118.29 30.4
-6 6 -23 115.49 28.4
5 -7 -23 240.08 37
-7 2 -23 226.18 40.1
2 5 -23 236.38 36
4 -7 -23 122.29 31.5
-7 3 -23 101.49 30
3 4 -23 135.99 29.7
4 3 -23 252.27 37.3
-7 4 -23 248.08 38.3
3 -7 -23 201.18 38
2 -7 -23 213.78 36.9
5 2 -23 167.08 31.8
-7 5 -23 177.08 34.5
0 0 -24 2039.2 119.69
-1 0 -24 949.01 73.09
0 1 -24 947.31 64.49
-1 0 -24 823.32 66.69
1 -1 -24 940.51 63.79
1 0 -24 957.4 65.39
-1 1 -24 914.21 64.49
0 -1 -24 922.81 67.89
-1 -1 -24 152.98 28.7
-1 2 -24 199.18 29.4
2 -1 -24 187.68 27.4
-1 3 -24 62.99 21.8
3 -2 -24 84.89 21.8
-2 -1 -24 74.49 24.7
-2 0 -24 60.39 22.9
2 -2 -24 98.69 20.9
0 2 -24 92.09 22.4
1 1 -24 169.98 29
1 -2 -24 153.68 27.5
-2 1 -24 206.38 27.5
-2 1 -24 164.68 28.8
-2 2 -24 75.89 21.6
-2 2 -24 99.29 24.7
2 0 -24 113.19 24.1
0 -2 -24 117.79 25.2
-2 3 -24 66.89 22.2
3 -1 -24 51.79 19.7
-1 -2 -24 60.19 23.5
4 -2 -24 169.08 29.9
-2 -2 -24 195.78 33.5
-2 4 -24 196.68 31.2
-3 -2 -24 116.39 29.4
5 -3 -24 105.89 25.6
-2 5 -24 83.79 26.4
-5 3 24 126.09 27.9
4 -3 -24 161.58 27.6
-3 -1 -24 133.19 30.3
-1 4 -24 206.68 31.6
-3 0 -24 133.19 28.9
0 3 -24 202.38 30.5
3 -3 -24 162.88 26.3
-3 1 -24 72.89 25
1 2 -24 66.09 22.5
2 -3 -24 95.39 23.4
-3 2 -24 76.39 20.9
2 1 -24 44.3 21.7
1 -3 -24 72.09 22.6
-3 2 -24 69.19 23.7
-3 3 -24 184.28 32.2
0 -3 -24 167.88 30.9
-3 3 -24 178.78 28.8
3 0 -24 193.38 31.1
-3 4 -24 200.28 32
4 -1 -24 251.37 34.1
-1 -3 -24 150.98 31.3
-2 -3 -24 36.9 23.9
5 -2 -24 66.59 23.8
-3 5 -24 54.29 23.4
-3 -3 -24 83.09 29
-3 6 -24 76.69 27
6 -3 -24 42.2 22.6
-6 3 24 104.39 27.6
-2 6 -24 37.1 23.7
-4 -2 -24 -5.1 23.4
-6 4 24 5.9 20.3
5 -4 -24 190.48 30.9
-4 -1 -24 227.78 37.6
-1 5 -24 225.68 34.9
-5 4 24 205.48 33.3
0 4 -24 272.97 35.8
4 -4 -24 188.48 29.7
4 -4 -24 216.78 30.6
-4 0 -24 271.47 38.4
4 -4 -24 251.47 33.3
3 -4 -24 182.08 28.7
-4 1 -24 260.67 37.2
1 3 -24 188.48 31
-4 2 -24 201.28 33
2 2 -24 203.58 33.1
2 -4 -24 202.18 31.2
-4 3 -24 196.78 32.6
-4 3 -24 197.98 29.6
1 -4 -24 161.38 29.6
3 1 -24 159.18 29.6
-4 4 -24 243.48 34.8
4 0 -24 186.08 31.7
0 -4 -24 274.97 36.7
-4 4 -24 269.67 36.1
-4 5 -24 14.1 21.7
-1 -4 -24 11.1 22
-4 5 -24 22.8 20.7
5 -1 -24 1.8 19.6
6 -2 -24 145.19 30.1
-2 -4 -24 165.68 33.7
-4 6 -24 137.69 32.6
-5 -1 -24 22.3 25.1
-1 6 -24 31.7 24.7
-6 5 24 42.5 22.7
-5 0 -24 144.59 33.8
0 5 -24 110.39 29.1
-5 5 24 252.77 40.8
-5 1 -24 15.8 21.7
4 -5 -24 15.7 20.6
1 4 -24 15.3 21.9
2 3 -24 33.2 21.2
3 -5 -24 54.19 23
3 -5 -24 24.6 19.4
-5 2 -24 63.19 25.6
3 2 -24 103.09 25.7
2 -5 -24 91.39 25.2
-5 3 -24 115.69 28.8
1 -5 -24 233.88 34.3
-5 4 -24 173.78 32.5
4 1 -24 179.78 32.1
-5 4 -24 256.87 35.7
-5 5 -24 149.88 31.4
0 -5 -24 183.88 32.9
5 0 -24 162.48 31.1
-5 5 -24 218.78 35.4
-5 6 -24 34.4 24.7
6 -1 -24 47.9 23.8
-5 6 -24 22.1 21.7
-1 -5 -24 22.6 24.2
5 -6 -24 44.9 23.6
1 5 -24 46.1 24
-6 1 -24 13.5 23.7
2 4 -24 124.29 28.9
4 -6 -24 117.99 28.5
-6 2 -24 123.19 32.3
-6 3 -24 53.39 26.8
3 -6 -24 91.39 26.8
3 3 -24 84.89 25.9
4 2 -24 39.4 22.7
-6 4 -24 12.2 22.6
2 -6 -24 1.1 22.2
-6 5 -24 20.3 23.1
-6 5 -24 8.9 22.2
5 1 -24 34.2 23.2
0 0 -25 33.6 18
1 -1 -25 381.86 39.1
-1 0 -25 365.66 43.3
0 1 -25 400.96 40
-1 1 -25 318.57 37.3
0 -1 -25 383.26 41.9
1 0 -25 400.56 41.1
-1 1 -25 341.07 41.3
2 -1 -25 529.15 47.7
-1 2 -25 577.44 49.3
-1 -1 -25 591.24 53.19
3 -2 -25 275.87 34.4
-1 3 -25 261.87 35.6
-2 -1 -25 271.47 38.8
-2 0 -25 565.84 56.29
2 -2 -25 636.74 50.09
0 2 -25 565.14 52.19
1 -2 -25 585.54 50.79
-2 1 -25 564.24 52.99
1 1 -25 549.95 49.6
-2 2 -25 563.34 48.9
-2 2 -25 604.64 53.39
0 -2 -25 549.15 51.79
2 0 -25 578.24 50.39
-1 -2 -25 149.49 29.9
3 -1 -25 150.68 27.8
-2 3 -25 156.88 29.4
-2 4 -25 21.4 21
-2 -2 -25 11.6 21
4 -2 -25 3.2 18.8
5 -3 -25 133.29 28.6
-3 -2 -25 125.09 31.4
-2 5 -25 109.99 28.5
4 -3 -25 14.4 18.5
-1 4 -25 0.1 19.4
-3 -1 -25 -20.3 19.9
3 -3 -25 79.79 22.5
3 -3 -25 89.99 23.8
0 3 -25 88.79 25
-3 0 -25 184.38 33.6
1 2 -25 166.18 29
2 -3 -25 135.79 26.8
-3 1 -25 189.68 33.8
2 1 -25 263.37 35.9
1 -3 -25 257.07 35.5
-3 2 -25 303.47 39.7
-3 3 -25 112.69 25.9
3 0 -25 79.99 24.5
0 -3 -25 90.39 26.5
-3 3 -25 137.39 27.9
-3 4 -25 37.8 22.1
4 -1 -25 42.6 22
-1 -3 -25 41.6 22.7
-3 4 -25 20.7 21.6
-3 5 -25 218.38 35.4
5 -2 -25 143.99 30.9
-2 -3 -25 238.88 38.2
-3 6 -25 346.67 46.4
-3 -3 -25 294.37 45.3
6 -3 -25 402.06 46.3
5 -4 -25 10.3 20
-4 -1 -25 19.2 24.7
-1 5 -25 37.1 24
-5 4 25 -3.7 19.6
4 -4 -25 23.8 22.5
-4 0 -25 35.2 24.2
0 4 -25 16.4 23
4 -4 -25 14.8 18.1
1 3 -25 55.29 22.5
-4 1 -25 16.8 21.7
3 -4 -25 50.49 21.2
2 -4 -25 -0.4 17.4
2 2 -25 0.3 19.5
-4 2 -25 28.1 21.4
3 1 -25 18 20.9
-4 3 -25 54.59 24.1
1 -4 -25 -0.2 18.9
0 -4 -25 0.6 20
4 0 -25 10.2 19.7
-4 4 -25 47.2 23.2
-4 4 -25 15.5 22.1
-4 5 -25 213.58 36
-4 5 -25 178.18 32.7
-1 -4 -25 185.88 34.8
5 -1 -25 199.18 33.6
0 5 -25 102.89 28.2
-5 0 -25 84.89 31.5
-5 1 -25 183.98 35.7
1 4 -25 239.98 36.6
4 -5 -25 220.78 34.7
-5 2 -25 233.88 39.4
2 3 -25 206.88 32.8
3 -5 -25 156.68 31.6
2 -5 -25 162.98 30.4
-5 3 -25 154.68 31.3
3 2 -25 173.38 31.6
4 1 -25 11.4 21.6
1 -5 -25 23.8 21.7
-5 4 -25 4.2 22
5 0 -25 35.6 23.5
-5 5 -25 75.09 26.6
0 -5 -25 82.79 27.7
-5 5 -25 97.39 28.5
-6 3 -25 419.26 50.09
3 -6 -25 334.67 44.2
3 3 -25 261.77 40.7
0 0 -26 -3.3 17.8
0 0 -26 -2.4 16.6
1 -1 -26 25.5 19.6
1 -1 -26 33 20.9
-1 0 -26 14.5 20.2
0 1 -26 33.1 19.1
-1 1 -26 26.2 19.1
0 -1 -26 49.8 21.6
1 0 -26 23.3 18.7
-1 1 -26 37.8 22.5
-1 -1 -26 201.08 33.9
-1 2 -26 150.28 27.8
2 -1 -26 170.88 29.2
3 -2 -26 256.77 33.8
-1 3 -26 195.48 33.3
-2 -1 -26 234.88 36.7
0 2 -26 125.29 27.7
2 -2 -26 145.69 28.2
-2 0 -26 222.38 35.4
1 -2 -26 179.08 30.7
-2 1 -26 157.38 31.9
1 1 -26 167.18 29.8
-2 2 -26 212.78 33.9
-2 2 -26 153.08 28.5
2 0 -26 219.48 32.9
0 -2 -26 174.48 32.6
-1 -2 -26 371.76 45.2
-2 3 -26 463.75 45.3
3 -1 -26 362.06 42.7
-2 4 -26 421.86 48.6
4 -2 -26 414.46 45.2
-2 -2 -26 380.96 46.7
-2 5 -26 147.89 33.2
5 -3 -26 195.98 32.7
-3 -2 -26 196.98 37.3
4 -3 -26 100.09 26
-3 -1 -26 86.99 28.7
-1 4 -26 103.19 28.2
0 3 -26 93.09 26.8
-3 0 -26 109.99 29
3 -3 -26 54.99 22.4
1 2 -26 347.27 41.6
2 -3 -26 313.87 40.3
-3 1 -26 470.75 49.1
2 1 -26 211.78 33.7
-3 2 -26 230.28 36.7
1 -3 -26 274.37 37.5
-3 3 -26 83.79 25.6
-3 3 -26 112.19 29.2
3 0 -26 136.79 27.7
-1 -3 -26 330.97 43.8
-3 4 -26 357.36 42.8
-3 4 -26 303.47 41
4 -1 -26 279.07 38.3
-3 5 -26 369.66 45.8
-2 -3 -26 313.17 44.5
5 -2 -26 308.87 42.5
4 -4 -26 61.19 21.1
0 4 -26 34 23
-4 0 -26 61.09 26.1
1 3 -26 327.27 42.4
-4 1 -26 274.87 42.9
3 -4 -26 311.07 38
2 -4 -26 438.16 45.7
2 2 -26 420.96 48.3
-4 2 -26 472.85 51.49
1 -4 -26 106.39 26.7
3 1 -26 76.99 26
-4 3 -26 84.49 29.2
0 -4 -26 72.79 26.5
-4 4 -26 82.39 26.7
4 0 -26 83.99 27
-4 4 -26 91.59 27.4
2 3 -26 278.07 40.5
-5 2 -26 304.97 43.3
3 -5 -26 262.97 39.1
3 2 -26 196.68 36
-5 3 -26 213.58 37.1
2 -5 -26 194.68 34
0 0 -27 2.3 19.3
0 1 -27 15.7 19.2
-1 0 -27 2.7 19.6
1 -1 -27 15.5 21
0 -1 -27 8 20.3
-1 1 -27 2.5 22
1 0 -27 10.2 18.5
-1 2 -27 -8.9 18.9
2 -1 -27 24.5 20.1
-1 -1 -27 24.4 22.4
-1 3 -27 117.09 28.3
-2 -1 -27 149.79 32.6
3 -2 -27 118.49 26.9
0 2 -27 97.89 26.1
2 -2 -27 79.89 25.6
-2 0 -27 88.39 27.8
1 -2 -27 25 20.8
1 1 -27 7.8 20.7
-2 1 -27 14 21.5
-2 2 -27 109.89 28.8
2 0 -27 36.4 22.4
0 -2 -27 83.29 26.1
-2 3 -27 11.4 20.8
3 -1 -27 6.3 20.3
-1 -2 -27 27.5 24
-2 3 -27 -9.1 20.8
-3 0 -27 481.55 53.09
3 -3 -27 400.16 47.2
0 3 -27 467.45 50.09
2 -3 -27 9 19
-3 1 -27 10.2 23.1
1 2 -27 33.8 22.9
2 1 -27 115.09 29
1 -3 -27 109.79 27.7
-3 2 -27 98.29 29.6
0 -3 -27 453.65 52.09
-3 3 -27 428.76 50.99
3 0 -27 529.75 52.79
0 0 -28 42.5 23.7
-1 0 -28 26.4 23.9
1 -1 -28 60.09 24
0 1 -28 38.9 21.5
1 0 -28 69.89 23.8
-1 1 -28 31.3 23.9
0 -1 -28 21.9 21.8
