#------------------------------------------------------------------------------
#$Date: 2020-06-05 12:42:00 +0300 (Fri, 05 Jun 2020) $
#$Revision: 252681 $
#$URL: file:///home/coder/svn-repositories/cod/cif/7/12/64/7126489.cif $
#------------------------------------------------------------------------------
#
# This file is available in the Crystallography Open Database (COD),
# http://www.crystallography.net/
#
# All data on this site have been placed in the public domain by the
# contributors.
#
data_7126489
loop_
_publ_author_name
'Chen, Jing'
'Chao, Meng-Yao'
'Yan Liu, ?'
'Xu, Bo-Wei'
'Zhang, Wen-Hua'
'Young, David J.'
_publ_section_title
;
 An N,N'-diethylformamide solvent-induced conversion cascade within a
 metal-organic framework single crystal.
;
_journal_issue                   44
_journal_name_full
'Chemical communications (Cambridge, England)'
_journal_page_first              5877
_journal_page_last               5880
_journal_paper_doi               10.1039/d0cc02420a
_journal_volume                  56
_journal_year                    2020
_chemical_formula_moiety
'C69 H49 Cd3 N3 O14, C0.75 H1.75 N0.25 O0.25 [+ solvent]'
_chemical_formula_sum            'C69.75 H50.75 Cd3 N3.25 O14.25'
_chemical_formula_weight         1499.58
_space_group_crystal_system      triclinic
_space_group_IT_number           2
_space_group_name_Hall           '-P 1'
_space_group_name_H-M_alt        'P -1'
_atom_sites_solution_hydrogens   mixed
_audit_creation_method           SHELXL-2016/6
_audit_update_record
;
2020-01-17 deposited with the CCDC.	2020-04-28 downloaded from the CCDC.
;
_cell_angle_alpha                65.931(4)
_cell_angle_beta                 77.105(4)
_cell_angle_gamma                62.489(4)
_cell_formula_units_Z            2
_cell_length_a                   16.713(3)
_cell_length_b                   16.927(2)
_cell_length_c                   17.944(3)
_cell_measurement_reflns_used    9871
_cell_measurement_temperature    205(2)
_cell_measurement_theta_max      28.21
_cell_measurement_theta_min      2.30
_cell_volume                     4107.1(11)
_computing_cell_refinement       'Bruker D8 Quest'
_computing_data_collection       'Bruker D8 Quest'
_computing_data_reduction        'Bruker D8 Quest'
_computing_molecular_graphics    'SHELXL-2013 (Sheldrick, 2013)'
_computing_publication_material  'publCIF (Westrip, 2010)'
_computing_structure_refinement  'SHELXL-2016/6 (Sheldrick, 2016)'
_computing_structure_solution    'SHELXT 2014/5 (Sheldrick, 2014)'
_diffrn_ambient_temperature      205(2)
_diffrn_measured_fraction_theta_full 0.961
_diffrn_measured_fraction_theta_max 0.906
_diffrn_measurement_device_type  'Bruker D8 Quest'
_diffrn_measurement_method       'phi and omega scans'
_diffrn_radiation_type           MoK\a
_diffrn_radiation_wavelength     0.71073
_diffrn_reflns_av_R_equivalents  0.0935
_diffrn_reflns_av_unetI/netI     0.2162
_diffrn_reflns_Laue_measured_fraction_full 0.961
_diffrn_reflns_Laue_measured_fraction_max 0.906
_diffrn_reflns_limit_h_max       22
_diffrn_reflns_limit_h_min       -19
_diffrn_reflns_limit_k_max       22
_diffrn_reflns_limit_k_min       -22
_diffrn_reflns_limit_l_max       23
_diffrn_reflns_limit_l_min       -22
_diffrn_reflns_number            33818
_diffrn_reflns_point_group_measured_fraction_full 0.961
_diffrn_reflns_point_group_measured_fraction_max 0.906
_diffrn_reflns_theta_full        25.242
_diffrn_reflns_theta_max         28.431
_diffrn_reflns_theta_min         2.378
_diffrn_standards_decay_%        0
_diffrn_standards_interval_count 0
_diffrn_standards_interval_time  0
_diffrn_standards_number         0
_exptl_absorpt_coefficient_mu    0.823
_exptl_absorpt_correction_T_max  0.960
_exptl_absorpt_correction_T_min  0.921
_exptl_absorpt_correction_type   multi-scan
_exptl_absorpt_process_details
;
 Sheldrick, G.M. SADABS (Program for Scaling and Correction of Area Detector
 Data), version 2008/1; University of G\"ottingen: G\"ottingen, Germany, 2008.
;
_exptl_crystal_colour            colourless
_exptl_crystal_density_diffrn    1.213
_exptl_crystal_description       block
_exptl_crystal_F_000             1500
_exptl_crystal_size_max          0.100
_exptl_crystal_size_mid          0.100
_exptl_crystal_size_min          0.050
_refine_diff_density_max         1.435
_refine_diff_density_min         -1.305
_refine_diff_density_rms         0.159
_refine_ls_extinction_method     none
_refine_ls_goodness_of_fit_ref   1.053
_refine_ls_hydrogen_treatment    constr
_refine_ls_matrix_type           full
_refine_ls_number_parameters     811
_refine_ls_number_reflns         18754
_refine_ls_number_restraints     4
_refine_ls_restrained_S_all      1.053
_refine_ls_R_factor_all          0.1970
_refine_ls_R_factor_gt           0.0899
_refine_ls_shift/su_max          0.001
_refine_ls_shift/su_mean         0.000
_refine_ls_structure_factor_coef Fsqd
_refine_ls_weighting_details
'w=1/[\s^2^(Fo^2^)+(0.1197P)^2^] where P=(Fo^2^+2Fc^2^)/3'
_refine_ls_weighting_scheme      calc
_refine_ls_wR_factor_gt          0.2295
_refine_ls_wR_factor_ref         0.2749
_reflns_Friedel_coverage         0.000
_reflns_number_gt                8468
_reflns_number_total             18754
_reflns_threshold_expression     'I > 2\s(I)'
_cod_data_source_file            d0cc02420a2.cif
_cod_data_source_block           CD3-BPE-DMF
_cod_depositor_comments
'Adding full bibliography for 7126483--7126489.cif.'
_cod_original_cell_volume        4107.3(11)
_cod_database_code               7126489
_publcif_datablock.id            {13ba9c73-5246-468e-a6f9-301a9a28a1e4}
_shelx_shelxl_version_number     2016/6
_shelx_space_group_comment
;
The symmetry employed for this shelxl refinement is uniquely defined
by the following loop, which should always be used as a source of
symmetry information in preference to the above space-group names.
They are only intended as comments.
;
_shelx_estimated_absorpt_t_min   0.922
_shelx_estimated_absorpt_t_max   0.960
_shelx_res_file
;
TITL b171225c_0m_a_a.res in P-1
    T.res
    created by SHELXL-2016/6 at 15:02:48 on 10-Jan-2018
REM Old TITL b171225c_0m_a.res in P-1
REM SHELXT solution in P-1
REM R1 0.255,  Rweak 0.031,  Alpha 0.126,  Orientation as input
REM Formula found by SHELXT:  C72 N10 O10 Cd3
CELL  0.71073  16.7132  16.9272  17.9444   65.931   77.105   62.489
ZERR   2.000   0.0026   0.0024   0.0028    0.004    0.004    0.004
LATT  1
SFAC C H N O CD
UNIT 139.5 101.5 6.5 28.5 6
TEMP -68
SIZE 0.050 0.100 0.100
L.S. 20
DFIX 1.47 0.02 C70 N4 C71 N4
DFIX 1.35 0.02 N4 C72
DFIX 1.23 0.02 C72 O15
EADP C70 C71 C72 N4 O15
EADP C52 C53 C48
BOND $H
ACTA
FMAP 2
PLAN 4
ABIN
WGHT    0.119700
FVAR       0.18985
CD1   5    0.511436    0.723264    0.095390    11.00000    0.02229    0.01935 =
         0.04940   -0.01233   -0.00334   -0.00554
CD2   5    0.671100    0.528715    0.251724    11.00000    0.03613    0.01724 =
         0.05643   -0.00537   -0.01420   -0.00990
CD3   5    0.804100    0.339248    0.432142    11.00000    0.02342    0.02319 =
         0.05880   -0.01327   -0.00344   -0.00391
O1    4    0.550434    0.781618    0.167945    11.00000    0.03757    0.03140 =
         0.05176   -0.01319   -0.00120   -0.02120
O2    4    0.681425    0.660991    0.222821    11.00000    0.04464    0.01654 =
         0.06187   -0.00569   -0.01262   -0.01002
O3    4    0.537814    1.597809    0.049368    11.00000    0.04590    0.03036 =
         0.08450   -0.03144   -0.01237   -0.00545
O4    4    0.645680    1.578038    0.116395    11.00000    0.04134    0.02361 =
         0.04488   -0.01537   -0.00568   -0.01217
O5    4    1.374034    0.874683    0.057950    11.00000    0.03040    0.04253 =
         0.08086   -0.01987   -0.00067   -0.01552
O6    4    1.367878    0.739110    0.125720    11.00000    0.02430    0.03704 =
         0.08314   -0.01364   -0.00133   -0.00407
O7    4    0.649432    0.401521    0.282153    11.00000    0.03398    0.03064 =
         0.07082   -0.01308   -0.00072   -0.01840
O8    4    0.757054    0.280331    0.368443    11.00000    0.03709    0.03051 =
         0.06428   -0.01081   -0.01903   -0.01016
O9    4   -0.054664    0.326212    0.397153    11.00000    0.02320    0.04722 =
         0.10131   -0.00663   -0.00002    0.00302
O10   4   -0.056290    0.187497    0.460399    11.00000    0.02660    0.06114 =
         0.09514   -0.00809   -0.00652   -0.00526
O11   4    0.684943   -0.511144    0.391530    11.00000    0.05414    0.02364 =
         0.06151   -0.01375   -0.01880   -0.00721
O12   4    0.768880   -0.534546    0.482020    11.00000    0.03432    0.02890 =
         0.07373   -0.01446   -0.02208   -0.00019
O13   4    0.510067    0.597384    0.255333    11.00000    0.03363    0.03226 =
         0.06939   -0.01503   -0.00367   -0.01616
O14   4    0.827020    0.452912    0.245549    11.00000    0.04167    0.05538 =
         0.17199   -0.05085   -0.03613    0.00071
AFIX   3
H14A  2    0.852530    0.402332    0.236349    11.00000   -1.20000
H14B  2    0.857480    0.476362    0.252589    11.00000   -1.20000
AFIX   0
N1    3    0.572486    0.808222   -0.022480    11.00000    0.03702    0.02445 =
         0.04124   -0.01165    0.00056   -0.01137
N2    3    0.755516    1.251310   -0.444491    11.00000    0.04812    0.02637 =
         0.04248   -0.00898   -0.00143   -0.00829
N3    3    0.439142    0.503448    0.337837    11.00000    0.03527    0.04199 =
         0.07268   -0.02543    0.00820   -0.01716
C1    1    0.577054    0.883204   -0.019562    11.00000    0.04923    0.03256 =
         0.04640   -0.01872    0.00835   -0.01696
AFIX  43
H1    2    0.554836    0.897210    0.028601    11.00000   -1.20000
AFIX   0
C2    1    0.611594    0.942190   -0.081133    11.00000    0.04451    0.04147 =
         0.03847   -0.01712    0.01123   -0.01773
AFIX  43
H2    2    0.615116    0.992348   -0.073732    11.00000   -1.20000
AFIX   0
C3    1    0.640205    0.926305   -0.152205    11.00000    0.04210    0.03256 =
         0.05521   -0.01984    0.00665   -0.01793
C4    1    0.637243    0.846454   -0.156276    11.00000    0.09026    0.07117 =
         0.04624   -0.03841    0.02678   -0.05284
AFIX  43
H4    2    0.658519    0.830900   -0.203778    11.00000   -1.20000
AFIX   0
C5    1    0.602554    0.790598   -0.089410    11.00000    0.06895    0.04488 =
         0.05522   -0.02232    0.01522   -0.02405
AFIX  43
H5    2    0.600953    0.737565   -0.093174    11.00000   -1.20000
AFIX   0
C6    1    0.676009    0.984461   -0.222438    11.00000    0.05303    0.04160 =
         0.03459   -0.01429    0.00664   -0.02941
AFIX  43
H6    2    0.708173    0.959460   -0.263684    11.00000   -1.20000
AFIX   0
C7    1    0.666540    1.069554   -0.232283    11.00000    0.03094    0.04560 =
         0.04460   -0.02428   -0.00245   -0.01298
AFIX  43
H7    2    0.637207    1.092342   -0.189288    11.00000   -1.20000
AFIX   0
C8    1    0.698097    1.133551   -0.305547    11.00000    0.03358    0.04175 =
         0.03020   -0.01699    0.00083   -0.01596
C9    1    0.760540    1.099044   -0.361995    11.00000    0.05295    0.02527 =
         0.06324   -0.00838    0.01115   -0.01684
AFIX  43
H9    2    0.786598    1.033497   -0.352702    11.00000   -1.20000
AFIX   0
C10   1    0.784951    1.158886   -0.431161    11.00000    0.06315    0.03427 =
         0.05151   -0.02442    0.02051   -0.02476
AFIX  43
H10   2    0.823735    1.134237   -0.470685    11.00000   -1.20000
AFIX   0
C11   1    0.701839    1.281448   -0.385228    11.00000    0.05186    0.04215 =
         0.06238   -0.02423   -0.00312   -0.01210
AFIX  43
H11   2    0.682244    1.345567   -0.391800    11.00000   -1.20000
AFIX   0
C12   1    0.674080    1.226109   -0.316916    11.00000    0.05805    0.02739 =
         0.05068   -0.01260    0.01948   -0.01359
AFIX  43
H12   2    0.637950    1.251421   -0.276850    11.00000   -1.20000
AFIX   0
C13   1    0.628133    0.746778    0.195594    11.00000    0.03543    0.02973 =
         0.03494   -0.01284   -0.00427   -0.02324
C14   1    0.662228    0.816160    0.194517    11.00000    0.02429    0.02439 =
         0.06157   -0.01428   -0.01012   -0.00390
C15   1    0.744360    0.779799    0.231646    11.00000    0.04909    0.02058 =
         0.09188    0.00418   -0.02351   -0.01835
AFIX  43
H15   2    0.772729    0.714395    0.261711    11.00000   -1.20000
AFIX   0
C16   1    0.782982    0.838073    0.224516    11.00000    0.03582    0.03593 =
         0.10032   -0.00974   -0.02615   -0.01354
AFIX  43
H16   2    0.836396    0.812964    0.251335    11.00000   -1.20000
AFIX   0
C17   1    0.742623    0.937877    0.176201    11.00000    0.01849    0.03435 =
         0.07213   -0.02691   -0.00491   -0.00381
C18   1    0.658715    0.972709    0.145249    11.00000    0.01851    0.02021 =
         0.07178   -0.01467   -0.00153   -0.00071
AFIX  43
H18   2    0.628837    1.038340    0.116676    11.00000   -1.20000
AFIX   0
C19   1    0.618422    0.914948    0.154947    11.00000    0.01866    0.03640 =
         0.07098   -0.01664   -0.01274   -0.00731
AFIX  43
H19   2    0.560710    0.941545    0.134931    11.00000   -1.20000
AFIX   0
C20   1    0.611987    1.545414    0.084050    11.00000    0.02563    0.02290 =
         0.04080   -0.01587    0.00764   -0.00629
C21   1    0.660535    1.445980    0.087646    11.00000    0.02915    0.02252 =
         0.05672   -0.02382    0.00220   -0.01179
C22   1    0.618523    1.402807    0.067450    11.00000    0.03747    0.02119 =
         0.06554   -0.01985   -0.01372    0.00101
AFIX  43
H22   2    0.559417    1.438385    0.048843    11.00000   -1.20000
AFIX   0
C23   1    0.664297    1.306626    0.074873    11.00000    0.03757    0.03223 =
         0.07326   -0.02316   -0.01043   -0.01094
AFIX  43
H23   2    0.635755    1.278498    0.060604    11.00000   -1.20000
AFIX   0
C24   1    0.751657    1.252380    0.103191    11.00000    0.02704    0.02343 =
         0.05175   -0.01582   -0.00314   -0.00610
C25   1    0.792573    1.297707    0.120059    11.00000    0.02162    0.02891 =
         0.07192   -0.02602   -0.01028   -0.00495
AFIX  43
H25   2    0.852276    1.262692    0.137213    11.00000   -1.20000
AFIX   0
C26   1    0.748635    1.393494    0.112599    11.00000    0.02356    0.02930 =
         0.06854   -0.02677   -0.00092   -0.01142
AFIX  43
H26   2    0.778589    1.422050    0.124405    11.00000   -1.20000
AFIX   0
C27   1    1.330384    0.828061    0.091704    11.00000    0.02759    0.03459 =
         0.02312   -0.00951   -0.00253   -0.00923
C28   1    1.229443    0.875401    0.097137    11.00000    0.02392    0.02801 =
         0.04165   -0.01463    0.00226   -0.01132
C29   1    1.183791    0.970037    0.058405    11.00000    0.03024    0.03269 =
         0.07993   -0.01207    0.00646   -0.01833
AFIX  43
H29   2    1.215688    1.007520    0.028194    11.00000   -1.20000
AFIX   0
C30   1    1.087847    1.013037    0.063181    11.00000    0.03426    0.02691 =
         0.07347   -0.01476   -0.00102   -0.00790
AFIX  43
H30   2    1.057842    1.078015    0.032562    11.00000   -1.20000
AFIX   0
C31   1    1.038143    0.965273    0.109303    11.00000    0.01512    0.03237 =
         0.04960   -0.02017    0.00003   -0.00737
C32   1    1.085189    0.866434    0.152421    11.00000    0.03732    0.02636 =
         0.11208   -0.02054    0.00841   -0.02085
AFIX  43
H32   2    1.053562    0.829595    0.185558    11.00000   -1.20000
AFIX   0
C33   1    1.178284    0.825489    0.144732    11.00000    0.03310    0.02164 =
         0.09813   -0.02434   -0.00877   -0.01173
AFIX  43
H33   2    1.208810    0.759987    0.173401    11.00000   -1.20000
AFIX   0
C34   1    0.795468    0.994677    0.156584    11.00000    0.02976    0.03156 =
         0.04915   -0.02306   -0.00223   -0.01753
C35   1    0.750579    1.093681    0.141280    11.00000    0.01830    0.03851 =
         0.05609   -0.02950   -0.00607   -0.00868
AFIX  43
H35   2    0.687375    1.122108    0.148261    11.00000   -1.20000
AFIX   0
C36   1    0.798941    1.149897    0.115893    11.00000    0.02370    0.03119 =
         0.04996   -0.02381    0.00376   -0.01221
C37   1    0.891810    1.106078    0.104366    11.00000    0.02661    0.03253 =
         0.04186   -0.02266    0.00304   -0.01457
AFIX  43
H37   2    0.924376    1.143958    0.084234    11.00000   -1.20000
AFIX   0
C38   1    0.938975    1.008607    0.121241    11.00000    0.02343    0.02484 =
         0.03669   -0.01135   -0.00527   -0.00748
C39   1    0.888391    0.955978    0.143736    11.00000    0.03198    0.02747 =
         0.05300   -0.02228   -0.00495   -0.00303
AFIX  43
H39   2    0.918558    0.891020    0.150585    11.00000   -1.20000
AFIX   0
C40   1    0.691609    0.313796    0.326328    11.00000    0.03620    0.01396 =
         0.04880   -0.01117    0.01076   -0.01132
C41   1    0.653313    0.248670    0.327223    11.00000    0.03714    0.01698 =
         0.04198   -0.00719   -0.00657   -0.01297
C42   1    0.574316    0.285434    0.287397    11.00000    0.04443    0.01477 =
         0.06791   -0.00724   -0.01275   -0.01466
AFIX  43
H42   2    0.549316    0.349818    0.253582    11.00000   -1.20000
AFIX   0
C43   1    0.532080    0.226878    0.297554    11.00000    0.03566    0.02873 =
         0.06236   -0.00792   -0.02131   -0.01113
AFIX  43
H43   2    0.478277    0.252341    0.271195    11.00000   -1.20000
AFIX   0
C44   1    0.569072    0.131623    0.346216    11.00000    0.04104    0.01743 =
         0.05186   -0.01008   -0.00560   -0.01059
C45   1    0.653101    0.095772    0.377122    11.00000    0.04171    0.01476 =
         0.07567   -0.01114   -0.01621   -0.00515
AFIX  43
H45   2    0.683267    0.029765    0.403967    11.00000   -1.20000
AFIX   0
C46   1    0.693784    0.153221    0.369910    11.00000    0.03803    0.01987 =
         0.08097   -0.00160   -0.02675   -0.01225
AFIX  43
H46   2    0.749069    0.126963    0.394199    11.00000   -1.20000
AFIX   0
C47   1   -0.015852    0.239088    0.425919    11.00000    0.02489    0.07097 =
         0.04938   -0.00735    0.00048   -0.01944
C48   1    0.086680    0.191387    0.416616    11.00000    0.02453    0.03473 =
         0.09028    0.01146   -0.00055    0.00746
C49   1    0.133522    0.094537    0.453990    11.00000    0.03501    0.05349 =
         0.05275   -0.01222   -0.00516   -0.01409
AFIX  43
H49   2    0.101374    0.057398    0.484496    11.00000   -1.20000
AFIX   0
C50   1    0.225705    0.051341    0.447645    11.00000    0.02450    0.03085 =
         0.07929   -0.01718    0.00440   -0.01184
AFIX  43
H50   2    0.256354   -0.014783    0.473572    11.00000   -1.20000
AFIX   0
C51   1    0.274297    0.106038    0.402343    11.00000    0.02660    0.03011 =
         0.05379   -0.02240    0.00442   -0.00527
C52   1    0.227026    0.201721    0.363234    11.00000    0.02453    0.03473 =
         0.09028    0.01146   -0.00055    0.00746
AFIX  43
H52   2    0.257720    0.239908    0.331126    11.00000   -1.20000
AFIX   0
C53   1    0.133018    0.241952    0.371469    11.00000    0.02453    0.03473 =
         0.09028    0.01146   -0.00055    0.00746
AFIX  43
H53   2    0.101266    0.307531    0.343905    11.00000   -1.20000
AFIX   0
C54   1    0.708094   -0.480385    0.433358    11.00000    0.02770    0.02091 =
         0.04486   -0.00760    0.00587   -0.01049
C55   1    0.658097   -0.375667    0.425303    11.00000    0.03087    0.02381 =
         0.03636   -0.00746   -0.00267   -0.00351
C56   1    0.692424   -0.336549    0.455371    11.00000    0.03080    0.02398 =
         0.06603   -0.01656   -0.01856   -0.00485
AFIX  43
H56   2    0.747233   -0.374261    0.482152    11.00000   -1.20000
AFIX   0
C57   1    0.647044   -0.241150    0.446796    11.00000    0.03062    0.03448 =
         0.06122   -0.01296   -0.01011   -0.01691
AFIX  43
H57   2    0.672276   -0.214978    0.467270    11.00000   -1.20000
AFIX   0
C58   1    0.565645   -0.183633    0.408892    11.00000    0.02090    0.03472 =
         0.04738   -0.00584   -0.00547   -0.01450
C59   1    0.529125   -0.225783    0.379651    11.00000    0.02139    0.02810 =
         0.05917   -0.02092   -0.00896   -0.00181
AFIX  43
H59   2    0.473287   -0.189558    0.354542    11.00000   -1.20000
AFIX   0
C60   1    0.575589   -0.318831    0.388300    11.00000    0.03381    0.02048 =
         0.05659   -0.01601   -0.00975   -0.00097
AFIX  43
H60   2    0.551014   -0.346115    0.368450    11.00000   -1.20000
AFIX   0
C61   1    0.521697    0.069399    0.363889    11.00000    0.01855    0.02541 =
         0.06537   -0.00637    0.00218   -0.00674
C62   1    0.426893    0.112511    0.372913    11.00000    0.03316    0.02749 =
         0.05507   -0.01453   -0.00182   -0.01759
AFIX  43
H62   2    0.397172    0.177781    0.364934    11.00000   -1.20000
AFIX   0
C63   1    0.376511    0.058779    0.393714    11.00000    0.03069    0.03168 =
         0.04867   -0.01663   -0.00295   -0.00582
C64   1    0.423527   -0.039157    0.405813    11.00000    0.02755    0.03060 =
         0.05133   -0.01530   -0.00452   -0.01259
AFIX  43
H64   2    0.391016   -0.076553    0.420395    11.00000   -1.20000
AFIX   0
C65   1    0.517590   -0.081468    0.396481    11.00000    0.01674    0.01924 =
         0.05192   -0.01570    0.00174   -0.00215
C66   1    0.563162   -0.024786    0.376168    11.00000    0.01890    0.03370 =
         0.06597   -0.01969   -0.00501   -0.00953
AFIX  43
H66   2    0.626502   -0.053091    0.370536    11.00000   -1.20000
AFIX   0
C67   1    0.368182    0.471591    0.342266    11.00000    0.07557    0.05788 =
         0.09257   -0.02083    0.00922   -0.04410
AFIX  33
H67A  2    0.363444    0.428548    0.397176    11.00000   -1.50000
H67B  2    0.310694    0.526463    0.328607    11.00000   -1.50000
H67C  2    0.384184    0.439011    0.303900    11.00000   -1.50000
AFIX   0
C68   1    0.485451    0.469102    0.410925    11.00000    0.04938    0.05387 =
         0.05380   -0.00807   -0.00951   -0.01651
AFIX  33
H68A  2    0.462931    0.426567    0.455155    11.00000   -1.50000
H68B  2    0.549703    0.435078    0.401432    11.00000   -1.50000
H68C  2    0.474923    0.522519    0.425434    11.00000   -1.50000
AFIX   0
C69   1    0.456168    0.564645    0.265292    11.00000    0.04011    0.02814 =
         0.06271   -0.01455    0.00939   -0.01541
AFIX  43
H69   2    0.423920    0.582534    0.220107    11.00000   -1.20000
AFIX   0
O15   4    0.917377    0.557665    0.168555    10.25000    0.02497    0.05462 =
         0.08823   -0.00665   -0.00748   -0.00950
N4    3    0.892647    0.691834    0.043103    10.25000    0.02497    0.05462 =
         0.08823   -0.00665   -0.00748   -0.00950
C70   1    0.821657    0.778032   -0.000677    10.25000    0.02497    0.05462 =
         0.08823   -0.00665   -0.00748   -0.00950
AFIX  33
H70A  2    0.847314    0.817533   -0.044901    10.25000   -1.50000
H70B  2    0.784523    0.763309   -0.022907    10.25000   -1.50000
H70C  2    0.784870    0.811857    0.036013    10.25000   -1.50000
AFIX   0
C71   1    0.976596    0.706652    0.021658    10.25000    0.02497    0.05462 =
         0.08823   -0.00665   -0.00748   -0.00950
AFIX  33
H71A  2    0.969406    0.760620   -0.028782    10.25000   -1.50000
H71B  2    0.989105    0.718953    0.065125    10.25000   -1.50000
H71C  2    1.026366    0.650108    0.014558    10.25000   -1.50000
AFIX   0
C72   1    0.872753    0.624476    0.108609    10.25000    0.02497    0.05462 =
         0.08823   -0.00665   -0.00748   -0.00950
AFIX  43
H72   2    0.814464    0.629109    0.108765    10.25000   -1.20000

AFIX   0
HKLF 4

REM  b171225c_0m_a_a.res in P-1
REM R1 =  0.0899 for    8468 Fo > 4sig(Fo)  and  0.1970 for all   18754 data
REM    811 parameters refined using      4 restraints

END

WGHT      0.1202      0.0000

REM Highest difference peak  1.435,  deepest hole -1.305,  1-sigma level  0.159
Q1    1   0.8848  0.4857  0.2302  11.00000  0.05    1.43
Q2    1   0.9424  0.4548  0.1993  11.00000  0.05    1.32
Q3    1   0.8961  0.6830 -0.0061  11.00000  0.05    1.19
Q4    1   0.7603  0.3875  0.4330  11.00000  0.05    1.11
;
_shelx_res_checksum              24134
_shelx_fab_file
;
    2    0    0     94.48      0.00
    3    0    0     55.11      0.00
    4    0    0     22.84      0.00
    5    0    0      3.20      0.00
    6    0    0      0.92      0.00
    7    0    0      2.98      0.00
    8    0    0     -0.28      0.00
    9    0    0     -0.91      0.00
   10    0    0      0.29      0.00
   11    0    0     -2.66      0.00
   12    0    0      1.51      0.00
   13    0    0     -2.89      0.00
   14    0    0     -8.28      0.00
   15    0    0     -4.07      0.00
   16    0    0     -5.70      0.00
   17    0    0     -1.66      0.00
   18    0    0     -2.06      0.00
   19    0    0     -6.31      0.00
  -19    1    0     -1.98      0.00
  -18    1    0     -0.27      0.00
  -17    1    0      0.13      0.00
  -16    1    0      8.22      0.00
  -15    1    0      4.70      0.00
  -14    1    0      4.06      0.00
  -13    1    0      6.01      0.00
  -12    1    0      6.59      0.00
  -11    1    0      7.97      0.00
  -10    1    0      2.91      0.00
   -9    1    0     -1.83      0.00
   -8    1    0     -6.66      0.00
   -7    1    0     -7.58      0.00
   -6    1    0     -8.87      0.00
   -5    1    0     -7.70      0.00
   -4    1    0     -5.67      0.00
   -3    1    0     -3.89      0.00
   -2    1    0     33.49      0.00
   -1    1    0     18.50      0.00
    2    1    0     27.80      0.00
    3    1    0    -10.64      0.00
    4    1    0    -10.31      0.00
    5    1    0     10.55      0.00
    6    1    0     13.34      0.00
    7    1    0     -2.82      0.00
    8    1    0      2.91      0.00
    9    1    0      5.87      0.00
   10    1    0     -0.02      0.00
   11    1    0      3.70      0.00
   12    1    0      1.46      0.00
   13    1    0      3.58      0.00
   14    1    0     10.38      0.00
   15    1    0      3.51      0.00
   16    1    0     -1.54      0.00
   17    1    0     -2.58      0.00
   18    1    0     -4.38      0.00
   19    1    0      2.18      0.00
  -18    2    0     -1.59      0.00
  -17    2    0      5.25      0.00
  -16    2    0      3.60      0.00
  -15    2    0      1.13      0.00
  -14    2    0      2.91      0.00
  -13    2    0      1.23      0.00
  -12    2    0      1.57      0.00
  -11    2    0      3.19      0.00
  -10    2    0      6.00      0.00
   -9    2    0      8.18      0.00
   -8    2    0     11.02      0.00
   -7    2    0      9.80      0.00
   -6    2    0     15.24      0.00
   -5    2    0     21.03      0.00
   -4    2    0      5.55      0.00
   -3    2    0      5.58      0.00
   -2    2    0     13.58      0.00
   -1    2    0      0.62      0.00
    0    2    0     62.35      0.00
    1    2    0     29.99      0.00
    2    2    0    -27.56      0.00
    3    2    0      9.61      0.00
    4    2    0     21.11      0.00
    5    2    0      2.70      0.00
    6    2    0    -14.34      0.00
    7    2    0     11.22      0.00
    8    2    0     12.84      0.00
    9    2    0      1.73      0.00
   10    2    0      5.29      0.00
   11    2    0      3.29      0.00
   12    2    0      1.40      0.00
   13    2    0      2.67      0.00
   14    2    0     -2.33      0.00
   15    2    0     -1.57      0.00
   16    2    0     -0.61      0.00
   17    2    0     -6.36      0.00
   18    2    0     -3.25      0.00
   19    2    0     -4.09      0.00
   20    2    0      1.30      0.00
  -18    3    0      6.39      0.00
  -17    3    0      4.41      0.00
  -16    3    0     -2.40      0.00
  -15    3    0      0.82      0.00
  -14    3    0     -0.02      0.00
  -13    3    0      1.50      0.00
  -12    3    0     -2.94      0.00
  -11    3    0     -9.05      0.00
  -10    3    0     -7.10      0.00
   -9    3    0      0.45      0.00
   -8    3    0      0.04      0.00
   -7    3    0      1.42      0.00
   -6    3    0      6.79      0.00
   -5    3    0      4.68      0.00
   -4    3    0     17.38      0.00
   -3    3    0     23.35      0.00
   -2    3    0      8.61      0.00
   -1    3    0     22.85      0.00
    0    3    0      8.20      0.00
    1    3    0     -9.91      0.00
    2    3    0      6.86      0.00
    3    3    0      0.21      0.00
    4    3    0     -2.56      0.00
    5    3    0     -1.48      0.00
    6    3    0     20.94      0.00
    7    3    0      5.72      0.00
    8    3    0     -3.09      0.00
    9    3    0     10.31      0.00
   10    3    0      8.06      0.00
   11    3    0      1.42      0.00
   12    3    0      2.61      0.00
   13    3    0      2.82      0.00
   14    3    0      9.85      0.00
   15    3    0     11.64      0.00
   16    3    0      4.40      0.00
   17    3    0      2.45      0.00
   18    3    0     -0.23      0.00
   19    3    0     -3.48      0.00
   20    3    0     -6.26      0.00
  -17    4    0      0.43      0.00
  -16    4    0      7.91      0.00
  -15    4    0      2.91      0.00
  -14    4    0      1.29      0.00
  -13    4    0     -2.73      0.00
  -12    4    0     -2.92      0.00
  -11    4    0     -0.34      0.00
  -10    4    0      0.46      0.00
   -9    4    0     -4.47      0.00
   -8    4    0     -2.84      0.00
   -7    4    0     -0.73      0.00
   -6    4    0     -6.04      0.00
   -5    4    0     -2.96      0.00
   -4    4    0     -4.19      0.00
   -3    4    0    -10.22      0.00
   -2    4    0     -2.87      0.00
   -1    4    0     -6.72      0.00
    0    4    0    -15.90      0.00
    1    4    0     -2.80      0.00
    2    4    0      5.90      0.00
    3    4    0      3.13      0.00
    4    4    0     -1.27      0.00
    5    4    0     11.59      0.00
    6    4    0     -2.49      0.00
    7    4    0     -6.51      0.00
    8    4    0      2.90      0.00
    9    4    0     -7.39      0.00
   10    4    0    -10.54      0.00
   11    4    0     -4.53      0.00
   12    4    0     -3.04      0.00
   13    4    0      3.48      0.00
   14    4    0      2.53      0.00
   15    4    0     -2.72      0.00
   16    4    0     -1.06      0.00
   17    4    0      2.06      0.00
   18    4    0     -1.11      0.00
   19    4    0     -1.22      0.00
   20    4    0     -0.26      0.00
   21    4    0      1.23      0.00
  -16    5    0     -4.33      0.00
  -15    5    0     -2.25      0.00
  -14    5    0     -2.28      0.00
  -13    5    0     -0.41      0.00
  -12    5    0     -2.39      0.00
  -11    5    0     -4.57      0.00
  -10    5    0     -3.78      0.00
   -9    5    0      3.42      0.00
   -8    5    0      2.62      0.00
   -7    5    0     -1.53      0.00
   -6    5    0      4.32      0.00
   -5    5    0      4.16      0.00
   -4    5    0     -5.30      0.00
   -3    5    0     -8.05      0.00
   -2    5    0     -7.47      0.00
   -1    5    0    -11.74      0.00
    0    5    0    -15.47      0.00
    1    5    0     -9.99      0.00
    2    5    0    -11.86      0.00
    3    5    0     -3.61      0.00
    4    5    0     13.96      0.00
    5    5    0      6.24      0.00
    6    5    0      2.89      0.00
    7    5    0     11.43      0.00
    8    5    0      1.38      0.00
    9    5    0      3.23      0.00
   10    5    0      6.92      0.00
   11    5    0      3.02      0.00
   12    5    0      3.57      0.00
   13    5    0      2.55      0.00
   14    5    0      1.69      0.00
   15    5    0     -0.48      0.00
   16    5    0     -4.80      0.00
   17    5    0     -6.10      0.00
   18    5    0      0.72      0.00
   19    5    0      3.46      0.00
   20    5    0      2.93      0.00
   21    5    0      4.78      0.00
  -16    6    0     -5.27      0.00
  -15    6    0     -7.95      0.00
  -14    6    0     -3.05      0.00
  -13    6    0     -0.05      0.00
  -12    6    0      0.94      0.00
  -11    6    0      2.45      0.00
  -10    6    0      5.50      0.00
   -9    6    0      2.61      0.00
   -8    6    0      2.70      0.00
   -7    6    0      6.54      0.00
   -6    6    0      1.98      0.00
   -5    6    0     -0.97      0.00
   -4    6    0      3.65      0.00
   -3    6    0      3.20      0.00
   -2    6    0     -5.88      0.00
   -1    6    0     -8.72      0.00
    0    6    0      9.98      0.00
    1    6    0      5.13      0.00
    2    6    0      1.51      0.00
    3    6    0      4.72      0.00
    4    6    0     -7.12      0.00
    5    6    0     -6.15      0.00
    6    6    0      4.64      0.00
    7    6    0     -8.06      0.00
    8    6    0     -5.33      0.00
    9    6    0     -0.14      0.00
   10    6    0     -2.63      0.00
   11    6    0     -2.96      0.00
   12    6    0     -0.88      0.00
   13    6    0     -1.13      0.00
   14    6    0     -4.39      0.00
   15    6    0     -3.10      0.00
   16    6    0      3.72      0.00
   17    6    0      3.27      0.00
   18    6    0     -0.16      0.00
   19    6    0      2.56      0.00
   20    6    0      9.85      0.00
   21    6    0      3.13      0.00
  -15    7    0     -0.20      0.00
  -14    7    0     -4.72      0.00
  -13    7    0     -5.80      0.00
  -12    7    0     -0.98      0.00
  -11    7    0      1.19      0.00
  -10    7    0     -1.08      0.00
   -9    7    0     -0.06      0.00
   -8    7    0     -1.23      0.00
   -7    7    0     -6.56      0.00
   -6    7    0     -3.73      0.00
   -5    7    0     -1.90      0.00
   -4    7    0     -4.43      0.00
   -3    7    0     -4.37      0.00
   -2    7    0      1.57      0.00
   -1    7    0     12.41      0.00
    0    7    0     -0.24      0.00
    1    7    0     -0.37      0.00
    2    7    0      7.02      0.00
    3    7    0     -1.20      0.00
    4    7    0      3.66      0.00
    5    7    0      6.82      0.00
    6    7    0     -8.17      0.00
    7    7    0     -1.25      0.00
    8    7    0      5.14      0.00
    9    7    0      1.01      0.00
   10    7    0     -0.60      0.00
   11    7    0      1.58      0.00
   12    7    0     -2.03      0.00
   13    7    0     -3.93      0.00
   14    7    0      1.80      0.00
   15    7    0      5.60      0.00
   16    7    0     -4.88      0.00
   17    7    0     -8.05      0.00
   18    7    0     -5.64      0.00
   19    7    0     -3.51      0.00
   20    7    0     -6.98      0.00
   21    7    0      0.89      0.00
  -14    8    0      1.86      0.00
  -13    8    0      6.94      0.00
  -12    8    0      3.47      0.00
  -11    8    0      3.74      0.00
  -10    8    0      7.18      0.00
   -9    8    0      3.31      0.00
   -8    8    0     -1.23      0.00
   -7    8    0     -0.43      0.00
   -6    8    0     -3.28      0.00
   -5    8    0     -3.84      0.00
   -4    8    0     -3.48      0.00
   -3    8    0     -5.05      0.00
   -2    8    0     -4.21      0.00
   -1    8    0     -7.73      0.00
    0    8    0     -0.04      0.00
    1    8    0      4.85      0.00
    2    8    0     -5.71      0.00
    3    8    0     -4.00      0.00
    4    8    0     -4.68      0.00
    5    8    0    -10.36      0.00
    6    8    0     -0.56      0.00
    7    8    0      1.69      0.00
    8    8    0     -1.83      0.00
    9    8    0      2.20      0.00
   10    8    0      6.34      0.00
   11    8    0     -0.46      0.00
   12    8    0     -1.90      0.00
   13    8    0      4.00      0.00
   14    8    0      3.95      0.00
   15    8    0     -3.59      0.00
   16    8    0      2.36      0.00
   17    8    0      4.57      0.00
   18    8    0      0.99      0.00
   19    8    0     -0.29      0.00
   20    8    0      3.75      0.00
   21    8    0     -1.29      0.00
  -13    9    0     -6.25      0.00
  -12    9    0      0.51      0.00
  -11    9    0      1.85      0.00
  -10    9    0     -1.60      0.00
   -9    9    0      0.86      0.00
   -8    9    0      1.38      0.00
   -7    9    0     -0.02      0.00
   -6    9    0      1.76      0.00
   -5    9    0      1.98      0.00
   -4    9    0      1.90      0.00
   -3    9    0      3.26      0.00
   -2    9    0      0.77      0.00
   -1    9    0      0.10      0.00
    0    9    0     -0.49      0.00
    1    9    0     -5.20      0.00
    2    9    0     -1.41      0.00
    3    9    0     -1.99      0.00
    4    9    0     -6.43      0.00
    5    9    0     -2.74      0.00
    6    9    0     -3.55      0.00
    7    9    0     -4.14      0.00
    8    9    0      1.81      0.00
    9    9    0      2.97      0.00
   10    9    0     -4.35      0.00
   11    9    0     -2.48      0.00
   12    9    0      0.87      0.00
   13    9    0     -4.78      0.00
   14    9    0     -6.70      0.00
   15    9    0      4.32      0.00
   16    9    0      3.04      0.00
   17    9    0     -1.74      0.00
   18    9    0      2.69      0.00
   19    9    0      4.58      0.00
   20    9    0     -2.23      0.00
   21    9    0     -6.64      0.00
  -12   10    0     -0.61      0.00
  -11   10    0      0.67      0.00
  -10   10    0      4.30      0.00
   -9   10    0     -1.02      0.00
   -8   10    0     -0.61      0.00
   -7   10    0     -0.21      0.00
   -6   10    0     -2.48      0.00
   -5   10    0     -3.77      0.00
   -4   10    0     -3.95      0.00
   -3   10    0     -4.68      0.00
   -2   10    0     -3.45      0.00
   -1   10    0     -1.66      0.00
    0   10    0     -3.67      0.00
    1   10    0     -4.08      0.00
    2   10    0     -4.47      0.00
    3   10    0     -4.80      0.00
    4   10    0     -1.08      0.00
    5   10    0     -2.88      0.00
    6   10    0     -4.96      0.00
    7   10    0     -1.70      0.00
    8   10    0     -1.63      0.00
    9   10    0     -5.15      0.00
   10   10    0     -2.02      0.00
   11   10    0      0.44      0.00
   12   10    0     -1.66      0.00
   13   10    0      1.71      0.00
   14   10    0      5.88      0.00
   15   10    0     -2.36      0.00
   16   10    0     -4.24      0.00
   17   10    0      2.69      0.00
   18   10    0      3.70      0.00
   19   10    0     -0.29      0.00
   20   10    0     -4.69      0.00
   21   10    0     -3.16      0.00
  -11   11    0     -2.64      0.00
  -10   11    0     -4.77      0.00
   -9   11    0      2.58      0.00
   -8   11    0      1.65      0.00
   -7   11    0      0.99      0.00
   -6   11    0      2.22      0.00
   -5   11    0      2.38      0.00
   -4   11    0      1.56      0.00
   -3   11    0      0.77      0.00
   -2   11    0     -1.30      0.00
   -1   11    0     -3.89      0.00
    0   11    0     -3.00      0.00
    1   11    0     -0.16      0.00
    2   11    0     -2.32      0.00
    3   11    0     -4.07      0.00
    4   11    0     -3.60      0.00
    5   11    0     -2.06      0.00
    6   11    0      0.34      0.00
    7   11    0      0.25      0.00
    8   11    0     -3.99      0.00
    9   11    0     -5.50      0.00
   10   11    0     -3.72      0.00
   11   11    0     -3.34      0.00
   12   11    0      0.79      0.00
   13   11    0      2.54      0.00
   14   11    0     -3.97      0.00
   15   11    0     -4.29      0.00
   16   11    0     -0.24      0.00
   17   11    0      1.33      0.00
   18   11    0     -2.49      0.00
   19   11    0     -7.51      0.00
   20   11    0     -4.85      0.00
   21   11    0     -5.86      0.00
  -10   12    0      1.17      0.00
   -9   12    0     -1.74      0.00
   -8   12    0      2.62      0.00
   -7   12    0      3.88      0.00
   -6   12    0      1.25      0.00
   -5   12    0      1.08      0.00
   -4   12    0      1.75      0.00
   -3   12    0     -1.40      0.00
   -2   12    0     -4.03      0.00
   -1   12    0     -2.37      0.00
    0   12    0     -0.49      0.00
    1   12    0     -3.96      0.00
    2   12    0     -2.86      0.00
    3   12    0      3.51      0.00
    4   12    0      2.01      0.00
    5   12    0     -0.61      0.00
    6   12    0      2.76      0.00
    7   12    0      1.91      0.00
    8   12    0      1.66      0.00
    9   12    0      1.96      0.00
   10   12    0     -2.79      0.00
   11   12    0     -1.90      0.00
   12   12    0     -1.44      0.00
   13   12    0     -6.13      0.00
   14   12    0     -2.52      0.00
   15   12    0      3.30      0.00
   16   12    0      2.17      0.00
   17   12    0     -3.21      0.00
   18   12    0      0.62      0.00
   19   12    0      8.36      0.00
   20   12    0      0.91      0.00
   21   12    0     -2.23      0.00
   -9   13    0      2.77      0.00
   -8   13    0     -1.19      0.00
   -7   13    0     -3.08      0.00
   -6   13    0     -0.57      0.00
   -5   13    0     -0.19      0.00
   -4   13    0     -2.10      0.00
   -3   13    0     -1.60      0.00
   -2   13    0     -0.10      0.00
   -1   13    0     -0.96      0.00
    0   13    0     -4.09      0.00
    1   13    0     -2.03      0.00
    2   13    0      0.64      0.00
    3   13    0     -5.01      0.00
    4   13    0     -5.00      0.00
    5   13    0      2.06      0.00
    6   13    0     -2.82      0.00
    7   13    0     -4.16      0.00
    8   13    0     -3.46      0.00
    9   13    0     -6.06      0.00
   10   13    0     -1.17      0.00
   11   13    0      0.55      0.00
   12   13    0     -3.24      0.00
   13   13    0     -0.74      0.00
   14   13    0      1.49      0.00
   15   13    0     -0.14      0.00
   16   13    0      1.47      0.00
   17   13    0      5.91      0.00
   18   13    0      1.22      0.00
   19   13    0    -11.99      0.00
   20   13    0     -9.25      0.00
   21   13    0     -2.70      0.00
   -8   14    0      3.46      0.00
   -7   14    0      1.06      0.00
   -6   14    0     -1.63      0.00
   -5   14    0      0.51      0.00
   -4   14    0      2.83      0.00
   -3   14    0      4.11      0.00
   -2   14    0      4.45      0.00
   -1   14    0      3.57      0.00
    0   14    0      5.16      0.00
    1   14    0      4.45      0.00
    2   14    0      0.44      0.00
    3   14    0      1.34      0.00
    5   14    0     -5.72      0.00
    6   14    0     -1.20      0.00
    7   14    0      2.88      0.00
    8   14    0     -0.50      0.00
    9   14    0      2.65      0.00
   10   14    0      1.53      0.00
   11   14    0     -2.70      0.00
   12   14    0     -1.42      0.00
   13   14    0      1.73      0.00
   14   14    0      3.65      0.00
   15   14    0      8.30      0.00
   16   14    0      8.02      0.00
   17   14    0      1.15      0.00
   18   14    0     -6.76      0.00
   19   14    0     -4.24      0.00
   20   14    0     -0.27      0.00
   -6   15    0      2.34      0.00
   -5   15    0     -1.23      0.00
   -4   15    0     -2.40      0.00
   -3   15    0     -5.27      0.00
   -2   15    0     -7.22      0.00
   -1   15    0     -2.15      0.00
    0   15    0      0.45      0.00
    1   15    0      1.01      0.00
    2   15    0      0.04      0.00
    5   15    0      3.18      0.00
   14   15    0      5.51      0.00
   15   15    0      6.31      0.00
   16   15    0      4.07      0.00
   17   15    0      0.68      0.00
   18   15    0      2.55      0.00
   19   15    0      5.57      0.00
   20   15    0      0.46      0.00
   -5   16    0      1.61      0.00
   -4   16    0      1.08      0.00
   -3   16    0      4.66      0.00
   -2   16    0     10.26      0.00
   -1   16    0      6.93      0.00
    0   16    0      4.76      0.00
   14   16    0      2.96      0.00
   15   16    0     -3.26      0.00
   16   16    0     -6.80      0.00
   17   16    0     -6.88      0.00
   18   16    0     -3.75      0.00
   -1  -17    1     -8.22      0.00
    0  -17    1     -4.89      0.00
    1  -17    1      3.09      0.00
   -2  -16    1     -0.11      0.00
   -1  -16    1      2.21      0.00
    0  -16    1      4.11      0.00
    1  -16    1      0.76      0.00
    2  -16    1      0.72      0.00
    3  -16    1     -3.81      0.00
  -19  -15    1      0.19      0.00
  -18  -15    1     -2.74      0.00
  -17  -15    1      0.08      0.00
  -16  -15    1      1.64      0.00
  -15  -15    1     -0.84      0.00
  -14  -15    1     -3.25      0.00
   -3  -15    1      1.86      0.00
   -2  -15    1     -1.14      0.00
   -1  -15    1     -0.53      0.00
    0  -15    1      0.17      0.00
    1  -15    1      1.40      0.00
    2  -15    1      0.08      0.00
    3  -15    1      2.92      0.00
    4  -15    1      0.70      0.00
    5  -15    1     -3.85      0.00
    6  -15    1     -3.07      0.00
  -20  -14    1      1.84      0.00
  -19  -14    1      2.06      0.00
  -18  -14    1      5.98      0.00
  -17  -14    1      5.83      0.00
  -16  -14    1     -1.32      0.00
  -15  -14    1     -4.43      0.00
  -14  -14    1     -3.02      0.00
  -13  -14    1     -2.15      0.00
  -12  -14    1     -4.02      0.00
  -11  -14    1      0.74      0.00
  -10  -14    1      5.45      0.00
   -9  -14    1      0.96      0.00
   -8  -14    1     -1.35      0.00
   -7  -14    1      1.02      0.00
   -6  -14    1     -3.45      0.00
   -5  -14    1      0.42      0.00
   -4  -14    1      2.44      0.00
   -3  -14    1     -5.70      0.00
   -2  -14    1     -4.02      0.00
   -1  -14    1     -1.82      0.00
    0  -14    1     -1.80      0.00
    1  -14    1     -0.99      0.00
    2  -14    1      1.90      0.00
    3  -14    1      0.67      0.00
    4  -14    1     -2.52      0.00
    5  -14    1     -2.10      0.00
    6  -14    1     -1.12      0.00
    7  -14    1      2.24      0.00
  -20  -13    1      1.92      0.00
  -19  -13    1      4.90      0.00
  -18  -13    1      4.15      0.00
  -17  -13    1     -6.34      0.00
  -16  -13    1     -7.16      0.00
  -15  -13    1     -3.67      0.00
  -14  -13    1     -4.03      0.00
  -13  -13    1     -6.85      0.00
  -12  -13    1     -4.17      0.00
  -11  -13    1     -1.29      0.00
  -10  -13    1     -3.90      0.00
   -9  -13    1      0.32      0.00
   -8  -13    1      5.55      0.00
   -7  -13    1      4.05      0.00
   -6  -13    1      8.19      0.00
   -5  -13    1      4.96      0.00
   -4  -13    1     -3.90      0.00
   -3  -13    1      0.53      0.00
   -2  -13    1      0.89      0.00
   -1  -13    1     -4.86      0.00
    0  -13    1     -4.86      0.00
    1  -13    1     -2.02      0.00
    2  -13    1     -2.83      0.00
    3  -13    1     -4.36      0.00
    4  -13    1     -1.69      0.00
    5  -13    1      1.32      0.00
    6  -13    1      2.87      0.00
    7  -13    1      1.57      0.00
    8  -13    1      0.92      0.00
    9  -13    1      0.41      0.00
  -20  -12    1      1.15      0.00
  -19  -12    1     -0.75      0.00
  -18  -12    1     -9.68      0.00
  -17  -12    1     -3.34      0.00
  -16  -12    1     -0.66      0.00
  -15  -12    1     -4.68      0.00
  -14  -12    1     -7.18      0.00
  -13  -12    1     -3.72      0.00
  -12  -12    1     -1.30      0.00
  -11  -12    1     -3.00      0.00
  -10  -12    1      1.42      0.00
   -9  -12    1      1.46      0.00
   -8  -12    1     -4.31      0.00
   -7  -12    1     -1.28      0.00
   -6  -12    1     -0.91      0.00
   -5  -12    1     -0.62      0.00
   -4  -12    1      4.44      0.00
   -3  -12    1      0.86      0.00
   -2  -12    1     -3.40      0.00
   -1  -12    1      2.00      0.00
    0  -12    1      3.76      0.00
    1  -12    1     -0.08      0.00
    2  -12    1     -0.19      0.00
    3  -12    1      1.38      0.00
    4  -12    1      0.20      0.00
    5  -12    1     -0.99      0.00
    6  -12    1     -1.05      0.00
    7  -12    1     -2.26      0.00
    8  -12    1     -5.49      0.00
    9  -12    1     -5.19      0.00
   10  -12    1     -2.67      0.00
  -21  -11    1      2.68      0.00
  -20  -11    1     -1.96      0.00
  -19  -11    1     -3.65      0.00
  -18  -11    1      6.03      0.00
  -17  -11    1      3.68      0.00
  -16  -11    1     -0.96      0.00
  -15  -11    1     -3.60      0.00
  -14  -11    1     -1.98      0.00
  -13  -11    1     -1.22      0.00
  -12  -11    1     -1.43      0.00
  -11  -11    1      4.46      0.00
  -10  -11    1      6.45      0.00
   -9  -11    1      3.73      0.00
   -8  -11    1      6.29      0.00
   -7  -11    1      5.57      0.00
   -6  -11    1      3.91      0.00
   -5  -11    1      2.48      0.00
   -4  -11    1     -0.01      0.00
   -3  -11    1      1.98      0.00
   -2  -11    1      6.20      0.00
   -1  -11    1      2.01      0.00
    0  -11    1     -2.99      0.00
    1  -11    1      0.63      0.00
    2  -11    1      1.69      0.00
    3  -11    1     -1.69      0.00
    4  -11    1     -3.05      0.00
    5  -11    1     -1.50      0.00
    6  -11    1     -0.77      0.00
    7  -11    1     -2.08      0.00
    8  -11    1     -2.39      0.00
    9  -11    1     -4.14      0.00
   10  -11    1     -4.37      0.00
   11  -11    1      3.12      0.00
  -21  -10    1     -2.78      0.00
  -20  -10    1     -1.05      0.00
  -19  -10    1      3.84      0.00
  -18  -10    1     -1.64      0.00
  -17  -10    1     -4.09      0.00
  -16  -10    1     -3.96      0.00
  -15  -10    1      3.08      0.00
  -14  -10    1      3.99      0.00
  -13  -10    1     -0.25      0.00
  -12  -10    1      2.16      0.00
  -11  -10    1      3.23      0.00
  -10  -10    1     -0.32      0.00
   -9  -10    1      1.21      0.00
   -8  -10    1      2.29      0.00
   -7  -10    1      0.71      0.00
   -6  -10    1     -0.88      0.00
   -5  -10    1     -1.43      0.00
   -4  -10    1     -1.86      0.00
   -3  -10    1     -0.82      0.00
   -2  -10    1      0.83      0.00
   -1  -10    1      0.71      0.00
    0  -10    1      2.08      0.00
    1  -10    1      0.59      0.00
    2  -10    1     -0.45      0.00
    3  -10    1      3.46      0.00
    4  -10    1      6.65      0.00
    5  -10    1      6.63      0.00
    6  -10    1      3.96      0.00
    7  -10    1      0.48      0.00
    8  -10    1     -3.44      0.00
    9  -10    1     -2.91      0.00
   10  -10    1     -0.77      0.00
   11  -10    1     -5.87      0.00
   12  -10    1     -4.08      0.00
  -21   -9    1      3.89      0.00
  -20   -9    1      7.54      0.00
  -19   -9    1      0.92      0.00
  -18   -9    1     -2.92      0.00
  -17   -9    1     -1.36      0.00
  -16   -9    1      3.87      0.00
  -15   -9    1     -1.42      0.00
  -14   -9    1     -4.80      0.00
  -13   -9    1      2.07      0.00
  -12   -9    1      1.03      0.00
  -11   -9    1     -4.26      0.00
  -10   -9    1     -0.19      0.00
   -9   -9    1      2.64      0.00
   -8   -9    1      0.09      0.00
   -7   -9    1      0.50      0.00
   -6   -9    1      1.49      0.00
   -5   -9    1     -1.16      0.00
   -4   -9    1     -0.29      0.00
   -3   -9    1      3.10      0.00
   -2   -9    1     -1.98      0.00
   -1   -9    1     -3.30      0.00
    0   -9    1      2.03      0.00
    1   -9    1      3.41      0.00
    2   -9    1      4.91      0.00
    3   -9    1      2.29      0.00
    4   -9    1      0.96      0.00
    5   -9    1      0.98      0.00
    6   -9    1     -0.83      0.00
    7   -9    1     -1.01      0.00
    8   -9    1      2.12      0.00
    9   -9    1      1.17      0.00
   10   -9    1     -1.91      0.00
   11   -9    1     -0.87      0.00
   12   -9    1     -3.13      0.00
   13   -9    1     -2.30      0.00
  -21   -8    1     11.02      0.00
  -20   -8    1      3.08      0.00
  -19   -8    1     -0.70      0.00
  -18   -8    1      1.33      0.00
  -17   -8    1     -0.57      0.00
  -16   -8    1     -5.76      0.00
  -15   -8    1     -3.34      0.00
  -14   -8    1      2.59      0.00
  -13   -8    1     -4.49      0.00
  -12   -8    1     -5.01      0.00
  -11   -8    1      4.12      0.00
  -10   -8    1      3.58      0.00
   -9   -8    1     -4.28      0.00
   -8   -8    1     -5.42      0.00
   -7   -8    1     -3.72      0.00
   -6   -8    1     -5.94      0.00
   -5   -8    1     -2.72      0.00
   -4   -8    1      3.46      0.00
   -3   -8    1     -0.12      0.00
   -2   -8    1      4.69      0.00
   -1   -8    1     10.10      0.00
    0   -8    1      0.00      0.00
    1   -8    1      1.38      0.00
    2   -8    1      4.80      0.00
    3   -8    1      5.37      0.00
    4   -8    1      3.96      0.00
    5   -8    1      0.14      0.00
    6   -8    1      2.70      0.00
    7   -8    1      5.76      0.00
    8   -8    1      2.74      0.00
    9   -8    1     -0.24      0.00
   10   -8    1     -3.96      0.00
   11   -8    1     -4.61      0.00
   12   -8    1     -2.09      0.00
   13   -8    1     -5.13      0.00
   14   -8    1     -9.33      0.00
  -21   -7    1     -7.16      0.00
  -20   -7    1      1.24      0.00
  -19   -7    1     10.34      0.00
  -18   -7    1      4.74      0.00
  -17   -7    1     -0.22      0.00
  -16   -7    1     -1.77      0.00
  -15   -7    1     -0.54      0.00
  -14   -7    1     -5.74      0.00
  -13   -7    1     -0.76      0.00
  -12   -7    1      3.49      0.00
  -11   -7    1     -0.20      0.00
  -10   -7    1     -0.99      0.00
   -9   -7    1      3.69      0.00
   -8   -7    1      2.76      0.00
   -7   -7    1     -4.95      0.00
   -6   -7    1     -1.36      0.00
   -5   -7    1      4.60      0.00
   -4   -7    1     -3.45      0.00
   -3   -7    1      1.66      0.00
   -2   -7    1      1.74      0.00
   -1   -7    1     -7.35      0.00
    0   -7    1      5.74      0.00
    1   -7    1      7.23      0.00
    2   -7    1     -3.99      0.00
    3   -7    1     -3.17      0.00
    4   -7    1     -1.89      0.00
    5   -7    1      1.55      0.00
    6   -7    1      1.50      0.00
    7   -7    1      3.39      0.00
    8   -7    1      7.10      0.00
    9   -7    1      4.53      0.00
   10   -7    1      4.03      0.00
   11   -7    1      0.44      0.00
   12   -7    1     -5.20      0.00
   13   -7    1     -1.76      0.00
   14   -7    1      7.80      0.00
   15   -7    1      7.94      0.00
  -21   -6    1      7.72      0.00
  -20   -6    1      6.74      0.00
  -19   -6    1     -2.49      0.00
  -18   -6    1     -1.24      0.00
  -17   -6    1     -1.42      0.00
  -16   -6    1     -0.40      0.00
  -15   -6    1     -1.76      0.00
  -14   -6    1      1.99      0.00
  -13   -6    1     -0.06      0.00
  -12   -6    1     -2.59      0.00
  -11   -6    1      0.77      0.00
  -10   -6    1      4.14      0.00
   -9   -6    1      4.08      0.00
   -8   -6    1      3.80      0.00
   -7   -6    1     12.24      0.00
   -6   -6    1     11.79      0.00
   -5   -6    1     -1.15      0.00
   -4   -6    1     10.78      0.00
   -3   -6    1     10.51      0.00
   -2   -6    1      1.81      0.00
   -1   -6    1      5.94      0.00
    0   -6    1     -5.57      0.00
    1   -6    1    -12.14      0.00
    2   -6    1      5.31      0.00
    3   -6    1      3.68      0.00
    4   -6    1     -2.31      0.00
    5   -6    1     -3.28      0.00
    6   -6    1      2.73      0.00
    7   -6    1      2.07      0.00
    8   -6    1     -3.89      0.00
    9   -6    1     -2.60      0.00
   10   -6    1     -3.67      0.00
   11   -6    1     -5.18      0.00
   12   -6    1     -1.35      0.00
   13   -6    1      2.41      0.00
   14   -6    1      1.24      0.00
   15   -6    1      2.53      0.00
   16   -6    1      5.00      0.00
  -21   -5    1      1.00      0.00
  -20   -5    1     -2.44      0.00
  -19   -5    1     -0.74      0.00
  -18   -5    1     -4.85      0.00
  -17   -5    1     -4.59      0.00
  -16   -5    1     -0.30      0.00
  -15   -5    1      1.82      0.00
  -14   -5    1     -0.92      0.00
  -13   -5    1     -2.73      0.00
  -12   -5    1     -2.29      0.00
  -11   -5    1     -1.62      0.00
  -10   -5    1      0.05      0.00
   -9   -5    1     -2.03      0.00
   -8   -5    1      1.23      0.00
   -7   -5    1     -0.80      0.00
   -6   -5    1     -8.13      0.00
   -5   -5    1      5.05      0.00
   -4   -5    1     -2.97      0.00
   -3   -5    1    -10.65      0.00
   -2   -5    1      0.71      0.00
   -1   -5    1      1.39      0.00
    0   -5    1      3.08      0.00
    1   -5    1      9.68      0.00
    2   -5    1     -4.09      0.00
    3   -5    1     -7.28      0.00
    4   -5    1      0.28      0.00
    5   -5    1      5.29      0.00
    6   -5    1      1.22      0.00
    7   -5    1      1.44      0.00
    8   -5    1      4.94      0.00
    9   -5    1     -0.64      0.00
   10   -5    1     -3.91      0.00
   11   -5    1      0.57      0.00
   12   -5    1      2.42      0.00
   13   -5    1      0.36      0.00
   14   -5    1      1.78      0.00
   15   -5    1      2.81      0.00
   16   -5    1      2.20      0.00
  -20   -4    1      3.35      0.00
  -19   -4    1      3.58      0.00
  -18   -4    1      5.00      0.00
  -17   -4    1      7.14      0.00
  -16   -4    1      3.69      0.00
  -15   -4    1      3.33      0.00
  -14   -4    1      2.07      0.00
  -13   -4    1      0.25      0.00
  -12   -4    1      2.55      0.00
  -11   -4    1      6.50      0.00
  -10   -4    1      3.39      0.00
   -9   -4    1      8.46      0.00
   -8   -4    1      6.01      0.00
   -7   -4    1     -4.06      0.00
   -6   -4    1      2.80      0.00
   -5   -4    1     -4.66      0.00
   -4   -4    1     -7.83      0.00
   -3   -4    1      3.09      0.00
   -2   -4    1    -11.05      0.00
   -1   -4    1    -17.32      0.00
    0   -4    1    -10.54      0.00
    1   -4    1     -2.82      0.00
    2   -4    1      0.52      0.00
    3   -4    1      5.21      0.00
    4   -4    1      7.42      0.00
    5   -4    1      4.05      0.00
    6   -4    1      5.45      0.00
    7   -4    1      3.77      0.00
    8   -4    1     -4.86      0.00
    9   -4    1     -3.76      0.00
   10   -4    1      0.43      0.00
   11   -4    1     -2.71      0.00
   12   -4    1     -2.87      0.00
   13   -4    1      4.40      0.00
   14   -4    1      7.06      0.00
   15   -4    1      3.96      0.00
   16   -4    1     -0.53      0.00
   17   -4    1     -9.02      0.00
  -20   -3    1      4.40      0.00
  -19   -3    1      5.40      0.00
  -18   -3    1      3.79      0.00
  -17   -3    1     -1.14      0.00
  -16   -3    1     -2.13      0.00
  -15   -3    1     -5.89      0.00
  -14   -3    1     -9.55      0.00
  -13   -3    1     -3.88      0.00
  -12   -3    1      2.01      0.00
  -11   -3    1     -1.23      0.00
  -10   -3    1      2.12      0.00
   -9   -3    1     -2.97      0.00
   -8   -3    1     -4.96      0.00
   -7   -3    1      8.46      0.00
   -6   -3    1      1.30      0.00
   -5   -3    1    -10.25      0.00
   -4   -3    1     -1.23      0.00
   -3   -3    1    -10.04      0.00
   -2   -3    1      2.05      0.00
   -1   -3    1      6.32      0.00
    0   -3    1     18.73      0.00
    1   -3    1     10.42      0.00
    2   -3    1     11.98      0.00
    3   -3    1     16.20      0.00
    4   -3    1      1.38      0.00
    5   -3    1      0.92      0.00
    6   -3    1      4.75      0.00
    7   -3    1      0.23      0.00
    8   -3    1      1.65      0.00
    9   -3    1      0.97      0.00
   10   -3    1      0.10      0.00
   11   -3    1      4.24      0.00
   12   -3    1      5.37      0.00
   13   -3    1      0.23      0.00
   14   -3    1     -0.99      0.00
   15   -3    1     -0.32      0.00
   16   -3    1     -4.52      0.00
   17   -3    1      1.13      0.00
   18   -3    1     -2.49      0.00
  -20   -2    1     -2.88      0.00
  -19   -2    1     -7.23      0.00
  -18   -2    1     -3.65      0.00
  -17   -2    1      1.56      0.00
  -16   -2    1      3.24      0.00
  -15   -2    1     -3.20      0.00
  -14   -2    1     -1.11      0.00
  -13   -2    1      0.79      0.00
  -12   -2    1     -1.93      0.00
  -11   -2    1      2.68      0.00
  -10   -2    1     -0.36      0.00
   -9   -2    1     -0.06      0.00
   -8   -2    1      5.80      0.00
   -7   -2    1     -5.04      0.00
   -6   -2    1     -6.11      0.00
   -5   -2    1     14.52      0.00
   -4   -2    1     -0.59      0.00
   -3   -2    1     -1.75      0.00
   -2   -2    1     11.64      0.00
    0   -2    1     35.66      0.00
    1   -2    1     10.77      0.00
    2   -2    1     21.37      0.00
    3   -2    1     -2.52      0.00
    4   -2    1      2.40      0.00
    5   -2    1      3.38      0.00
    6   -2    1     -5.77      0.00
    7   -2    1     -4.78      0.00
    8   -2    1     -7.11      0.00
    9   -2    1     -5.72      0.00
   10   -2    1      0.36      0.00
   11   -2    1      1.39      0.00
   12   -2    1     -0.21      0.00
   13   -2    1      2.94      0.00
   14   -2    1      4.99      0.00
   15   -2    1      2.04      0.00
   16   -2    1      3.50      0.00
   17   -2    1     -0.89      0.00
   18   -2    1     -0.11      0.00
  -19   -1    1      9.24      0.00
  -18   -1    1      7.10      0.00
  -17   -1    1      8.41      0.00
  -16   -1    1     -0.06      0.00
  -15   -1    1     -0.63      0.00
  -14   -1    1     -3.74      0.00
  -13   -1    1     -6.93      0.00
  -12   -1    1      0.20      0.00
  -11   -1    1      1.06      0.00
  -10   -1    1      0.72      0.00
   -9   -1    1     -0.10      0.00
   -8   -1    1    -11.24      0.00
   -7   -1    1     -5.04      0.00
   -6   -1    1      6.36      0.00
   -5   -1    1    -17.20      0.00
   -4   -1    1    -11.80      0.00
   -3   -1    1     14.35      0.00
   -2   -1    1     18.12      0.00
    1   -1    1     60.83      0.00
    2   -1    1      2.72      0.00
    3   -1    1     -7.27      0.00
    4   -1    1    -11.77      0.00
    5   -1    1    -12.20      0.00
    6   -1    1     -0.54      0.00
    7   -1    1     -1.83      0.00
    8   -1    1     -4.04      0.00
    9   -1    1      1.61      0.00
   10   -1    1      4.56      0.00
   11   -1    1      1.17      0.00
   12   -1    1     -1.88      0.00
   13   -1    1      0.60      0.00
   14   -1    1      2.08      0.00
   15   -1    1      3.30      0.00
   16   -1    1      1.83      0.00
   17   -1    1      0.05      0.00
   18   -1    1      4.50      0.00
   19   -1    1     -0.99      0.00
  -19    0    1     -1.84      0.00
  -18    0    1      4.51      0.00
  -17    0    1     -2.40      0.00
  -16    0    1      0.06      0.00
  -15    0    1      3.94      0.00
  -14    0    1      4.64      0.00
  -13    0    1      8.23      0.00
  -12    0    1      4.06      0.00
  -11    0    1      2.92      0.00
  -10    0    1      4.79      0.00
   -9    0    1     -1.35      0.00
   -8    0    1      3.24      0.00
   -7    0    1      2.02      0.00
   -6    0    1    -10.04      0.00
   -5    0    1      2.57      0.00
   -4    0    1     13.38      0.00
   -3    0    1    -10.93      0.00
   -2    0    1    -52.16      0.00
    2    0    1    -81.14      0.00
    3    0    1     -5.96      0.00
    4    0    1     -4.90      0.00
    5    0    1     -1.49      0.00
    6    0    1     -0.44      0.00
    7    0    1     -2.54      0.00
    8    0    1     -0.87      0.00
    9    0    1      0.83      0.00
   10    0    1     -1.59      0.00
   11    0    1     -3.75      0.00
   12    0    1     -0.52      0.00
   13    0    1     -2.45      0.00
   14    0    1     -0.30      0.00
   15    0    1      3.21      0.00
   16    0    1      1.10      0.00
   17    0    1      7.10      0.00
   18    0    1      2.93      0.00
   19    0    1      5.75      0.00
  -19    1    1      2.84      0.00
  -18    1    1     -3.62      0.00
  -17    1    1     -1.39      0.00
  -16    1    1     -0.39      0.00
  -15    1    1     -6.98      0.00
  -14    1    1     -5.55      0.00
  -13    1    1     -6.34      0.00
  -12    1    1     -4.71      0.00
  -11    1    1     -2.98      0.00
  -10    1    1     -6.43      0.00
   -9    1    1     -2.07      0.00
   -8    1    1      0.88      0.00
   -7    1    1      3.29      0.00
   -6    1    1      3.36      0.00
   -5    1    1      1.07      0.00
   -4    1    1     -2.84      0.00
   -3    1    1     -2.04      0.00
   -2    1    1      4.42      0.00
   -1    1    1    -55.26      0.00
    2    1    1     60.54      0.00
    3    1    1    -31.94      0.00
    4    1    1    -16.98      0.00
    5    1    1      0.50      0.00
    6    1    1     -2.71      0.00
    7    1    1     -2.44      0.00
    8    1    1      6.31      0.00
    9    1    1      6.43      0.00
   10    1    1      4.35      0.00
   11    1    1      3.89      0.00
   12    1    1     -2.98      0.00
   13    1    1     -0.56      0.00
   14    1    1     -0.97      0.00
   15    1    1     -5.75      0.00
   16    1    1      1.76      0.00
   17    1    1     -0.79      0.00
   18    1    1     -3.00      0.00
   19    1    1     -5.37      0.00
   20    1    1    -10.65      0.00
  -18    2    1      1.53      0.00
  -17    2    1      1.30      0.00
  -16    2    1     -3.00      0.00
  -15    2    1      0.98      0.00
  -14    2    1     -1.44      0.00
  -13    2    1     -4.84      0.00
  -12    2    1     -2.99      0.00
  -11    2    1     -2.44      0.00
  -10    2    1     -3.38      0.00
   -9    2    1     -3.82      0.00
   -8    2    1      0.51      0.00
   -7    2    1      1.30      0.00
   -6    2    1      6.15      0.00
   -5    2    1      7.08      0.00
   -4    2    1      5.90      0.00
   -3    2    1      7.74      0.00
   -2    2    1    -21.92      0.00
   -1    2    1    -28.26      0.00
    0    2    1     -9.88      0.00
    2    2    1    -85.92      0.00
    3    2    1    -14.21      0.00
    4    2    1    -21.13      0.00
    5    2    1    -26.55      0.00
    6    2    1     -9.14      0.00
    7    2    1      4.22      0.00
    8    2    1     -8.97      0.00
    9    2    1     -9.37      0.00
   10    2    1     -4.08      0.00
   11    2    1     -7.81      0.00
   12    2    1     -2.54      0.00
   13    2    1     -0.80      0.00
   14    2    1     -0.28      0.00
   15    2    1      6.49      0.00
   16    2    1      1.51      0.00
   17    2    1     -3.33      0.00
   18    2    1     -1.78      0.00
   19    2    1     -1.86      0.00
   20    2    1      7.17      0.00
  -18    3    1     -4.42      0.00
  -17    3    1     -8.43      0.00
  -16    3    1     -3.67      0.00
  -15    3    1     -1.61      0.00
  -14    3    1     -5.35      0.00
  -13    3    1     -4.25      0.00
  -12    3    1     -5.17      0.00
  -11    3    1     -7.97      0.00
  -10    3    1     -8.16      0.00
   -9    3    1     -5.20      0.00
   -8    3    1     -3.03      0.00
   -7    3    1      1.56      0.00
   -6    3    1     -3.72      0.00
   -5    3    1     -5.68      0.00
   -4    3    1      5.64      0.00
   -3    3    1    -10.28      0.00
   -2    3    1    -20.05      0.00
   -1    3    1     -7.60      0.00
    0    3    1    -32.96      0.00
    1    3    1    -11.60      0.00
    2    3    1     -9.79      0.00
    3    3    1    -37.39      0.00
    4    3    1    -18.22      0.00
    5    3    1      4.14      0.00
    6    3    1      2.80      0.00
    7    3    1    -16.12      0.00
    8    3    1     -0.73      0.00
    9    3    1      5.57      0.00
   10    3    1     -5.65      0.00
   11    3    1     -2.32      0.00
   12    3    1      0.52      0.00
   13    3    1     -0.67      0.00
   14    3    1      1.75      0.00
   15    3    1     -1.26      0.00
   16    3    1     -2.06      0.00
   17    3    1      1.64      0.00
   18    3    1      2.40      0.00
   19    3    1      7.60      0.00
   20    3    1      2.43      0.00
  -17    4    1      9.25      0.00
  -16    4    1      9.36      0.00
  -15    4    1     -1.67      0.00
  -14    4    1     -2.81      0.00
  -13    4    1     -1.94      0.00
  -12    4    1      2.52      0.00
  -11    4    1      5.06      0.00
  -10    4    1      3.96      0.00
   -9    4    1      2.19      0.00
   -8    4    1      5.87      0.00
   -7    4    1     -0.61      0.00
   -6    4    1     -7.00      0.00
   -5    4    1     -3.41      0.00
   -4    4    1    -12.34      0.00
   -3    4    1     -9.43      0.00
   -2    4    1     -0.49      0.00
   -1    4    1    -13.79      0.00
    1    4    1      0.81      0.00
    2    4    1     -4.49      0.00
    3    4    1      6.90      0.00
    4    4    1     13.33      0.00
    5    4    1      6.08      0.00
    6    4    1     -5.05      0.00
    7    4    1     13.09      0.00
    8    4    1      8.60      0.00
    9    4    1     -4.67      0.00
   10    4    1      2.77      0.00
   11    4    1      2.02      0.00
   12    4    1     -5.35      0.00
   13    4    1     -4.98      0.00
   14    4    1     -5.81      0.00
   15    4    1     -3.33      0.00
   16    4    1     -1.66      0.00
   17    4    1     -5.31      0.00
   18    4    1     -6.95      0.00
   19    4    1     -8.88      0.00
   20    4    1     -9.82      0.00
   21    4    1     -6.30      0.00
  -16    5    1      2.21      0.00
  -15    5    1      2.31      0.00
  -14    5    1     -3.61      0.00
  -13    5    1     -3.35      0.00
  -12    5    1     -0.75      0.00
  -11    5    1      3.48      0.00
  -10    5    1      4.75      0.00
   -9    5    1      7.62      0.00
   -8    5    1      0.74      0.00
   -7    5    1     -0.37      0.00
   -6    5    1      4.55      0.00
   -5    5    1     -1.79      0.00
   -4    5    1     -3.49      0.00
   -3    5    1     -1.02      0.00
   -2    5    1     -2.35      0.00
   -1    5    1      2.86      0.00
    0    5    1      9.66      0.00
    1    5    1      5.38      0.00
    2    5    1      3.88      0.00
    3    5    1      7.53      0.00
    4    5    1     -0.84      0.00
    5    5    1    -10.28      0.00
    6    5    1      0.33      0.00
    7    5    1     -5.87      0.00
    8    5    1    -12.00      0.00
    9    5    1     -0.05      0.00
   10    5    1     -2.37      0.00
   11    5    1     -6.34      0.00
   12    5    1     -2.21      0.00
   13    5    1      0.09      0.00
   14    5    1      3.51      0.00
   15    5    1      0.39      0.00
   16    5    1     -3.82      0.00
   17    5    1     -0.88      0.00
   18    5    1      3.45      0.00
   19    5    1      0.47      0.00
   20    5    1      1.05      0.00
   21    5    1      1.04      0.00
  -16    6    1     -0.25      0.00
  -15    6    1     -1.83      0.00
  -14    6    1     -0.43      0.00
  -13    6    1     -1.55      0.00
  -12    6    1      0.57      0.00
  -11    6    1      1.13      0.00
  -10    6    1      2.81      0.00
   -9    6    1     -1.05      0.00
   -8    6    1      2.60      0.00
   -7    6    1      2.06      0.00
   -6    6    1     -5.32      0.00
   -5    6    1     -1.74      0.00
   -4    6    1      5.95      0.00
   -3    6    1      4.23      0.00
   -2    6    1      0.18      0.00
   -1    6    1      3.60      0.00
    0    6    1      3.68      0.00
    1    6    1     -5.29      0.00
    2    6    1      1.79      0.00
    3    6    1     -4.04      0.00
    4    6    1    -10.02      0.00
    5    6    1      1.95      0.00
    6    6    1      0.66      0.00
    7    6    1     -5.22      0.00
    8    6    1      2.72      0.00
    9    6    1     -4.58      0.00
   10    6    1     -7.64      0.00
   11    6    1     -2.87      0.00
   12    6    1      0.08      0.00
   13    6    1      1.01      0.00
   14    6    1     -0.07      0.00
   15    6    1      2.35      0.00
   16    6    1      3.62      0.00
   17    6    1     -1.64      0.00
   18    6    1     -5.53      0.00
   19    6    1     -2.55      0.00
   20    6    1     -5.11      0.00
   21    6    1     -8.76      0.00
  -15    7    1     -5.82      0.00
  -14    7    1     -9.32      0.00
  -13    7    1     -5.44      0.00
  -12    7    1     -2.27      0.00
  -11    7    1     -0.48      0.00
  -10    7    1      0.27      0.00
   -9    7    1      3.77      0.00
   -8    7    1     -1.51      0.00
   -7    7    1     -5.41      0.00
   -6    7    1     -0.33      0.00
   -5    7    1      1.71      0.00
   -4    7    1      1.05      0.00
   -3    7    1      3.88      0.00
   -2    7    1      9.00      0.00
   -1    7    1      4.97      0.00
    0    7    1     -6.43      0.00
    1    7    1      4.88      0.00
    2    7    1      1.13      0.00
    3    7    1     -0.65      0.00
    4    7    1      7.96      0.00
    5    7    1     -3.29      0.00
    6    7    1    -10.69      0.00
    7    7    1      1.41      0.00
    8    7    1     -4.46      0.00
    9    7    1     -6.78      0.00
   10    7    1     -2.03      0.00
   11    7    1      0.97      0.00
   12    7    1      0.52      0.00
   13    7    1      2.34      0.00
   14    7    1      2.00      0.00
   15    7    1     -3.28      0.00
   16    7    1     -5.60      0.00
   17    7    1      5.00      0.00
   18    7    1      8.71      0.00
   19    7    1      2.13      0.00
   20    7    1     -0.28      0.00
   21    7    1      4.41      0.00
  -14    8    1      6.49      0.00
  -13    8    1      4.73      0.00
  -12    8    1      2.93      0.00
  -11    8    1      4.73      0.00
  -10    8    1      2.03      0.00
   -9    8    1     -4.21      0.00
   -8    8    1     -3.03      0.00
   -7    8    1     -1.08      0.00
   -6    8    1     -3.14      0.00
   -5    8    1     -0.82      0.00
   -4    8    1      0.19      0.00
   -3    8    1     -0.29      0.00
   -2    8    1     -3.38      0.00
   -1    8    1     -6.67      0.00
    0    8    1      1.80      0.00
    1    8    1     -4.96      0.00
    2    8    1     -7.33      0.00
    3    8    1     -1.25      0.00
    4    8    1     -6.38      0.00
    5    8    1      0.32      0.00
    6    8    1     13.54      0.00
    7    8    1      5.21      0.00
    8    8    1      3.69      0.00
    9    8    1      6.73      0.00
   10    8    1      1.79      0.00
   11    8    1     -5.46      0.00
   12    8    1     -0.96      0.00
   13    8    1      1.78      0.00
   14    8    1     -0.88      0.00
   15    8    1     -0.93      0.00
   16    8    1      7.06      0.00
   17    8    1      1.87      0.00
   18    8    1     -2.64      0.00
   19    8    1     -1.14      0.00
   20    8    1     -1.45      0.00
   21    8    1     -6.00      0.00
  -13    9    1      0.71      0.00
  -12    9    1      2.45      0.00
  -11    9    1     -3.89      0.00
  -10    9    1     -2.91      0.00
   -9    9    1      1.80      0.00
   -8    9    1     -1.08      0.00
   -7    9    1     -2.27      0.00
   -6    9    1      1.84      0.00
   -5    9    1      2.69      0.00
   -4    9    1      4.24      0.00
   -3    9    1      3.72      0.00
   -2    9    1      1.58      0.00
   -1    9    1      3.34      0.00
    0    9    1     -1.97      0.00
    1    9    1     -1.83      0.00
    2    9    1      3.83      0.00
    3    9    1     -1.28      0.00
    4    9    1     -1.32      0.00
    5    9    1      2.44      0.00
    6    9    1     -2.65      0.00
    7    9    1      0.47      0.00
    8    9    1      2.76      0.00
    9    9    1     -3.58      0.00
   10    9    1     -5.52      0.00
   11    9    1      4.10      0.00
   12    9    1      4.47      0.00
   13    9    1      0.37      0.00
   14    9    1      2.74      0.00
   15    9    1      7.10      0.00
   16    9    1     -1.68      0.00
   17    9    1     -1.03      0.00
   18    9    1      2.93      0.00
   19    9    1      0.85      0.00
   20    9    1      0.85      0.00
   21    9    1      4.37      0.00
  -13   10    1      1.07      0.00
  -12   10    1     -2.74      0.00
  -11   10    1      4.44      0.00
  -10   10    1      4.34      0.00
   -9   10    1     -2.67      0.00
   -8   10    1     -2.86      0.00
   -7   10    1     -3.44      0.00
   -6   10    1     -3.46      0.00
   -5   10    1     -2.59      0.00
   -4   10    1     -5.44      0.00
   -3   10    1     -7.36      0.00
   -2   10    1     -5.05      0.00
   -1   10    1     -5.60      0.00
    0   10    1     -3.77      0.00
    1   10    1      0.93      0.00
    2   10    1     -0.17      0.00
    3   10    1      2.52      0.00
    4   10    1      7.68      0.00
    5   10    1      5.34      0.00
    6   10    1      7.38      0.00
    7   10    1      7.86      0.00
    8   10    1      2.85      0.00
    9   10    1      2.88      0.00
   10   10    1      5.92      0.00
   11   10    1     -0.56      0.00
   12   10    1     -3.16      0.00
   13   10    1      1.70      0.00
   14   10    1      0.75      0.00
   15   10    1     -6.20      0.00
   16   10    1      0.62      0.00
   17   10    1      3.93      0.00
   18   10    1      0.99      0.00
   19   10    1      2.62      0.00
   20   10    1      2.82      0.00
   21   10    1     -2.05      0.00
  -12   11    1      9.96      0.00
  -11   11    1      5.13      0.00
  -10   11    1      1.79      0.00
   -9   11    1      4.12      0.00
   -8   11    1      2.32      0.00
   -7   11    1      7.04      0.00
   -6   11    1      6.86      0.00
   -5   11    1      1.67      0.00
   -4   11    1      0.63      0.00
   -3   11    1      3.65      0.00
   -2   11    1      2.89      0.00
   -1   11    1      2.31      0.00
    0   11    1      3.78      0.00
    1   11    1      2.38      0.00
    2   11    1      0.00      0.00
    3   11    1      0.44      0.00
    4   11    1      0.97      0.00
    5   11    1      3.16      0.00
    6   11    1      0.41      0.00
    7   11    1     -5.40      0.00
    8   11    1     -4.18      0.00
    9   11    1      0.81      0.00
   10   11    1     -0.15      0.00
   11   11    1     -1.22      0.00
   12   11    1      0.03      0.00
   13   11    1     -4.13      0.00
   14   11    1     -6.24      0.00
   15   11    1      3.02      0.00
   16   11    1      5.54      0.00
   17   11    1      1.40      0.00
   18   11    1     -4.24      0.00
   19   11    1     -6.77      0.00
   20   11    1     -5.12      0.00
   21   11    1     -0.89      0.00
  -10   12    1      1.51      0.00
   -9   12    1      2.18      0.00
   -8   12    1      8.55      0.00
   -7   12    1      2.12      0.00
   -6   12    1     -4.30      0.00
   -5   12    1     -3.21      0.00
   -4   12    1     -1.30      0.00
   -3   12    1     -3.00      0.00
   -2   12    1     -0.93      0.00
   -1   12    1      2.68      0.00
    0   12    1      1.89      0.00
    1   12    1     -2.23      0.00
    2   12    1     -1.70      0.00
    3   12    1     -1.50      0.00
    4   12    1     -5.37      0.00
    5   12    1     -6.62      0.00
    6   12    1     -6.09      0.00
    7   12    1     -3.58      0.00
    8   12    1      2.78      0.00
    9   12    1      2.66      0.00
   10   12    1     -0.72      0.00
   11   12    1      0.17      0.00
   12   12    1     -1.89      0.00
   13   12    1     -0.63      0.00
   14   12    1      6.09      0.00
   15   12    1      2.72      0.00
   16   12    1     -4.67      0.00
   17   12    1     -4.94      0.00
   18   12    1      5.18      0.00
   19   12    1      8.07      0.00
   20   12    1      4.06      0.00
   21   12    1      3.35      0.00
   -9   13    1      5.15      0.00
   -8   13    1      0.04      0.00
   -7   13    1      2.35      0.00
   -6   13    1      5.44      0.00
   -5   13    1      2.64      0.00
   -4   13    1      0.11      0.00
   -3   13    1      2.64      0.00
   -2   13    1      2.62      0.00
   -1   13    1      0.72      0.00
    0   13    1      0.69      0.00
    1   13    1      5.03      0.00
    2   13    1      3.68      0.00
    3   13    1     -0.60      0.00
    4   13    1      4.15      0.00
    5   13    1      3.71      0.00
    6   13    1     -2.34      0.00
    7   13    1      0.99      0.00
    8   13    1     -1.28      0.00
    9   13    1     -4.31      0.00
   10   13    1     -1.52      0.00
   11   13    1     -1.32      0.00
   12   13    1      1.75      0.00
   13   13    1      5.25      0.00
   14   13    1      1.44      0.00
   15   13    1      2.32      0.00
   16   13    1      9.96      0.00
   17   13    1     12.24      0.00
   18   13    1      2.83      0.00
   19   13    1      0.78      0.00
   20   13    1      6.58      0.00
   21   13    1      2.65      0.00
   -8   14    1     -1.32      0.00
   -7   14    1     -2.42      0.00
   -6   14    1     -4.71      0.00
   -5   14    1     -2.97      0.00
   -4   14    1     -1.47      0.00
   -3   14    1     -3.02      0.00
   -2   14    1     -4.13      0.00
   -1   14    1     -4.11      0.00
    0   14    1     -0.07      0.00
    1   14    1      0.05      0.00
    2   14    1      1.25      0.00
    5   14    1     -2.53      0.00
    6   14    1      5.58      0.00
    7   14    1      2.15      0.00
    8   14    1     -0.05      0.00
    9   14    1      2.77      0.00
   10   14    1      0.54      0.00
   11   14    1      0.77      0.00
   12   14    1      2.98      0.00
   13   14    1      2.17      0.00
   14   14    1      1.69      0.00
   15   14    1      1.34      0.00
   16   14    1     -2.52      0.00
   17   14    1     -2.48      0.00
   18   14    1      3.44      0.00
   19   14    1      4.78      0.00
   20   14    1     -3.06      0.00
   -7   15    1     -6.16      0.00
   -6   15    1     -4.00      0.00
   -5   15    1     -1.27      0.00
   -4   15    1      2.83      0.00
   -3   15    1      2.07      0.00
   -2   15    1      0.22      0.00
   -1   15    1      2.09      0.00
    0   15    1     -0.83      0.00
    1   15    1      0.00      0.00
    2   15    1      3.55      0.00
    5   15    1      5.86      0.00
    6   15    1     -4.08      0.00
    7   15    1     -2.50      0.00
    8   15    1      4.10      0.00
    9   15    1      0.32      0.00
   10   15    1      0.12      0.00
   12   15    1     -0.98      0.00
   13   15    1     -2.96      0.00
   14   15    1      0.30      0.00
   15   15    1      0.47      0.00
   16   15    1      1.26      0.00
   17   15    1     -0.30      0.00
   18   15    1     -1.46      0.00
   19   15    1     -3.54      0.00
   20   15    1     -2.53      0.00
   -5   16    1      2.70      0.00
   -4   16    1     -1.44      0.00
   -3   16    1     -1.06      0.00
   -2   16    1     -1.63      0.00
   -1   16    1     -6.68      0.00
    0   16    1     -3.15      0.00
    1   16    1      0.28      0.00
    2   16    1      2.22      0.00
   13   16    1     -1.72      0.00
   14   16    1     -4.41      0.00
   15   16    1     -2.77      0.00
   16   16    1     -2.35      0.00
   17   16    1     -2.07      0.00
   18   16    1     -2.68      0.00
   19   16    1     -0.60      0.00
   -3   17    1     -1.84      0.00
   -2   17    1     -5.52      0.00
   -1   17    1     -4.67      0.00
    0   17    1     -6.81      0.00
    1   17    1     -2.28      0.00
   15   17    1     -1.24      0.00
   16   17    1     -2.99      0.00
   17   17    1     -2.21      0.00
   -1  -18    2     10.43      0.00
    0  -18    2      1.57      0.00
   -3  -17    2      2.09      0.00
   -2  -17    2      1.60      0.00
   -1  -17    2     -1.68      0.00
    0  -17    2      2.95      0.00
    1  -17    2      3.44      0.00
    2  -17    2      1.17      0.00
   -4  -16    2     -2.68      0.00
   -3  -16    2     -0.33      0.00
   -2  -16    2      2.95      0.00
   -1  -16    2      1.78      0.00
    0  -16    2     -6.02      0.00
    1  -16    2     -8.29      0.00
    2  -16    2     -3.24      0.00
    3  -16    2     -5.61      0.00
    4  -16    2     -2.54      0.00
  -17  -15    2      4.12      0.00
  -16  -15    2      3.46      0.00
   -5  -15    2     -5.08      0.00
   -4  -15    2      0.18      0.00
   -3  -15    2      4.42      0.00
   -2  -15    2      2.97      0.00
   -1  -15    2     -0.04      0.00
    0  -15    2     -2.43      0.00
    1  -15    2     -1.12      0.00
    2  -15    2     -1.39      0.00
    3  -15    2      3.71      0.00
    4  -15    2      3.16      0.00
    5  -15    2      4.12      0.00
    6  -15    2      6.13      0.00
  -19  -14    2     -5.74      0.00
  -18  -14    2     -1.69      0.00
  -17  -14    2     -3.16      0.00
  -16  -14    2     -6.06      0.00
  -15  -14    2     -3.54      0.00
  -14  -14    2     -3.13      0.00
  -10  -14    2     -0.35      0.00
   -9  -14    2     -5.70      0.00
   -8  -14    2     -0.32      0.00
   -7  -14    2     -1.31      0.00
   -6  -14    2     -5.74      0.00
   -5  -14    2      1.43      0.00
   -4  -14    2      2.19      0.00
   -3  -14    2      0.53      0.00
   -2  -14    2      3.09      0.00
   -1  -14    2      2.80      0.00
    0  -14    2      4.61      0.00
    1  -14    2      4.94      0.00
    2  -14    2      4.78      0.00
    3  -14    2      0.77      0.00
    4  -14    2      0.16      0.00
    5  -14    2      1.58      0.00
    6  -14    2     -1.48      0.00
    7  -14    2     -0.43      0.00
  -20  -13    2     -0.88      0.00
  -19  -13    2      6.39      0.00
  -18  -13    2      5.81      0.00
  -17  -13    2      2.65      0.00
  -16  -13    2      3.48      0.00
  -15  -13    2     -1.16      0.00
  -14  -13    2     -2.75      0.00
  -13  -13    2      2.27      0.00
  -12  -13    2      5.80      0.00
  -11  -13    2      1.73      0.00
  -10  -13    2      1.26      0.00
   -9  -13    2      7.74      0.00
   -8  -13    2      3.52      0.00
   -7  -13    2     -0.03      0.00
   -6  -13    2      2.67      0.00
   -5  -13    2     -3.22      0.00
   -4  -13    2     -3.50      0.00
   -3  -13    2      1.93      0.00
   -2  -13    2     -1.52      0.00
   -1  -13    2     -2.88      0.00
    0  -13    2      0.18      0.00
    1  -13    2      1.79      0.00
    2  -13    2      1.66      0.00
    3  -13    2      4.21      0.00
    4  -13    2      6.81      0.00
    5  -13    2      3.73      0.00
    6  -13    2      3.43      0.00
    7  -13    2      1.69      0.00
    8  -13    2      0.27      0.00
  -20  -12    2      7.28      0.00
  -19  -12    2      1.29      0.00
  -18  -12    2      0.35      0.00
  -17  -12    2      4.47      0.00
  -16  -12    2     -0.66      0.00
  -15  -12    2      0.54      0.00
  -14  -12    2      6.42      0.00
  -13  -12    2      7.87      0.00
  -12  -12    2      2.44      0.00
  -11  -12    2      0.87      0.00
  -10  -12    2      4.51      0.00
   -9  -12    2     -0.15      0.00
   -8  -12    2      0.14      0.00
   -7  -12    2      3.22      0.00
   -6  -12    2     -1.46      0.00
   -5  -12    2      1.89      0.00
   -4  -12    2      4.25      0.00
   -3  -12    2     -1.74      0.00
   -2  -12    2      0.31      0.00
   -1  -12    2      6.40      0.00
    0  -12    2      2.33      0.00
    1  -12    2     -1.35      0.00
    2  -12    2      0.44      0.00
    3  -12    2      0.00      0.00
    4  -12    2     -4.10      0.00
    5  -12    2     -2.49      0.00
    6  -12    2      1.32      0.00
    7  -12    2      4.18      0.00
    8  -12    2      3.21      0.00
    9  -12    2      0.23      0.00
   10  -12    2     -2.54      0.00
  -20  -11    2     -1.43      0.00
  -19  -11    2      3.49      0.00
  -18  -11    2      4.76      0.00
  -17  -11    2     -4.10      0.00
  -16  -11    2     -1.71      0.00
  -15  -11    2      2.47      0.00
  -14  -11    2      4.57      0.00
  -13  -11    2      2.70      0.00
  -12  -11    2      3.90      0.00
  -11  -11    2      5.28      0.00
  -10  -11    2     -0.31      0.00
   -9  -11    2     -0.62      0.00
   -8  -11    2     -0.64      0.00
   -7  -11    2     -6.53      0.00
   -6  -11    2     -3.66      0.00
   -5  -11    2     -2.13      0.00
   -4  -11    2     -2.94      0.00
   -3  -11    2      0.50      0.00
   -2  -11    2      1.32      0.00
   -1  -11    2     -3.30      0.00
    0  -11    2      1.07      0.00
    1  -11    2      6.82      0.00
    2  -11    2      3.40      0.00
    3  -11    2      0.08      0.00
    4  -11    2      0.72      0.00
    5  -11    2     -0.45      0.00
    6  -11    2     -2.76      0.00
    7  -11    2     -2.11      0.00
    8  -11    2      1.94      0.00
    9  -11    2      4.79      0.00
   10  -11    2      6.78      0.00
   11  -11    2      3.62      0.00
  -21  -10    2      9.52      0.00
  -20  -10    2     10.16      0.00
  -19  -10    2      4.55      0.00
  -18  -10    2     -2.92      0.00
  -17  -10    2      2.88      0.00
  -16  -10    2      6.39      0.00
  -15  -10    2      8.98      0.00
  -14  -10    2      3.87      0.00
  -13  -10    2      1.42      0.00
  -12  -10    2      0.67      0.00
  -11  -10    2     -1.23      0.00
  -10  -10    2      2.44      0.00
   -9  -10    2      5.51      0.00
   -8  -10    2      0.36      0.00
   -7  -10    2      0.14      0.00
   -6  -10    2      1.53      0.00
   -5  -10    2      3.15      0.00
   -4  -10    2      3.18      0.00
   -3  -10    2      1.79      0.00
   -2  -10    2      1.37      0.00
   -1  -10    2      3.28      0.00
    0  -10    2      0.98      0.00
    1  -10    2     -3.63      0.00
    2  -10    2      0.94      0.00
    3  -10    2      4.98      0.00
    4  -10    2      0.74      0.00
    5  -10    2     -3.23      0.00
    6  -10    2     -1.80      0.00
    7  -10    2     -0.03      0.00
    8  -10    2     -0.98      0.00
    9  -10    2      1.09      0.00
   10  -10    2      1.37      0.00
   11  -10    2      1.17      0.00
   12  -10    2      4.25      0.00
  -21   -9    2     -2.90      0.00
  -20   -9    2      2.31      0.00
  -19   -9    2      0.16      0.00
  -18   -9    2      2.92      0.00
  -17   -9    2      0.29      0.00
  -16   -9    2     -0.88      0.00
  -15   -9    2     -5.12      0.00
  -14   -9    2      0.33      0.00
  -13   -9    2      3.30      0.00
  -12   -9    2     -1.04      0.00
  -11   -9    2     -0.55      0.00
  -10   -9    2      3.00      0.00
   -9   -9    2     -0.32      0.00
   -8   -9    2      1.15      0.00
   -7   -9    2      3.67      0.00
   -6   -9    2      3.48      0.00
   -5   -9    2      2.95      0.00
   -4   -9    2      5.46      0.00
   -3   -9    2      5.34      0.00
   -2   -9    2      2.08      0.00
   -1   -9    2      3.27      0.00
    0   -9    2      4.01      0.00
    1   -9    2      3.14      0.00
    2   -9    2      0.24      0.00
    3   -9    2     -4.40      0.00
    4   -9    2     -1.83      0.00
    5   -9    2      0.54      0.00
    6   -9    2     -1.54      0.00
    7   -9    2     -2.68      0.00
    8   -9    2      0.85      0.00
    9   -9    2      1.24      0.00
   10   -9    2      1.26      0.00
   11   -9    2      2.49      0.00
   12   -9    2      3.15      0.00
   13   -9    2      6.17      0.00
  -21   -8    2      4.88      0.00
  -20   -8    2     -3.15      0.00
  -19   -8    2     -0.04      0.00
  -18   -8    2     -1.90      0.00
  -17   -8    2     -2.72      0.00
  -16   -8    2     -2.67      0.00
  -15   -8    2      2.82      0.00
  -14   -8    2      0.61      0.00
  -13   -8    2     -3.80      0.00
  -12   -8    2      2.52      0.00
  -11   -8    2      4.82      0.00
  -10   -8    2     -3.10      0.00
   -9   -8    2     -2.63      0.00
   -8   -8    2      0.79      0.00
   -7   -8    2      2.77      0.00
   -6   -8    2      4.95      0.00
   -5   -8    2      8.27      0.00
   -4   -8    2      4.23      0.00
   -3   -8    2      1.58      0.00
   -2   -8    2      8.33      0.00
   -1   -8    2      4.28      0.00
    0   -8    2     -4.14      0.00
    1   -8    2     -0.28      0.00
    2   -8    2     -1.73      0.00
    3   -8    2     -2.06      0.00
    4   -8    2     -4.82      0.00
    5   -8    2     -4.71      0.00
    6   -8    2     -0.84      0.00
    7   -8    2     -0.18      0.00
    8   -8    2     -4.06      0.00
    9   -8    2     -5.63      0.00
   10   -8    2     -4.95      0.00
   11   -8    2     -1.32      0.00
   12   -8    2      0.01      0.00
   13   -8    2     -2.46      0.00
   14   -8    2      0.20      0.00
  -21   -7    2     -1.49      0.00
  -20   -7    2      3.99      0.00
  -19   -7    2     -1.79      0.00
  -18   -7    2     -4.77      0.00
  -17   -7    2     -2.13      0.00
  -16   -7    2      0.76      0.00
  -15   -7    2      0.57      0.00
  -14   -7    2      0.38      0.00
  -13   -7    2      5.10      0.00
  -12   -7    2     -0.94      0.00
  -11   -7    2     -5.83      0.00
  -10   -7    2      0.12      0.00
   -9   -7    2     -0.96      0.00
   -8   -7    2     -7.35      0.00
   -7   -7    2     -8.31      0.00
   -6   -7    2      0.30      0.00
   -5   -7    2     -0.27      0.00
   -4   -7    2     -1.13      0.00
   -3   -7    2      3.65      0.00
   -2   -7    2     -4.52      0.00
   -1   -7    2     -4.13      0.00
    0   -7    2      8.00      0.00
    1   -7    2     -2.18      0.00
    2   -7    2     -3.43      0.00
    3   -7    2      3.15      0.00
    4   -7    2      7.22      0.00
    5   -7    2      8.15      0.00
    6   -7    2      4.63      0.00
    7   -7    2      2.88      0.00
    8   -7    2      1.67      0.00
    9   -7    2      0.85      0.00
   10   -7    2      2.82      0.00
   11   -7    2      1.35      0.00
   12   -7    2      3.75      0.00
   13   -7    2      8.69      0.00
   14   -7    2      6.21      0.00
   15   -7    2      0.01      0.00
  -21   -6    2     -7.14      0.00
  -20   -6    2    -13.53      0.00
  -19   -6    2     -9.66      0.00
  -18   -6    2      1.29      0.00
  -17   -6    2      5.86      0.00
  -16   -6    2      6.10      0.00
  -15   -6    2      0.08      0.00
  -14   -6    2     -0.83      0.00
  -13   -6    2     -3.46      0.00
  -12   -6    2      2.48      0.00
  -11   -6    2      7.03      0.00
  -10   -6    2      1.39      0.00
   -9   -6    2     -0.58      0.00
   -8   -6    2      3.61      0.00
   -7   -6    2      8.27      0.00
   -6   -6    2     -0.69      0.00
   -5   -6    2     -0.92      0.00
   -4   -6    2      6.19      0.00
   -3   -6    2     -4.73      0.00
   -2   -6    2     -2.38      0.00
   -1   -6    2      1.88      0.00
    0   -6    2    -10.90      0.00
    1   -6    2     -1.01      0.00
    2   -6    2      7.21      0.00
    3   -6    2     -2.64      0.00
    4   -6    2     -4.20      0.00
    5   -6    2     -2.79      0.00
    6   -6    2     -1.56      0.00
    7   -6    2     -5.04      0.00
    8   -6    2     -4.37      0.00
    9   -6    2     -2.10      0.00
   10   -6    2     -4.43      0.00
   11   -6    2     -0.57      0.00
   12   -6    2      2.25      0.00
   13   -6    2     -1.06      0.00
   14   -6    2     -2.29      0.00
   15   -6    2      3.54      0.00
   16   -6    2      3.66      0.00
  -20   -5    2     -6.16      0.00
  -19   -5    2     -2.28      0.00
  -18   -5    2     -1.93      0.00
  -17   -5    2      0.15      0.00
  -16   -5    2     -2.07      0.00
  -15   -5    2     -1.70      0.00
  -14   -5    2     -2.83      0.00
  -13   -5    2     -0.23      0.00
  -12   -5    2     -0.83      0.00
  -11   -5    2     -2.08      0.00
  -10   -5    2     -1.33      0.00
   -9   -5    2     -5.36      0.00
   -8   -5    2     -7.90      0.00
   -7   -5    2    -10.13      0.00
   -6   -5    2     -0.24      0.00
   -5   -5    2      6.19      0.00
   -4   -5    2     -7.67      0.00
   -3   -5    2      2.76      0.00
   -2   -5    2      9.23      0.00
   -1   -5    2      0.95      0.00
    0   -5    2      6.44      0.00
    1   -5    2      3.68      0.00
    2   -5    2     -5.48      0.00
    3   -5    2      6.14      0.00
    4   -5    2      7.54      0.00
    5   -5    2      0.25      0.00
    6   -5    2     -5.70      0.00
    7   -5    2     -1.87      0.00
    8   -5    2     -2.32      0.00
    9   -5    2     -6.18      0.00
   10   -5    2     -1.63      0.00
   11   -5    2      0.29      0.00
   12   -5    2     -3.60      0.00
   13   -5    2     -2.40      0.00
   14   -5    2      5.29      0.00
   15   -5    2      4.19      0.00
   16   -5    2      1.07      0.00
  -20   -4    2      0.46      0.00
  -19   -4    2     -2.10      0.00
  -18   -4    2     -1.73      0.00
  -17   -4    2     -0.72      0.00
  -16   -4    2      1.32      0.00
  -15   -4    2      3.84      0.00
  -14   -4    2      2.01      0.00
  -13   -4    2     -1.15      0.00
  -12   -4    2      0.21      0.00
  -11   -4    2      3.48      0.00
  -10   -4    2      3.61      0.00
   -9   -4    2      5.07      0.00
   -8   -4    2     -1.72      0.00
   -7   -4    2     -2.34      0.00
   -6   -4    2     -1.29      0.00
   -5   -4    2    -12.58      0.00
   -4   -4    2     -3.62      0.00
   -3   -4    2     -6.09      0.00
   -2   -4    2    -13.39      0.00
   -1   -4    2      2.38      0.00
    0   -4    2      9.54      0.00
    1   -4    2      8.84      0.00
    2   -4    2     13.36      0.00
    3   -4    2      7.51      0.00
    4   -4    2      0.38      0.00
    5   -4    2     -1.44      0.00
    6   -4    2      0.63      0.00
    7   -4    2     -3.03      0.00
    8   -4    2     -2.79      0.00
    9   -4    2      4.00      0.00
   10   -4    2      3.31      0.00
   11   -4    2     -0.10      0.00
   12   -4    2      3.84      0.00
   13   -4    2      4.71      0.00
   14   -4    2     -4.79      0.00
   15   -4    2     -6.68      0.00
   16   -4    2     -6.64      0.00
   17   -4    2     -3.76      0.00
  -20   -3    2      0.88      0.00
  -19   -3    2     -0.87      0.00
  -18   -3    2     -3.13      0.00
  -17   -3    2     -5.52      0.00
  -16   -3    2     -2.22      0.00
  -15   -3    2     -4.26      0.00
  -14   -3    2     -3.76      0.00
  -13   -3    2     -1.89      0.00
  -12   -3    2     -1.25      0.00
  -11   -3    2     -0.42      0.00
  -10   -3    2      2.99      0.00
   -9   -3    2     -3.78      0.00
   -8   -3    2     -0.61      0.00
   -7   -3    2      0.33      0.00
   -6   -3    2    -14.67      0.00
   -5   -3    2    -11.64      0.00
   -4   -3    2     -7.45      0.00
   -3   -3    2     -1.89      0.00
   -2   -3    2     18.26      0.00
   -1   -3    2      7.78      0.00
    0   -3    2      0.27      0.00
    1   -3    2     -7.34      0.00
    2   -3    2     -6.40      0.00
    3   -3    2     -9.09      0.00
    4   -3    2     -7.46      0.00
    5   -3    2      0.03      0.00
    6   -3    2     -0.05      0.00
    7   -3    2      0.66      0.00
    8   -3    2      3.71      0.00
    9   -3    2     -0.11      0.00
   10   -3    2      0.81      0.00
   11   -3    2      6.23      0.00
   12   -3    2      3.14      0.00
   13   -3    2     -1.50      0.00
   14   -3    2      3.88      0.00
   15   -3    2      3.06      0.00
   16   -3    2      1.86      0.00
   17   -3    2      4.35      0.00
   18   -3    2     -1.25      0.00
  -20   -2    2     -7.83      0.00
  -19   -2    2     -4.25      0.00
  -18   -2    2     -1.85      0.00
  -17   -2    2      1.54      0.00
  -16   -2    2      0.31      0.00
  -15   -2    2      2.05      0.00
  -14   -2    2      2.64      0.00
  -13   -2    2     -1.26      0.00
  -12   -2    2     -1.66      0.00
  -11   -2    2      1.80      0.00
  -10   -2    2     -4.12      0.00
   -9   -2    2      0.89      0.00
   -8   -2    2     -0.53      0.00
   -7   -2    2     -8.40      0.00
   -6   -2    2      4.18      0.00
   -5   -2    2     12.75      0.00
   -4   -2    2      2.98      0.00
   -3   -2    2      4.88      0.00
   -2   -2    2     -8.62      0.00
   -1   -2    2     -3.87      0.00
    0   -2    2    -34.35      0.00
    1   -2    2    -29.92      0.00
    2   -2    2    -26.21      0.00
    3   -2    2    -21.80      0.00
    4   -2    2     -8.91      0.00
    5   -2    2    -18.88      0.00
    6   -2    2    -22.14      0.00
    7   -2    2    -13.47      0.00
    8   -2    2    -11.18      0.00
    9   -2    2     -5.74      0.00
   10   -2    2     -1.38      0.00
   11   -2    2      0.00      0.00
   12   -2    2      2.90      0.00
   13   -2    2      4.48      0.00
   14   -2    2     -2.87      0.00
   15   -2    2     -4.65      0.00
   16   -2    2     -1.62      0.00
   17   -2    2     -4.55      0.00
   18   -2    2      0.87      0.00
  -19   -1    2      2.03      0.00
  -18   -1    2      1.59      0.00
  -17   -1    2      5.56      0.00
  -16   -1    2      6.68      0.00
  -15   -1    2      6.02      0.00
  -14   -1    2     -1.50      0.00
  -13   -1    2     -1.62      0.00
  -12   -1    2      0.95      0.00
  -11   -1    2     -5.62      0.00
  -10   -1    2     -4.93      0.00
   -9   -1    2    -12.46      0.00
   -8   -1    2    -17.40      0.00
   -7   -1    2     -5.71      0.00
   -6   -1    2     -6.40      0.00
   -5   -1    2    -16.92      0.00
   -4   -1    2      5.36      0.00
   -3   -1    2     16.13      0.00
   -2   -1    2     19.84      0.00
   -1   -1    2     -0.16      0.00
    0   -1    2     56.48      0.00
    1   -1    2     41.20      0.00
    2   -1    2     -1.42      0.00
    3   -1    2     17.45      0.00
    4   -1    2      7.54      0.00
    5   -1    2      8.28      0.00
    6   -1    2     10.38      0.00
    7   -1    2      2.34      0.00
    8   -1    2      1.03      0.00
    9   -1    2     -2.84      0.00
   10   -1    2     -6.44      0.00
   11   -1    2     -7.23      0.00
   12   -1    2     -7.22      0.00
   13   -1    2     -9.25      0.00
   14   -1    2     -6.77      0.00
   15   -1    2     -3.01      0.00
   16   -1    2     -4.92      0.00
   17   -1    2     -5.85      0.00
   18   -1    2     -7.25      0.00
   19   -1    2     -7.90      0.00
  -19    0    2      0.31      0.00
  -18    0    2      0.02      0.00
  -17    0    2     -6.35      0.00
  -16    0    2     -1.05      0.00
  -15    0    2     -1.94      0.00
  -14    0    2     -0.04      0.00
  -13    0    2     -1.08      0.00
  -12    0    2     -7.33      0.00
  -11    0    2     -4.36      0.00
  -10    0    2     -4.49      0.00
   -9    0    2     -1.50      0.00
   -8    0    2      4.54      0.00
   -7    0    2     -5.33      0.00
   -6    0    2     -8.57      0.00
   -5    0    2      4.19      0.00
   -4    0    2    -14.42      0.00
   -3    0    2    -31.54      0.00
   -2    0    2    -23.81      0.00
   -1    0    2      2.82      0.00
    0    0    2   -105.91      0.00
    1    0    2   -139.46      0.00
    2    0    2    -44.94      0.00
    3    0    2    -49.69      0.00
    4    0    2    -31.49      0.00
    5    0    2    -14.14      0.00
    6    0    2     -9.87      0.00
    7    0    2      1.11      0.00
    8    0    2      6.23      0.00
    9    0    2      4.23      0.00
   10    0    2      0.87      0.00
   11    0    2      1.24      0.00
   12    0    2      1.15      0.00
   13    0    2      1.22      0.00
   14    0    2      4.23      0.00
   15    0    2      1.48      0.00
   16    0    2     -3.06      0.00
   17    0    2      0.51      0.00
   18    0    2     -1.16      0.00
   19    0    2      5.91      0.00
  -19    1    2     -1.27      0.00
  -18    1    2     -1.94      0.00
  -17    1    2      6.07      0.00
  -16    1    2      0.00      0.00
  -15    1    2     -1.65      0.00
  -14    1    2      1.71      0.00
  -13    1    2      0.64      0.00
  -12    1    2      1.47      0.00
  -11    1    2     -1.12      0.00
  -10    1    2      0.04      0.00
   -9    1    2      3.82      0.00
   -8    1    2      1.03      0.00
   -7    1    2      7.67      0.00
   -6    1    2     11.67      0.00
   -5    1    2      4.65      0.00
   -4    1    2     11.04      0.00
   -3    1    2     23.86      0.00
   -2    1    2      0.02      0.00
   -1    1    2    -94.09      0.00
    0    1    2    -85.11      0.00
    1    1    2    -62.12      0.00
    2    1    2   -132.72      0.00
    3    1    2    -44.92      0.00
    4    1    2     14.68      0.00
    5    1    2      3.50      0.00
    6    1    2     -4.00      0.00
    7    1    2     -1.00      0.00
    8    1    2     -2.94      0.00
    9    1    2     -6.52      0.00
   10    1    2     -2.78      0.00
   11    1    2     -0.26      0.00
   12    1    2     -0.38      0.00
   13    1    2      4.56      0.00
   14    1    2      1.46      0.00
   15    1    2     -2.18      0.00
   16    1    2      1.25      0.00
   17    1    2     -5.07      0.00
   18    1    2      1.88      0.00
   19    1    2      0.01      0.00
   20    1    2     -0.63      0.00
  -18    2    2      6.04      0.00
  -17    2    2     -2.18      0.00
  -16    2    2     -4.09      0.00
  -15    2    2     -0.28      0.00
  -14    2    2     -3.72      0.00
  -13    2    2     -3.91      0.00
  -12    2    2     -4.25      0.00
  -11    2    2     -3.40      0.00
  -10    2    2     -3.29      0.00
   -9    2    2     -5.94      0.00
   -8    2    2     -3.60      0.00
   -7    2    2     -1.80      0.00
   -6    2    2      0.14      0.00
   -5    2    2     -7.13      0.00
   -4    2    2     -8.56      0.00
   -3    2    2     -1.53      0.00
   -2    2    2     -2.86      0.00
   -1    2    2     21.81      0.00
    0    2    2      4.44      0.00
    1    2    2    -15.46      0.00
    2    2    2     91.49      0.00
    3    2    2     63.92      0.00
    4    2    2     -3.85      0.00
    5    2    2     -2.97      0.00
    6    2    2      9.02      0.00
    7    2    2     -0.51      0.00
    8    2    2     -8.78      0.00
    9    2    2      0.36      0.00
   10    2    2      3.94      0.00
   11    2    2      1.46      0.00
   12    2    2      4.07      0.00
   13    2    2     -1.58      0.00
   14    2    2     -2.71      0.00
   15    2    2      0.84      0.00
   16    2    2     -1.08      0.00
   17    2    2      8.64      0.00
   18    2    2      5.89      0.00
   19    2    2      1.19      0.00
   20    2    2      2.88      0.00
  -18    3    2     -2.99      0.00
  -17    3    2     -2.97      0.00
  -16    3    2      1.75      0.00
  -15    3    2     -0.44      0.00
  -14    3    2      1.28      0.00
  -13    3    2      2.61      0.00
  -12    3    2      2.04      0.00
  -11    3    2      2.73      0.00
  -10    3    2      4.93      0.00
   -9    3    2      3.17      0.00
   -8    3    2     -0.95      0.00
   -7    3    2     -3.93      0.00
   -6    3    2    -14.70      0.00
   -5    3    2    -16.28      0.00
   -4    3    2    -18.42      0.00
   -3    3    2    -33.34      0.00
   -2    3    2    -22.03      0.00
    0    3    2     -5.63      0.00
    1    3    2     30.39      0.00
    2    3    2    -14.62      0.00
    3    3    2    -17.63      0.00
    4    3    2     22.06      0.00
    5    3    2     18.11      0.00
    6    3    2     -3.71      0.00
    7    3    2     -6.01      0.00
    8    3    2      4.94      0.00
    9    3    2     -5.46      0.00
   10    3    2    -11.18      0.00
   11    3    2     -3.51      0.00
   12    3    2     -4.44      0.00
   13    3    2     -2.10      0.00
   14    3    2     -1.27      0.00
   15    3    2     -5.88      0.00
   16    3    2     -3.08      0.00
   17    3    2     -4.42      0.00
   18    3    2     -2.07      0.00
   19    3    2      5.56      0.00
   20    3    2      2.36      0.00
  -17    4    2     -6.35      0.00
  -16    4    2    -11.83      0.00
  -15    4    2     -7.85      0.00
  -14    4    2     -0.01      0.00
  -13    4    2     -0.13      0.00
  -12    4    2      0.88      0.00
  -11    4    2      5.44      0.00
  -10    4    2      4.86      0.00
   -9    4    2      3.08      0.00
   -8    4    2      3.78      0.00
   -7    4    2      2.35      0.00
   -6    4    2      7.19      0.00
   -5    4    2      5.15      0.00
   -4    4    2     -2.09      0.00
   -3    4    2     15.84      0.00
   -2    4    2     18.53      0.00
   -1    4    2     10.78      0.00
    0    4    2     22.51      0.00
    1    4    2     18.81      0.00
    2    4    2     27.76      0.00
    3    4    2     30.69      0.00
    4    4    2      0.61      0.00
    5    4    2    -12.57      0.00
    6    4    2     -0.53      0.00
    7    4    2      7.72      0.00
    8    4    2     -8.44      0.00
    9    4    2     -4.40      0.00
   10    4    2      4.38      0.00
   11    4    2     -1.87      0.00
   12    4    2      0.34      0.00
   13    4    2      1.95      0.00
   14    4    2     -3.49      0.00
   15    4    2     -2.49      0.00
   16    4    2      0.06      0.00
   17    4    2      3.37      0.00
   18    4    2      5.20      0.00
   19    4    2      1.71      0.00
   20    4    2      6.74      0.00
   21    4    2      7.30      0.00
  -16    5    2     -3.45      0.00
  -15    5    2      5.16      0.00
  -14    5    2      4.18      0.00
  -13    5    2      5.00      0.00
  -12    5    2      4.82      0.00
  -11    5    2      2.88      0.00
  -10    5    2      2.64      0.00
   -9    5    2      2.03      0.00
   -8    5    2     -4.03      0.00
   -7    5    2     -0.36      0.00
   -6    5    2     -1.28      0.00
   -5    5    2     -8.54      0.00
   -4    5    2     -2.06      0.00
   -3    5    2     -2.35      0.00
   -2    5    2     -0.58      0.00
   -1    5    2      6.16      0.00
    0    5    2      5.88      0.00
    1    5    2      5.09      0.00
    2    5    2      8.70      0.00
    3    5    2      1.79      0.00
    4    5    2      1.43      0.00
    5    5    2      7.13      0.00
    6    5    2      3.61      0.00
    7    5    2     -6.52      0.00
    8    5    2      8.40      0.00
    9    5    2     13.25      0.00
   10    5    2      2.77      0.00
   11    5    2      5.60      0.00
   12    5    2      6.40      0.00
   13    5    2      0.98      0.00
   14    5    2      1.21      0.00
   15    5    2      1.58      0.00
   16    5    2      4.24      0.00
   17    5    2      5.25      0.00
   18    5    2      3.33      0.00
   19    5    2      5.31      0.00
   20    5    2      4.93      0.00
   21    5    2     -2.64      0.00
  -16    6    2      5.72      0.00
  -15    6    2      3.43      0.00
  -14    6    2      4.33      0.00
  -13    6    2      1.68      0.00
  -12    6    2      0.09      0.00
  -11    6    2     -1.28      0.00
  -10    6    2     -2.85      0.00
   -9    6    2     -6.75      0.00
   -8    6    2      0.96      0.00
   -7    6    2      0.21      0.00
   -6    6    2     -2.31      0.00
   -5    6    2      3.82      0.00
   -4    6    2      2.77      0.00
   -3    6    2     -0.70      0.00
   -2    6    2      0.32      0.00
   -1    6    2      6.48      0.00
    0    6    2      6.38      0.00
    1    6    2      5.53      0.00
    2    6    2      2.46      0.00
    3    6    2     -4.96      0.00
    4    6    2      0.22      0.00
    5    6    2      1.90      0.00
    6    6    2     -5.72      0.00
    7    6    2     -0.42      0.00
    8    6    2     -1.92      0.00
    9    6    2     -8.96      0.00
   10    6    2     -2.22      0.00
   11    6    2     -0.96      0.00
   12    6    2     -4.16      0.00
   13    6    2     -3.85      0.00
   14    6    2     -2.21      0.00
   15    6    2      2.57      0.00
   16    6    2      0.97      0.00
   17    6    2     -1.92      0.00
   18    6    2      2.56      0.00
   19    6    2      5.10      0.00
   20    6    2     -0.97      0.00
   21    6    2      1.35      0.00
  -15    7    2      9.41      0.00
  -14    7    2      9.76      0.00
  -13    7    2      7.39      0.00
  -12    7    2      2.69      0.00
  -11    7    2      0.69      0.00
  -10    7    2     -2.34      0.00
   -9    7    2     -1.40      0.00
   -8    7    2     -5.51      0.00
   -7    7    2     -1.28      0.00
   -6    7    2      1.58      0.00
   -5    7    2     -4.89      0.00
   -4    7    2     -6.93      0.00
   -3    7    2     -1.30      0.00
   -2    7    2      2.32      0.00
   -1    7    2     -4.55      0.00
    0    7    2     -6.42      0.00
    1    7    2     -2.45      0.00
    2    7    2     -8.01      0.00
    3    7    2      4.43      0.00
    4    7    2      5.70      0.00
    5    7    2     -4.93      0.00
    6    7    2      3.13      0.00
    7    7    2      8.84      0.00
    8    7    2      4.50      0.00
    9    7    2      9.98      0.00
   10    7    2      7.89      0.00
   11    7    2      2.54      0.00
   12    7    2      1.16      0.00
   13    7    2      3.78      0.00
   14    7    2      5.24      0.00
   15    7    2      1.56      0.00
   16    7    2      1.23      0.00
   17    7    2      4.40      0.00
   18    7    2     -2.28      0.00
   19    7    2     -8.27      0.00
   20    7    2     -2.82      0.00
   21    7    2     -0.97      0.00
  -14    8    2      1.74      0.00
  -13    8    2     -0.12      0.00
  -12    8    2     -1.19      0.00
  -11    8    2     -4.16      0.00
  -10    8    2     -6.37      0.00
   -9    8    2     -4.83      0.00
   -8    8    2      1.66      0.00
   -7    8    2      1.09      0.00
   -6    8    2      0.82      0.00
   -5    8    2      5.08      0.00
   -4    8    2      5.31      0.00
   -3    8    2      4.02      0.00
   -2    8    2      3.36      0.00
   -1    8    2      7.98      0.00
    0    8    2      8.29      0.00
    1    8    2     -4.55      0.00
    2    8    2      0.45      0.00
    3    8    2     -0.76      0.00
    4    8    2     -3.18      0.00
    5    8    2      6.74      0.00
    6    8    2      2.82      0.00
    7    8    2     -6.46      0.00
    8    8    2      0.39      0.00
    9    8    2     -2.16      0.00
   10    8    2     -7.99      0.00
   11    8    2     -5.77      0.00
   12    8    2      1.66      0.00
   13    8    2      1.58      0.00
   14    8    2     -1.89      0.00
   15    8    2     -2.31      0.00
   16    8    2     -1.10      0.00
   17    8    2     -5.29      0.00
   18    8    2      0.77      0.00
   19    8    2      5.27      0.00
   20    8    2      0.21      0.00
   21    8    2     -0.40      0.00
   22    8    2      1.70      0.00
  -13    9    2     -0.67      0.00
  -12    9    2     -1.02      0.00
  -11    9    2     -4.15      0.00
  -10    9    2     -1.47      0.00
   -9    9    2     -0.71      0.00
   -8    9    2      0.13      0.00
   -7    9    2      4.94      0.00
   -6    9    2      3.54      0.00
   -5    9    2     -3.20      0.00
   -4    9    2     -3.19      0.00
   -3    9    2     -3.03      0.00
   -2    9    2     -1.92      0.00
   -1    9    2     -2.40      0.00
    0    9    2     -5.54      0.00
    1    9    2      2.89      0.00
    2    9    2      2.90      0.00
    3    9    2     -0.57      0.00
    4    9    2      4.92      0.00
    5    9    2      3.77      0.00
    6    9    2      1.37      0.00
    7    9    2      6.25      0.00
    8    9    2     -0.81      0.00
    9    9    2     -5.60      0.00
   10    9    2      0.59      0.00
   11    9    2      5.54      0.00
   12    9    2     -0.37      0.00
   13    9    2     -1.42      0.00
   14    9    2      1.72      0.00
   15    9    2     -0.06      0.00
   16    9    2     -6.95      0.00
   17    9    2     -1.50      0.00
   18    9    2     -2.61      0.00
   19    9    2     -7.02      0.00
   20    9    2     -3.68      0.00
   21    9    2     -2.25      0.00
   22    9    2     -1.18      0.00
  -13   10    2      1.29      0.00
  -12   10    2     -1.17      0.00
  -11   10    2      1.29      0.00
  -10   10    2     -3.73      0.00
   -9   10    2     -2.01      0.00
   -8   10    2      1.00      0.00
   -7   10    2     -2.00      0.00
   -6   10    2     -1.18      0.00
   -5   10    2      3.01      0.00
   -4   10    2      1.75      0.00
   -3   10    2      2.67      0.00
   -2   10    2      4.84      0.00
   -1   10    2      5.11      0.00
    0   10    2      7.48      0.00
    1   10    2      3.24      0.00
    2   10    2      0.52      0.00
    3   10    2      6.89      0.00
    4   10    2      4.52      0.00
    5   10    2     -3.22      0.00
    6   10    2     -2.01      0.00
    7   10    2     -4.96      0.00
    8   10    2     -4.84      0.00
    9   10    2      0.48      0.00
   10   10    2      0.43      0.00
   11   10    2     -3.38      0.00
   12   10    2      1.85      0.00
   13   10    2      4.61      0.00
   14   10    2     -1.18      0.00
   15   10    2     -3.91      0.00
   16   10    2      2.55      0.00
   17   10    2     -2.35      0.00
   18   10    2     -6.36      0.00
   19   10    2     -4.57      0.00
   20   10    2     -4.59      0.00
   21   10    2      1.83      0.00
   22   10    2      7.78      0.00
  -12   11    2     -1.57      0.00
  -11   11    2     -7.15      0.00
  -10   11    2     -0.71      0.00
   -9   11    2      0.51      0.00
   -8   11    2     -2.90      0.00
   -7   11    2     -1.36      0.00
   -6   11    2     -2.27      0.00
   -5   11    2     -2.24      0.00
   -4   11    2      1.61      0.00
   -3   11    2      1.58      0.00
   -2   11    2     -1.39      0.00
   -1   11    2      0.40      0.00
    0   11    2      1.64      0.00
    1   11    2      3.14      0.00
    2   11    2      5.82      0.00
    3   11    2      2.66      0.00
    4   11    2     -0.67      0.00
    5   11    2      3.17      0.00
    6   11    2      3.35      0.00
    7   11    2      4.18      0.00
    8   11    2      5.68      0.00
    9   11    2      3.17      0.00
   10   11    2      0.64      0.00
   11   11    2      2.11      0.00
   12   11    2      0.28      0.00
   13   11    2     -3.37      0.00
   14   11    2      0.94      0.00
   15   11    2      5.24      0.00
   16   11    2     -1.01      0.00
   17   11    2     -3.33      0.00
   18   11    2     -3.89      0.00
   19   11    2     -2.75      0.00
   20   11    2      4.83      0.00
   21   11    2      8.91      0.00
  -11   12    2      4.42      0.00
  -10   12    2      0.03      0.00
   -9   12    2     -2.47      0.00
   -8   12    2     -2.55      0.00
   -7   12    2     -8.00      0.00
   -6   12    2     -4.28      0.00
   -5   12    2      1.18      0.00
   -4   12    2     -0.36      0.00
   -3   12    2     -1.49      0.00
   -2   12    2      3.12      0.00
   -1   12    2      2.78      0.00
    0   12    2     -0.75      0.00
    1   12    2     -0.59      0.00
    2   12    2      1.95      0.00
    3   12    2      0.42      0.00
    4   12    2     -0.91      0.00
    5   12    2      0.54      0.00
    6   12    2      0.29      0.00
    7   12    2     -1.04      0.00
    8   12    2     -0.60      0.00
    9   12    2      0.36      0.00
   10   12    2      3.12      0.00
   11   12    2      3.91      0.00
   12   12    2      1.70      0.00
   13   12    2      5.19      0.00
   14   12    2      4.35      0.00
   15   12    2     -3.00      0.00
   16   12    2     -2.31      0.00
   17   12    2      2.90      0.00
   18   12    2      5.61      0.00
   19   12    2      0.32      0.00
   20   12    2     -3.41      0.00
   21   12    2     -4.17      0.00
   -9   13    2     -0.28      0.00
   -8   13    2     -6.90      0.00
   -7   13    2      0.24      0.00
   -6   13    2      2.17      0.00
   -5   13    2     -1.88      0.00
   -4   13    2      0.34      0.00
   -3   13    2      5.95      0.00
   -2   13    2      4.20      0.00
   -1   13    2      2.40      0.00
    0   13    2      4.52      0.00
    1   13    2      6.86      0.00
    2   13    2      2.89      0.00
    3   13    2      3.49      0.00
    4   13    2      8.77      0.00
    5   13    2      3.59      0.00
    6   13    2      0.45      0.00
    7   13    2      2.61      0.00
    8   13    2      0.32      0.00
    9   13    2      2.60      0.00
   10   13    2      4.25      0.00
   11   13    2      1.27      0.00
   12   13    2      3.34      0.00
   13   13    2      2.05      0.00
   14   13    2     -1.57      0.00
   15   13    2      0.17      0.00
   16   13    2     -1.20      0.00
   17   13    2     -8.84      0.00
   18   13    2    -13.99      0.00
   19   13    2     -4.91      0.00
   20   13    2      0.47      0.00
   21   13    2      0.89      0.00
   -8   14    2      4.54      0.00
   -7   14    2      0.52      0.00
   -6   14    2     -1.33      0.00
   -5   14    2      3.14      0.00
   -4   14    2      3.45      0.00
   -3   14    2     -1.12      0.00
   -2   14    2     -2.21      0.00
   -1   14    2     -1.50      0.00
    0   14    2     -0.67      0.00
    1   14    2     -4.94      0.00
    2   14    2     -3.91      0.00
    3   14    2     -2.41      0.00
    4   14    2     -7.34      0.00
    5   14    2     -1.97      0.00
    6   14    2      3.36      0.00
    7   14    2     -4.08      0.00
    8   14    2     -1.68      0.00
    9   14    2     -0.26      0.00
   10   14    2     -4.38      0.00
   11   14    2     -3.04      0.00
   12   14    2     -0.15      0.00
   13   14    2      1.32      0.00
   14   14    2      0.34      0.00
   15   14    2     -4.25      0.00
   16   14    2     -6.42      0.00
   17   14    2     -1.92      0.00
   18   14    2      2.22      0.00
   19   14    2     -0.83      0.00
   20   14    2      2.47      0.00
   21   14    2      9.32      0.00
   -7   15    2      7.36      0.00
   -6   15    2      9.91      0.00
   -5   15    2      6.66      0.00
   -4   15    2      3.90      0.00
   -3   15    2      3.40      0.00
   -2   15    2      5.25      0.00
   -1   15    2      5.61      0.00
    0   15    2     -1.24      0.00
    1   15    2     -1.08      0.00
    2   15    2     -0.72      0.00
    3   15    2     -1.43      0.00
    4   15    2      4.29      0.00
    5   15    2      4.24      0.00
    6   15    2     -4.26      0.00
    7   15    2      4.22      0.00
    8   15    2      6.24      0.00
    9   15    2      2.37      0.00
   10   15    2      4.93      0.00
   11   15    2      5.90      0.00
   12   15    2      2.14      0.00
   13   15    2     -0.27      0.00
   14   15    2      0.22      0.00
   15   15    2     -1.84      0.00
   16   15    2     -4.26      0.00
   17   15    2     -7.43      0.00
   18   15    2     -3.83      0.00
   19   15    2      4.13      0.00
   20   15    2      6.70      0.00
   -6   16    2     -5.62      0.00
   -5   16    2     -6.91      0.00
   -4   16    2     -7.15      0.00
   -3   16    2     -1.42      0.00
   -2   16    2     -0.39      0.00
   -1   16    2     -2.79      0.00
    0   16    2      0.67      0.00
    1   16    2     -2.39      0.00
    2   16    2     -3.56      0.00
    3   16    2      0.81      0.00
   12   16    2      0.42      0.00
   13   16    2      1.20      0.00
   14   16    2     -3.49      0.00
   15   16    2     -2.55      0.00
   16   16    2     -1.08      0.00
   17   16    2      3.15      0.00
   18   16    2      2.54      0.00
   19   16    2     -0.67      0.00
   20   16    2     -3.98      0.00
   -4   17    2      0.18      0.00
   -3   17    2     -4.98      0.00
   -2   17    2     -3.36      0.00
   -1   17    2      1.89      0.00
    0   17    2      1.22      0.00
    1   17    2      4.47      0.00
    2   17    2      4.92      0.00
    3   17    2      3.76      0.00
   13   17    2     -2.86      0.00
   14   17    2     -0.26      0.00
   15   17    2     -0.07      0.00
   16   17    2      5.96      0.00
   17   17    2      8.72      0.00
   18   17    2      6.66      0.00
   19   17    2      2.68      0.00
    0   18    2     -0.35      0.00
    1   18    2     -4.35      0.00
    2   18    2     -1.04      0.00
   15   18    2      0.54      0.00
   -2  -18    3     -8.95      0.00
   -4  -17    3      0.33      0.00
   -3  -17    3     -5.97      0.00
   -2  -17    3     -4.70      0.00
   -1  -17    3      1.15      0.00
    0  -17    3      7.90      0.00
    1  -17    3      0.47      0.00
   -5  -16    3      0.26      0.00
   -4  -16    3     -5.46      0.00
   -3  -16    3     -2.98      0.00
   -2  -16    3     -0.96      0.00
   -1  -16    3      1.04      0.00
    0  -16    3     -0.71      0.00
    1  -16    3      3.07      0.00
    2  -16    3      5.35      0.00
    3  -16    3      1.83      0.00
   -6  -15    3      3.01      0.00
   -5  -15    3      0.65      0.00
   -4  -15    3      3.73      0.00
   -3  -15    3     -0.78      0.00
   -2  -15    3     -2.87      0.00
   -1  -15    3     -3.12      0.00
    0  -15    3     -2.70      0.00
    1  -15    3     -3.39      0.00
    2  -15    3     -3.66      0.00
    3  -15    3      2.39      0.00
    4  -15    3     -0.33      0.00
    5  -15    3      0.22      0.00
  -18  -14    3      2.64      0.00
  -17  -14    3     -2.71      0.00
   -6  -14    3      4.06      0.00
   -5  -14    3      7.64      0.00
   -4  -14    3      0.22      0.00
   -3  -14    3     -1.69      0.00
   -2  -14    3      0.65      0.00
   -1  -14    3      0.70      0.00
    0  -14    3     -1.04      0.00
    1  -14    3     -5.24      0.00
    2  -14    3     -4.76      0.00
    3  -14    3     -6.99      0.00
    4  -14    3     -4.36      0.00
    5  -14    3     -2.89      0.00
    6  -14    3     -2.61      0.00
  -19  -13    3     -4.36      0.00
  -18  -13    3    -12.29      0.00
  -17  -13    3     -8.15      0.00
  -16  -13    3     -1.44      0.00
  -15  -13    3     -1.23      0.00
  -14  -13    3      3.24      0.00
  -13  -13    3      4.41      0.00
  -12  -13    3     -1.35      0.00
  -11  -13    3     -4.77      0.00
  -10  -13    3     -1.24      0.00
   -9  -13    3     -4.08      0.00
   -8  -13    3    -11.85      0.00
   -7  -13    3     -4.94      0.00
   -6  -13    3     -2.62      0.00
   -5  -13    3     -7.66      0.00
   -4  -13    3     -2.59      0.00
   -3  -13    3      2.12      0.00
   -2  -13    3      0.09      0.00
   -1  -13    3      0.60      0.00
    0  -13    3      1.92      0.00
    1  -13    3      3.73      0.00
    2  -13    3      1.82      0.00
    3  -13    3      0.55      0.00
    4  -13    3     -0.86      0.00
    5  -13    3     -2.41      0.00
    6  -13    3     -1.14      0.00
    7  -13    3     -5.23      0.00
    8  -13    3     -3.79      0.00
  -20  -12    3     -0.93      0.00
  -19  -12    3     -5.58      0.00
  -18  -12    3      1.73      0.00
  -17  -12    3      5.23      0.00
  -16  -12    3      3.47      0.00
  -15  -12    3      7.07      0.00
  -14  -12    3      6.63      0.00
  -13  -12    3      4.26      0.00
  -12  -12    3      4.54      0.00
  -11  -12    3      6.67      0.00
  -10  -12    3      3.62      0.00
   -9  -12    3     -0.25      0.00
   -8  -12    3      6.28      0.00
   -7  -12    3      2.01      0.00
   -6  -12    3     -4.43      0.00
   -5  -12    3     -0.96      0.00
   -4  -12    3     -2.53      0.00
   -3  -12    3     -4.80      0.00
   -2  -12    3      0.39      0.00
   -1  -12    3      1.31      0.00
    0  -12    3     -2.33      0.00
    1  -12    3     -1.39      0.00
    2  -12    3      0.55      0.00
    3  -12    3      1.52      0.00
    4  -12    3      2.78      0.00
    5  -12    3      4.21      0.00
    6  -12    3     -2.24      0.00
    7  -12    3     -6.05      0.00
    8  -12    3     -6.50      0.00
    9  -12    3     -3.55      0.00
  -20  -11    3     -0.43      0.00
  -19  -11    3      4.50      0.00
  -18  -11    3     -1.31      0.00
  -17  -11    3     -4.93      0.00
  -16  -11    3     -1.93      0.00
  -15  -11    3     -3.10      0.00
  -14  -11    3     -1.92      0.00
  -13  -11    3      1.43      0.00
  -12  -11    3      3.38      0.00
  -11  -11    3     -2.98      0.00
  -10  -11    3     -8.58      0.00
   -9  -11    3     -2.84      0.00
   -8  -11    3     -3.52      0.00
   -7  -11    3     -2.67      0.00
   -6  -11    3      2.97      0.00
   -5  -11    3      0.63      0.00
   -4  -11    3      1.62      0.00
   -3  -11    3      4.13      0.00
   -2  -11    3     -1.16      0.00
   -1  -11    3     -4.30      0.00
    0  -11    3      1.62      0.00
    1  -11    3     -1.07      0.00
    2  -11    3     -5.95      0.00
    3  -11    3     -2.75      0.00
    4  -11    3      2.20      0.00
    5  -11    3      0.79      0.00
    6  -11    3      0.23      0.00
    7  -11    3      2.42      0.00
    8  -11    3      4.14      0.00
    9  -11    3      2.13      0.00
   10  -11    3     -3.26      0.00
   11  -11    3     -7.22      0.00
  -20  -10    3     -1.38      0.00
  -19  -10    3     -3.42      0.00
  -18  -10    3      1.58      0.00
  -17  -10    3      4.84      0.00
  -16  -10    3     -0.76      0.00
  -15  -10    3     -3.32      0.00
  -14  -10    3     -3.37      0.00
  -13  -10    3      0.80      0.00
  -12  -10    3     -0.38      0.00
  -11  -10    3     -1.63      0.00
  -10  -10    3     -0.47      0.00
   -9  -10    3     -6.52      0.00
   -8  -10    3     -8.53      0.00
   -7  -10    3     -3.82      0.00
   -6  -10    3     -4.72      0.00
   -5  -10    3     -2.94      0.00
   -4  -10    3     -2.75      0.00
   -3  -10    3     -5.12      0.00
   -2  -10    3     -3.59      0.00
   -1  -10    3      0.15      0.00
    0  -10    3     -3.10      0.00
    1  -10    3     -2.27      0.00
    2  -10    3      3.01      0.00
    3  -10    3      0.47      0.00
    4  -10    3     -3.57      0.00
    5  -10    3     -1.41      0.00
    6  -10    3      0.89      0.00
    7  -10    3     -2.56      0.00
    8  -10    3     -4.92      0.00
    9  -10    3     -1.45      0.00
   10  -10    3      2.99      0.00
   11  -10    3      6.12      0.00
   12  -10    3      0.73      0.00
  -20   -9    3      0.87      0.00
  -19   -9    3     -1.07      0.00
  -17   -9    3     -1.66      0.00
  -16   -9    3      1.55      0.00
  -15   -9    3      1.65      0.00
  -14   -9    3      4.00      0.00
  -13   -9    3     -0.80      0.00
  -12   -9    3     -2.21      0.00
  -11   -9    3      1.03      0.00
  -10   -9    3      0.52      0.00
   -9   -9    3      0.76      0.00
   -8   -9    3      3.22      0.00
   -7   -9    3     -3.31      0.00
   -6   -9    3     -5.97      0.00
   -5   -9    3     -2.79      0.00
   -4   -9    3      0.23      0.00
   -3   -9    3     -1.56      0.00
   -2   -9    3     -3.62      0.00
   -1   -9    3     -1.66      0.00
    0   -9    3      1.58      0.00
    1   -9    3      1.61      0.00
    2   -9    3     -3.94      0.00
    3   -9    3     -3.55      0.00
    4   -9    3      1.63      0.00
    5   -9    3     -0.87      0.00
    6   -9    3     -5.59      0.00
    7   -9    3     -2.19      0.00
    8   -9    3      3.71      0.00
    9   -9    3      3.37      0.00
   10   -9    3      2.00      0.00
   11   -9    3     -1.44      0.00
   12   -9    3     -0.86      0.00
   13   -9    3      0.87      0.00
  -20   -8    3    -11.38      0.00
  -19   -8    3     -4.56      0.00
  -18   -8    3     -1.81      0.00
  -17   -8    3      4.36      0.00
  -16   -8    3      3.35      0.00
  -15   -8    3      1.13      0.00
  -14   -8    3     -6.10      0.00
  -13   -8    3     -2.75      0.00
  -12   -8    3      3.56      0.00
  -11   -8    3     -0.61      0.00
  -10   -8    3     -4.00      0.00
   -9   -8    3      0.53      0.00
   -8   -8    3     -0.97      0.00
   -7   -8    3      0.64      0.00
   -6   -8    3      2.41      0.00
   -5   -8    3     -0.83      0.00
   -4   -8    3     -6.17      0.00
   -3   -8    3     -3.10      0.00
   -2   -8    3      0.56      0.00
   -1   -8    3     -4.80      0.00
    0   -8    3     -4.58      0.00
    1   -8    3     -1.18      0.00
    2   -8    3     -1.03      0.00
    3   -8    3      1.27      0.00
    4   -8    3     -1.64      0.00
    5   -8    3      0.46      0.00
    6   -8    3      4.28      0.00
    7   -8    3      1.84      0.00
    8   -8    3     -5.08      0.00
    9   -8    3     -5.96      0.00
   10   -8    3     -2.94      0.00
   11   -8    3      1.82      0.00
   12   -8    3      1.37      0.00
   13   -8    3      2.03      0.00
   14   -8    3      5.78      0.00
  -20   -7    3      2.61      0.00
  -19   -7    3     -1.48      0.00
  -18   -7    3      3.78      0.00
  -17   -7    3      3.58      0.00
  -16   -7    3      3.89      0.00
  -15   -7    3      2.06      0.00
  -14   -7    3      4.02      0.00
  -13   -7    3      2.25      0.00
  -12   -7    3     -5.38      0.00
  -11   -7    3     -1.53      0.00
  -10   -7    3      4.52      0.00
   -9   -7    3     -0.60      0.00
   -8   -7    3      1.17      0.00
   -7   -7    3      5.51      0.00
   -6   -7    3      5.70      0.00
   -5   -7    3      0.12      0.00
   -4   -7    3      1.41      0.00
   -3   -7    3     -2.91      0.00
   -2   -7    3     -9.94      0.00
   -1   -7    3     -1.51      0.00
    0   -7    3     -0.06      0.00
    1   -7    3    -10.05      0.00
    2   -7    3     -2.82      0.00
    3   -7    3     -1.68      0.00
    4   -7    3     -1.54      0.00
    5   -7    3     -2.98      0.00
    6   -7    3     -4.54      0.00
    7   -7    3     -4.97      0.00
    8   -7    3     -1.19      0.00
    9   -7    3      3.65      0.00
   10   -7    3      3.42      0.00
   11   -7    3     -2.77      0.00
   12   -7    3     -2.11      0.00
   13   -7    3     -0.24      0.00
   14   -7    3     -3.07      0.00
   15   -7    3     -3.56      0.00
  -20   -6    3      1.65      0.00
  -19   -6    3      1.94      0.00
  -18   -6    3     -2.47      0.00
  -17   -6    3     -1.64      0.00
  -16   -6    3     -0.18      0.00
  -15   -6    3      0.73      0.00
  -14   -6    3      2.51      0.00
  -13   -6    3      1.90      0.00
  -12   -6    3      6.43      0.00
  -11   -6    3      0.37      0.00
  -10   -6    3     -6.99      0.00
   -9   -6    3     -0.17      0.00
   -8   -6    3      2.56      0.00
   -7   -6    3     -3.66      0.00
   -6   -6    3    -10.97      0.00
   -5   -6    3     -1.26      0.00
   -4   -6    3     -0.79      0.00
   -3   -6    3     -4.88      0.00
   -2   -6    3      1.62      0.00
   -1   -6    3     -5.30      0.00
    0   -6    3     -9.37      0.00
    1   -6    3      9.25      0.00
    2   -6    3      4.65      0.00
    3   -6    3     -0.84      0.00
    4   -6    3      3.60      0.00
    5   -6    3      5.80      0.00
    6   -6    3      3.35      0.00
    7   -6    3      1.69      0.00
    8   -6    3      2.43      0.00
    9   -6    3     -1.35      0.00
   10   -6    3     -3.41      0.00
   11   -6    3      1.95      0.00
   12   -6    3      1.98      0.00
   13   -6    3     -0.94      0.00
   14   -6    3     -0.65      0.00
   15   -6    3     -0.51      0.00
  -20   -5    3      7.48      0.00
  -19   -5    3      6.65      0.00
  -18   -5    3      5.34      0.00
  -17   -5    3      2.92      0.00
  -16   -5    3      1.16      0.00
  -15   -5    3      3.57      0.00
  -14   -5    3      2.50      0.00
  -13   -5    3      4.81      0.00
  -12   -5    3      0.52      0.00
  -11   -5    3      1.65      0.00
  -10   -5    3      5.52      0.00
   -9   -5    3      2.86      0.00
   -8   -5    3      1.90      0.00
   -7   -5    3      3.42      0.00
   -6   -5    3      9.13      0.00
   -5   -5    3     -2.47      0.00
   -4   -5    3     -8.83      0.00
   -3   -5    3      1.18      0.00
   -2   -5    3     -6.34      0.00
   -1   -5    3     -5.24      0.00
    0   -5    3      6.52      0.00
    1   -5    3     -5.80      0.00
    2   -5    3     -6.78      0.00
    3   -5    3      3.89      0.00
    4   -5    3     -0.91      0.00
    5   -5    3     -5.23      0.00
    6   -5    3     -3.77      0.00
    7   -5    3     -0.45      0.00
    8   -5    3     -3.16      0.00
    9   -5    3      0.28      0.00
   10   -5    3      6.06      0.00
   11   -5    3      3.50      0.00
   12   -5    3      1.96      0.00
   13   -5    3      4.34      0.00
   14   -5    3      1.56      0.00
   15   -5    3     -6.10      0.00
   16   -5    3     -5.15      0.00
  -20   -4    3     -4.93      0.00
  -19   -4    3     -1.82      0.00
  -18   -4    3      2.09      0.00
  -17   -4    3      4.27      0.00
  -16   -4    3      4.06      0.00
  -15   -4    3      0.27      0.00
  -14   -4    3     -0.94      0.00
  -13   -4    3     -2.48      0.00
  -12   -4    3     -0.15      0.00
  -11   -4    3     -1.78      0.00
  -10   -4    3     -4.89      0.00
   -9   -4    3     -4.21      0.00
   -8   -4    3     -5.16      0.00
   -7   -4    3     -2.42      0.00
   -6   -4    3     -4.63      0.00
   -5   -4    3      1.51      0.00
   -4   -4    3     14.25      0.00
   -3   -4    3      2.05      0.00
   -2   -4    3      5.02      0.00
   -1   -4    3     12.93      0.00
    0   -4    3      1.30      0.00
    1   -4    3     -0.30      0.00
    2   -4    3      3.20      0.00
    3   -4    3     -5.76      0.00
    4   -4    3     -3.11      0.00
    5   -4    3      1.95      0.00
    6   -4    3      2.35      0.00
    7   -4    3     -2.11      0.00
    8   -4    3      2.67      0.00
    9   -4    3      4.54      0.00
   10   -4    3     -0.89      0.00
   11   -4    3     -1.49      0.00
   12   -4    3     -0.18      0.00
   13   -4    3     -8.21      0.00
   14   -4    3    -12.28      0.00
   15   -4    3     -1.03      0.00
   16   -4    3      3.85      0.00
   17   -4    3      5.07      0.00
  -20   -3    3      2.57      0.00
  -19   -3    3     -0.48      0.00
  -18   -3    3      0.79      0.00
  -17   -3    3      0.64      0.00
  -16   -3    3     -0.35      0.00
  -15   -3    3     -3.07      0.00
  -14   -3    3      0.09      0.00
  -13   -3    3      2.84      0.00
  -12   -3    3      0.30      0.00
  -11   -3    3     -2.41      0.00
  -10   -3    3     -1.73      0.00
   -9   -3    3     -1.73      0.00
   -8   -3    3      3.04      0.00
   -7   -3    3     -1.09      0.00
   -6   -3    3     -1.58      0.00
   -5   -3    3      7.12      0.00
   -4   -3    3     -1.84      0.00
   -3   -3    3      2.45      0.00
   -2   -3    3      2.12      0.00
   -1   -3    3    -12.87      0.00
    0   -3    3     -6.53      0.00
    1   -3    3     -0.12      0.00
    2   -3    3     -2.47      0.00
    3   -3    3     -4.78      0.00
    4   -3    3     -6.38      0.00
    5   -3    3     -8.05      0.00
    6   -3    3     -8.15      0.00
    7   -3    3      0.36      0.00
    8   -3    3      2.43      0.00
    9   -3    3     -0.74      0.00
   10   -3    3      0.76      0.00
   11   -3    3     -0.44      0.00
   12   -3    3     -6.75      0.00
   13   -3    3     -1.72      0.00
   14   -3    3      5.04      0.00
   15   -3    3     -2.40      0.00
   16   -3    3     -3.21      0.00
   17   -3    3     -3.65      0.00
  -20   -2    3     -0.58      0.00
  -19   -2    3      4.45      0.00
  -18   -2    3      0.65      0.00
  -17   -2    3     -1.50      0.00
  -16   -2    3     -2.94      0.00
  -15   -2    3      5.26      0.00
  -14   -2    3      7.25      0.00
  -13   -2    3      5.27      0.00
  -12   -2    3      2.00      0.00
  -11   -2    3     -1.45      0.00
  -10   -2    3     -5.72      0.00
   -9   -2    3     -1.03      0.00
   -8   -2    3     -4.75      0.00
   -7   -2    3      0.14      0.00
   -6   -2    3     10.78      0.00
   -5   -2    3      2.01      0.00
   -4   -2    3      0.09      0.00
   -3   -2    3      2.31      0.00
   -2   -2    3      0.30      0.00
   -1   -2    3     12.69      0.00
    0   -2    3     -0.72      0.00
    1   -2    3     -1.98      0.00
    2   -2    3    -10.22      0.00
    3   -2    3     -3.20      0.00
    4   -2    3      2.84      0.00
    5   -2    3      0.70      0.00
    6   -2    3      4.32      0.00
    7   -2    3      4.06      0.00
    8   -2    3      3.40      0.00
    9   -2    3      7.04      0.00
   10   -2    3      2.50      0.00
   11   -2    3     -2.11      0.00
   12   -2    3      2.44      0.00
   13   -2    3      0.15      0.00
   14   -2    3     -7.04      0.00
   15   -2    3     -1.66      0.00
   16   -2    3      1.06      0.00
   17   -2    3      2.24      0.00
   18   -2    3      4.64      0.00
  -19   -1    3     -5.56      0.00
  -18   -1    3     -2.21      0.00
  -17   -1    3     -4.20      0.00
  -16   -1    3     -5.19      0.00
  -15   -1    3     -7.41      0.00
  -14   -1    3     -3.42      0.00
  -13   -1    3      2.80      0.00
  -12   -1    3      2.81      0.00
  -11   -1    3     -0.87      0.00
  -10   -1    3      3.79      0.00
   -9   -1    3      0.86      0.00
   -8   -1    3     10.29      0.00
   -7   -1    3     14.79      0.00
   -6   -1    3      2.52      0.00
   -5   -1    3      5.07      0.00
   -4   -1    3     19.89      0.00
   -3   -1    3     10.30      0.00
   -2   -1    3     -6.42      0.00
   -1   -1    3    -29.88      0.00
    0   -1    3     -7.36      0.00
    1   -1    3    -26.60      0.00
    2   -1    3    -11.34      0.00
    3   -1    3      3.03      0.00
    4   -1    3     -4.37      0.00
    5   -1    3      3.52      0.00
    6   -1    3      1.73      0.00
    7   -1    3      0.16      0.00
    8   -1    3      7.89      0.00
    9   -1    3      6.82      0.00
   10   -1    3      4.73      0.00
   11   -1    3      2.88      0.00
   12   -1    3     -0.83      0.00
   13   -1    3     -0.65      0.00
   14   -1    3      3.85      0.00
   15   -1    3      0.43      0.00
   16   -1    3     -4.46      0.00
   17   -1    3     -4.54      0.00
   18   -1    3     -3.28      0.00
   19   -1    3      1.89      0.00
  -19    0    3      6.91      0.00
  -18    0    3     -0.33      0.00
  -17    0    3     -2.82      0.00
  -16    0    3      0.55      0.00
  -15    0    3      1.34      0.00
  -14    0    3      2.43      0.00
  -13    0    3     -1.24      0.00
  -12    0    3     -1.42      0.00
  -11    0    3      3.58      0.00
  -10    0    3     -0.83      0.00
   -9    0    3      4.28      0.00
   -8    0    3      2.60      0.00
   -7    0    3     -1.17      0.00
   -6    0    3     10.05      0.00
   -5    0    3     13.53      0.00
   -4    0    3     -7.71      0.00
   -3    0    3     -4.12      0.00
   -2    0    3     17.73      0.00
   -1    0    3     41.16      0.00
    0    0    3      6.62      0.00
    1    0    3     53.13      0.00
    2    0    3     55.77      0.00
    3    0    3      7.94      0.00
    4    0    3     17.31      0.00
    5    0    3      9.82      0.00
    6    0    3      5.71      0.00
    7    0    3     12.25      0.00
    8    0    3      8.73      0.00
    9    0    3      3.93      0.00
   10    0    3     -1.04      0.00
   11    0    3      1.17      0.00
   12    0    3      5.07      0.00
   13    0    3      4.90      0.00
   14    0    3     -1.19      0.00
   15    0    3     -5.24      0.00
   16    0    3     -0.72      0.00
   17    0    3      4.82      0.00
   18    0    3      1.51      0.00
   19    0    3      0.95      0.00
  -18    1    3     -2.29      0.00
  -17    1    3      0.47      0.00
  -16    1    3     -5.16      0.00
  -15    1    3     -2.47      0.00
  -14    1    3     -2.60      0.00
  -13    1    3     -0.14      0.00
  -12    1    3      1.60      0.00
  -11    1    3     -3.76      0.00
  -10    1    3     -1.72      0.00
   -9    1    3     -2.45      0.00
   -8    1    3     -0.86      0.00
   -7    1    3      4.47      0.00
   -6    1    3      0.15      0.00
   -5    1    3     -0.93      0.00
   -4    1    3      8.63      0.00
   -3    1    3     -1.40      0.00
   -2    1    3    -14.05      0.00
   -1    1    3      7.87      0.00
    0    1    3    106.41      0.00
    1    1    3     84.24      0.00
    2    1    3     34.80      0.00
    3    1    3     65.56      0.00
    4    1    3     22.72      0.00
    5    1    3     -1.05      0.00
    6    1    3      0.13      0.00
    7    1    3     -4.25      0.00
    8    1    3     -6.37      0.00
    9    1    3     -5.73      0.00
   10    1    3     -1.36      0.00
   11    1    3     -2.00      0.00
   12    1    3     -2.41      0.00
   13    1    3     -2.32      0.00
   14    1    3     -4.24      0.00
   15    1    3     -1.00      0.00
   16    1    3      0.33      0.00
   17    1    3     -5.26      0.00
   18    1    3      3.67      0.00
   19    1    3     -0.25      0.00
   20    1    3      1.99      0.00
  -18    2    3     -2.37      0.00
  -17    2    3     -1.01      0.00
  -16    2    3      6.42      0.00
  -15    2    3      3.59      0.00
  -14    2    3      0.95      0.00
  -13    2    3      3.26      0.00
  -12    2    3      4.71      0.00
  -11    2    3      8.74      0.00
  -10    2    3      8.42      0.00
   -9    2    3      7.36      0.00
   -8    2    3      3.90      0.00
   -7    2    3     -3.94      0.00
   -6    2    3     -3.54      0.00
   -5    2    3     -6.39      0.00
   -4    2    3     -9.83      0.00
   -3    2    3     -4.65      0.00
   -2    2    3     17.27      0.00
   -1    2    3     50.42      0.00
    0    2    3     25.30      0.00
    1    2    3     44.29      0.00
    2    2    3     74.88      0.00
    3    2    3      1.52      0.00
    4    2    3      9.97      0.00
    5    2    3     32.85      0.00
    6    2    3     19.46      0.00
    7    2    3      6.67      0.00
    8    2    3      6.29      0.00
    9    2    3      5.67      0.00
   10    2    3     -2.86      0.00
   11    2    3     -3.71      0.00
   12    2    3     -0.32      0.00
   13    2    3     -1.07      0.00
   14    2    3      5.13      0.00
   15    2    3      5.57      0.00
   16    2    3     -1.96      0.00
   17    2    3      0.31      0.00
   18    2    3     -9.81      0.00
   19    2    3     -2.63      0.00
   20    2    3      2.87      0.00
  -17    3    3      3.50      0.00
  -16    3    3      1.35      0.00
  -15    3    3     -0.31      0.00
  -14    3    3      5.32      0.00
  -13    3    3      7.40      0.00
  -12    3    3      6.80      0.00
  -11    3    3      4.22      0.00
  -10    3    3      6.79      0.00
   -9    3    3      8.18      0.00
   -8    3    3      5.43      0.00
   -7    3    3      2.32      0.00
   -6    3    3      0.71      0.00
   -5    3    3     10.41      0.00
   -4    3    3      5.10      0.00
   -3    3    3     -5.78      0.00
   -2    3    3      1.29      0.00
   -1    3    3     -4.59      0.00
    0    3    3     -4.13      0.00
    1    3    3    -22.67      0.00
    2    3    3    -48.05      0.00
    3    3    3     25.60      0.00
    4    3    3     46.85      0.00
    5    3    3     11.82      0.00
    6    3    3      1.49      0.00
    7    3    3     12.48      0.00
    8    3    3     12.73      0.00
    9    3    3      3.12      0.00
   10    3    3      7.48      0.00
   11    3    3     10.39      0.00
   12    3    3      2.86      0.00
   13    3    3      2.95      0.00
   14    3    3     -0.92      0.00
   15    3    3     -4.44      0.00
   16    3    3     -0.31      0.00
   17    3    3     -3.10      0.00
   18    3    3      5.18      0.00
   19    3    3      1.99      0.00
   20    3    3     -7.84      0.00
  -17    4    3      6.88      0.00
  -16    4    3      2.24      0.00
  -15    4    3      5.29      0.00
  -14    4    3      4.54      0.00
  -13    4    3      2.15      0.00
  -12    4    3     -0.54      0.00
  -11    4    3     -1.69      0.00
  -10    4    3     -4.07      0.00
   -9    4    3     -0.66      0.00
   -8    4    3     -0.11      0.00
   -7    4    3     -2.25      0.00
   -6    4    3      2.04      0.00
   -5    4    3      1.07      0.00
   -4    4    3      7.50      0.00
   -3    4    3     21.08      0.00
   -2    4    3      9.20      0.00
   -1    4    3      2.11      0.00
    0    4    3      1.04      0.00
    1    4    3      5.78      0.00
    2    4    3     28.45      0.00
    3    4    3      3.21      0.00
    4    4    3    -23.00      0.00
    5    4    3     -5.47      0.00
    6    4    3      7.86      0.00
    7    4    3     -2.60      0.00
    8    4    3     -9.41      0.00
    9    4    3      4.98      0.00
   10    4    3      6.06      0.00
   11    4    3     -1.20      0.00
   12    4    3      2.26      0.00
   13    4    3      0.33      0.00
   14    4    3      0.50      0.00
   15    4    3      4.89      0.00
   16    4    3      5.41      0.00
   17    4    3      8.77      0.00
   18    4    3      2.16      0.00
   19    4    3     -3.46      0.00
   20    4    3      4.77      0.00
   21    4    3      4.42      0.00
  -16    5    3     -2.17      0.00
  -15    5    3     -3.52      0.00
  -14    5    3     -2.99      0.00
  -13    5    3      1.13      0.00
  -12    5    3      0.35      0.00
  -11    5    3     -4.15      0.00
  -10    5    3     -3.06      0.00
   -9    5    3     -6.90      0.00
   -8    5    3     -9.49      0.00
   -7    5    3     -2.93      0.00
   -6    5    3     -0.55      0.00
   -5    5    3      2.58      0.00
   -4    5    3      7.98      0.00
   -3    5    3      3.51      0.00
   -2    5    3     12.06      0.00
   -1    5    3     14.10      0.00
    0    5    3      9.95      0.00
    1    5    3      4.68      0.00
    2    5    3     -5.94      0.00
    3    5    3     -9.46      0.00
    4    5    3      2.71      0.00
    5    5    3     -2.02      0.00
    6    5    3    -11.92      0.00
    7    5    3     -6.10      0.00
    8    5    3      5.40      0.00
    9    5    3     -5.62      0.00
   10    5    3     -8.52      0.00
   11    5    3      0.08      0.00
   12    5    3     -0.87      0.00
   13    5    3      0.23      0.00
   14    5    3      1.56      0.00
   15    5    3     -1.98      0.00
   16    5    3     -2.18      0.00
   17    5    3     -4.71      0.00
   18    5    3     -5.90      0.00
   19    5    3     -4.10      0.00
   20    5    3     -9.16      0.00
   21    5    3     -6.93      0.00
  -16    6    3     -7.97      0.00
  -15    6    3     -9.69      0.00
  -14    6    3     -1.91      0.00
  -13    6    3      1.38      0.00
  -12    6    3      0.57      0.00
  -11    6    3     -1.51      0.00
  -10    6    3     -4.81      0.00
   -9    6    3     -1.85      0.00
   -8    6    3      3.97      0.00
   -7    6    3     -2.25      0.00
   -6    6    3     -1.85      0.00
   -5    6    3      3.02      0.00
   -4    6    3     -1.91      0.00
   -3    6    3     -2.55      0.00
   -2    6    3     -4.93      0.00
   -1    6    3     -5.10      0.00
    0    6    3    -12.14      0.00
    1    6    3    -12.75      0.00
    2    6    3    -11.09      0.00
    3    6    3     -5.59      0.00
    4    6    3     -4.93      0.00
    5    6    3     -5.13      0.00
    6    6    3      1.31      0.00
    7    6    3      6.42      0.00
    8    6    3     -2.23      0.00
    9    6    3      2.08      0.00
   10    6    3      7.79      0.00
   11    6    3      3.66      0.00
   12    6    3      3.91      0.00
   13    6    3      3.60      0.00
   14    6    3      0.02      0.00
   15    6    3     -0.94      0.00
   16    6    3     -4.17      0.00
   17    6    3     -2.22      0.00
   18    6    3      2.84      0.00
   19    6    3      3.66      0.00
   20    6    3      8.88      0.00
  -15    7    3      0.99      0.00
  -14    7    3     -4.02      0.00
  -13    7    3     -4.33      0.00
  -12    7    3     -1.78      0.00
  -11    7    3      1.07      0.00
  -10    7    3      2.20      0.00
   -9    7    3      1.88      0.00
   -8    7    3     -2.48      0.00
   -7    7    3      4.04      0.00
   -6    7    3      5.28      0.00
   -5    7    3      2.33      0.00
   -4    7    3      4.77      0.00
   -3    7    3      2.89      0.00
   -2    7    3     -4.07      0.00
   -1    7    3    -12.43      0.00
    0    7    3     -5.64      0.00
    1    7    3     -1.53      0.00
    2    7    3     -0.55      0.00
    3    7    3      2.67      0.00
    4    7    3     -4.20      0.00
    5    7    3     -1.73      0.00
    6    7    3      5.41      0.00
    7    7    3     -1.09      0.00
    8    7    3      1.06      0.00
    9    7    3      5.04      0.00
   10    7    3      1.70      0.00
   11    7    3      2.12      0.00
   12    7    3      2.39      0.00
   13    7    3     -0.01      0.00
   14    7    3     -2.28      0.00
   15    7    3     -2.43      0.00
   16    7    3      5.06      0.00
   17    7    3      6.41      0.00
   18    7    3     -1.36      0.00
   19    7    3     -0.29      0.00
   20    7    3      1.41      0.00
   21    7    3     -4.82      0.00
  -14    8    3      0.05      0.00
  -13    8    3     -0.04      0.00
  -12    8    3     -2.46      0.00
  -11    8    3     -3.79      0.00
  -10    8    3     -1.70      0.00
   -9    8    3     -1.29      0.00
   -8    8    3     -0.21      0.00
   -7    8    3     -1.92      0.00
   -6    8    3      3.22      0.00
   -5    8    3      4.05      0.00
   -4    8    3     -2.59      0.00
   -3    8    3     -3.30      0.00
   -2    8    3      1.60      0.00
   -1    8    3      7.61      0.00
    0    8    3      3.55      0.00
    1    8    3      2.13      0.00
    2    8    3      6.82      0.00
    3    8    3     -3.53      0.00
    4    8    3     -2.72      0.00
    5    8    3      0.09      0.00
    6    8    3     -7.76      0.00
    7    8    3     -4.07      0.00
    8    8    3     -1.10      0.00
    9    8    3     -7.25      0.00
   10    8    3     -4.26      0.00
   11    8    3      0.31      0.00
   12    8    3     -2.19      0.00
   13    8    3     -6.43      0.00
   14    8    3     -3.06      0.00
   15    8    3      5.50      0.00
   16    8    3      5.21      0.00
   17    8    3     -0.29      0.00
   18    8    3      3.05      0.00
   19    8    3     -1.55      0.00
   20    8    3     -7.78      0.00
   21    8    3     -3.93      0.00
   22    8    3     -3.85      0.00
  -14    9    3     -0.40      0.00
  -13    9    3      1.87      0.00
  -12    9    3      5.78      0.00
  -11    9    3      7.08      0.00
  -10    9    3      5.94      0.00
   -9    9    3      2.52      0.00
   -8    9    3      3.30      0.00
   -7    9    3      4.09      0.00
   -6    9    3     -3.52      0.00
   -5    9    3     -5.78      0.00
   -4    9    3      0.66      0.00
   -3    9    3     -0.41      0.00
   -2    9    3     -5.29      0.00
   -1    9    3     -7.37      0.00
    0    9    3      1.27      0.00
    1    9    3      9.70      0.00
    2    9    3      0.64      0.00
    3    9    3      0.15      0.00
    4    9    3      3.78      0.00
    5    9    3      0.87      0.00
    6    9    3      1.52      0.00
    7    9    3     -2.37      0.00
    8    9    3     -8.58      0.00
    9    9    3     -0.05      0.00
   10    9    3      6.03      0.00
   11    9    3      1.62      0.00
   12    9    3     -2.61      0.00
   13    9    3      0.58      0.00
   14    9    3      1.95      0.00
   15    9    3     -1.40      0.00
   16    9    3     -0.58      0.00
   17    9    3      6.94      0.00
   18    9    3      2.44      0.00
   19    9    3      1.91      0.00
   20    9    3      4.47      0.00
   21    9    3     -0.38      0.00
   22    9    3      1.71      0.00
  -13   10    3     -5.70      0.00
  -12   10    3     -3.40      0.00
  -11   10    3      3.14      0.00
  -10   10    3      3.49      0.00
   -9   10    3      6.86      0.00
   -8   10    3      4.19      0.00
   -7   10    3      1.89      0.00
   -6   10    3      5.07      0.00
   -5   10    3      4.69      0.00
   -4   10    3     -1.84      0.00
   -3   10    3     -1.14      0.00
   -2   10    3      0.92      0.00
   -1   10    3      1.75      0.00
    0   10    3     -1.44      0.00
    1   10    3     -8.31      0.00
    2   10    3     -3.10      0.00
    3   10    3      1.79      0.00
    4   10    3     -5.33      0.00
    5   10    3     -7.70      0.00
    6   10    3     -4.71      0.00
    7   10    3     -3.35      0.00
    8   10    3      4.23      0.00
    9   10    3      3.29      0.00
   10   10    3     -3.74      0.00
   11   10    3     -3.82      0.00
   12   10    3      0.56      0.00
   13   10    3     -1.88      0.00
   14   10    3     -3.19      0.00
   15   10    3      2.64      0.00
   16   10    3      4.41      0.00
   17   10    3     -4.05      0.00
   18   10    3     -0.89      0.00
   19   10    3      2.83      0.00
   20   10    3     -0.85      0.00
   21   10    3      0.55      0.00
   22   10    3     -3.35      0.00
  -12   11    3      2.58      0.00
  -11   11    3     -3.25      0.00
  -10   11    3     -2.35      0.00
   -9   11    3     -5.49      0.00
   -8   11    3      0.36      0.00
   -7   11    3      4.63      0.00
   -6   11    3      0.22      0.00
   -5   11    3     -3.56      0.00
   -4   11    3     -0.28      0.00
   -3   11    3      0.07      0.00
   -2   11    3      0.10      0.00
   -1   11    3      0.98      0.00
    0   11    3      0.05      0.00
    1   11    3      1.02      0.00
    2   11    3     -1.94      0.00
    3   11    3     -7.32      0.00
    4   11    3     -4.34      0.00
    5   11    3     -1.73      0.00
    6   11    3     -5.77      0.00
    7   11    3     -4.00      0.00
    8   11    3     -4.98      0.00
    9   11    3     -5.46      0.00
   10   11    3     -1.90      0.00
   11   11    3      0.02      0.00
   12   11    3     -2.21      0.00
   13   11    3     -0.26      0.00
   14   11    3      4.47      0.00
   15   11    3      0.88      0.00
   16   11    3     -1.93      0.00
   17   11    3      5.17      0.00
   18   11    3      7.48      0.00
   19   11    3      6.11      0.00
   20   11    3      6.79      0.00
   21   11    3      1.09      0.00
   22   11    3      0.67      0.00
  -11   12    3     -3.76      0.00
  -10   12    3     -4.70      0.00
   -9   12    3      5.85      0.00
   -8   12    3      5.35      0.00
   -7   12    3     -1.80      0.00
   -6   12    3     -2.19      0.00
   -5   12    3      0.06      0.00
   -4   12    3     -1.41      0.00
   -3   12    3     -0.99      0.00
   -2   12    3     -0.58      0.00
   -1   12    3     -3.45      0.00
    0   12    3     -3.77      0.00
    1   12    3     -2.77      0.00
    2   12    3     -1.99      0.00
    3   12    3     -0.74      0.00
    4   12    3      1.25      0.00
    5   12    3      1.92      0.00
    6   12    3      3.09      0.00
    7   12    3      3.75      0.00
    8   12    3      3.15      0.00
    9   12    3     -1.69      0.00
   10   12    3     -4.65      0.00
   11   12    3     -4.16      0.00
   12   12    3     -1.70      0.00
   13   12    3      0.82      0.00
   14   12    3     -3.34      0.00
   15   12    3     -3.25      0.00
   16   12    3     -0.61      0.00
   17   12    3     -0.59      0.00
   18   12    3      0.65      0.00
   19   12    3      0.91      0.00
   20   12    3     -0.31      0.00
   21   12    3      1.76      0.00
  -10   13    3      0.78      0.00
   -9   13    3     -9.22      0.00
   -8   13    3     -9.94      0.00
   -7   13    3     -1.60      0.00
   -6   13    3     -0.69      0.00
   -5   13    3     -1.41      0.00
   -4   13    3      2.30      0.00
   -3   13    3      1.59      0.00
   -2   13    3     -2.44      0.00
   -1   13    3     -2.11      0.00
    0   13    3     -2.14      0.00
    1   13    3     -4.65      0.00
    2   13    3     -5.47      0.00
    3   13    3      0.04      0.00
    4   13    3     -0.56      0.00
    5   13    3     -5.89      0.00
    6   13    3     -0.68      0.00
    7   13    3      1.24      0.00
    8   13    3     -4.67      0.00
    9   13    3     -3.46      0.00
   10   13    3     -0.80      0.00
   11   13    3     -0.54      0.00
   12   13    3     -0.54      0.00
   13   13    3     -5.06      0.00
   14   13    3     -2.47      0.00
   15   13    3     -0.04      0.00
   16   13    3     -2.25      0.00
   17   13    3     -3.85      0.00
   18   13    3     -2.37      0.00
   19   13    3     -0.49      0.00
   20   13    3     -5.30      0.00
   21   13    3     -6.18      0.00
   -8   14    3      2.76      0.00
   -7   14    3     -5.13      0.00
   -6   14    3     -3.33      0.00
   -5   14    3     -1.30      0.00
   -4   14    3     -7.32      0.00
   -3   14    3     -8.34      0.00
   -2   14    3     -2.44      0.00
   -1   14    3      0.30      0.00
    0   14    3     -0.71      0.00
    1   14    3     -2.21      0.00
    2   14    3      1.06      0.00
    3   14    3     -2.93      0.00
    4   14    3     -5.80      0.00
    5   14    3      3.47      0.00
    6   14    3      1.69      0.00
    7   14    3     -4.28      0.00
    8   14    3      1.37      0.00
    9   14    3      2.53      0.00
   10   14    3      1.28      0.00
   11   14    3      1.76      0.00
   12   14    3     -1.57      0.00
   13   14    3     -1.52      0.00
   14   14    3     -2.59      0.00
   15   14    3     -2.98      0.00
   16   14    3     -0.28      0.00
   17   14    3      1.34      0.00
   18   14    3     -2.57      0.00
   19   14    3     -7.31      0.00
   20   14    3     -0.77      0.00
   21   14    3      1.80      0.00
   -7   15    3      3.58      0.00
   -6   15    3      0.93      0.00
   -5   15    3     -2.78      0.00
   -4   15    3     -0.46      0.00
   -3   15    3      0.15      0.00
   -2   15    3     -1.58      0.00
   -1   15    3     -3.05      0.00
    0   15    3     -3.49      0.00
    1   15    3      1.93      0.00
    2   15    3     -1.47      0.00
    3   15    3     -4.27      0.00
    4   15    3     -1.81      0.00
    6   15    3     -7.34      0.00
    7   15    3      0.74      0.00
    8   15    3     -4.62      0.00
    9   15    3     -6.82      0.00
   10   15    3     -2.55      0.00
   11   15    3     -4.16      0.00
   12   15    3     -6.11      0.00
   13   15    3     -3.06      0.00
   14   15    3      1.85      0.00
   15   15    3      1.64      0.00
   16   15    3     -0.50      0.00
   17   15    3     -0.09      0.00
   18   15    3      4.21      0.00
   19   15    3      3.88      0.00
   20   15    3     -5.12      0.00
   21   15    3     -7.31      0.00
   -6   16    3      5.23      0.00
   -5   16    3      4.37      0.00
   -4   16    3      0.87      0.00
   -3   16    3     -0.65      0.00
   -2   16    3     -3.91      0.00
   -1   16    3     -2.73      0.00
    0   16    3      3.82      0.00
    1   16    3      0.56      0.00
    2   16    3      0.21      0.00
    3   16    3      0.66      0.00
    4   16    3     -2.75      0.00
    5   16    3     -2.02      0.00
    6   16    3      2.25      0.00
    7   16    3     -4.36      0.00
    9   16    3      6.74      0.00
   10   16    3      2.70      0.00
   11   16    3      1.83      0.00
   12   16    3      5.18      0.00
   13   16    3      2.64      0.00
   14   16    3     -3.55      0.00
   15   16    3     -3.28      0.00
   16   16    3     -0.52      0.00
   17   16    3      2.39      0.00
   18   16    3     -1.76      0.00
   20   16    3     -0.57      0.00
   -4   17    3     -3.12      0.00
   -3   17    3     -6.31      0.00
   -2   17    3      0.12      0.00
   -1   17    3      4.70      0.00
    0   17    3      1.12      0.00
    1   17    3      0.67      0.00
    2   17    3     -2.64      0.00
    3   17    3     -3.64      0.00
    4   17    3     -0.07      0.00
    5   17    3      4.51      0.00
   11   17    3      3.16      0.00
   12   17    3      3.48      0.00
   13   17    3      4.34      0.00
   14   17    3      5.29      0.00
   15   17    3      2.07      0.00
   16   17    3      1.57      0.00
   17   17    3     -1.83      0.00
   18   17    3     -0.25      0.00
   19   17    3      2.93      0.00
   -3   18    3      2.15      0.00
   -2   18    3     -2.32      0.00
   -1   18    3     -4.75      0.00
    0   18    3     -2.80      0.00
    1   18    3     -2.07      0.00
    2   18    3      1.53      0.00
    3   18    3      1.49      0.00
    4   18    3      0.35      0.00
   13   18    3      0.52      0.00
   14   18    3      2.14      0.00
   15   18    3      1.98      0.00
   16   18    3     -3.58      0.00
   17   18    3     -1.37      0.00
   18   18    3      2.14      0.00
    4   19    3      4.22      0.00
   -4  -18    4      0.30      0.00
   -5  -17    4      0.42      0.00
   -4  -17    4      2.08      0.00
   -3  -17    4      3.17      0.00
   -2  -17    4      2.68      0.00
   -1  -17    4     -1.01      0.00
    0  -17    4     -0.49      0.00
   -6  -16    4     -0.06      0.00
   -5  -16    4     -2.02      0.00
   -4  -16    4     -0.48      0.00
   -3  -16    4      1.38      0.00
   -2  -16    4     -3.00      0.00
   -1  -16    4     -2.73      0.00
    0  -16    4     -0.51      0.00
    1  -16    4      6.11      0.00
    2  -16    4      2.42      0.00
   -7  -15    4     -5.31      0.00
   -6  -15    4     -6.01      0.00
   -5  -15    4     -0.56      0.00
   -4  -15    4      3.40      0.00
   -3  -15    4      0.35      0.00
   -2  -15    4      0.75      0.00
   -1  -15    4      1.98      0.00
    0  -15    4      7.85      0.00
    1  -15    4      8.62      0.00
    2  -15    4      5.45      0.00
    3  -15    4      2.87      0.00
    4  -15    4     -4.35      0.00
   -7  -14    4     -4.97      0.00
   -6  -14    4     -2.05      0.00
   -5  -14    4     -1.38      0.00
   -4  -14    4     -3.25      0.00
   -3  -14    4     -2.06      0.00
   -2  -14    4     -3.16      0.00
   -1  -14    4     -1.69      0.00
    0  -14    4     -1.32      0.00
    1  -14    4     -3.65      0.00
    2  -14    4     -2.32      0.00
    3  -14    4     -2.56      0.00
    4  -14    4      4.15      0.00
    5  -14    4      3.48      0.00
    6  -14    4      1.69      0.00
  -18  -13    4      0.36      0.00
  -17  -13    4     -0.08      0.00
  -16  -13    4     -3.44      0.00
  -15  -13    4     -1.60      0.00
  -12  -13    4     -4.15      0.00
  -11  -13    4      2.85      0.00
  -10  -13    4      5.36      0.00
   -9  -13    4     -3.09      0.00
   -8  -13    4     -2.77      0.00
   -7  -13    4      4.68      0.00
   -6  -13    4     -0.20      0.00
   -5  -13    4     -1.66      0.00
   -4  -13    4      1.33      0.00
   -3  -13    4     -0.30      0.00
   -2  -13    4     -1.06      0.00
   -1  -13    4      1.07      0.00
    0  -13    4      0.70      0.00
    1  -13    4      0.50      0.00
    2  -13    4     -3.43      0.00
    3  -13    4     -2.35      0.00
    4  -13    4     -3.89      0.00
    5  -13    4     -4.95      0.00
    6  -13    4     -4.26      0.00
    7  -13    4     -5.76      0.00
    8  -13    4     -2.18      0.00
  -19  -12    4      1.06      0.00
  -18  -12    4      1.71      0.00
  -17  -12    4     -3.55      0.00
  -16  -12    4     -1.86      0.00
  -15  -12    4      0.84      0.00
  -14  -12    4     -5.02      0.00
  -13  -12    4     -6.13      0.00
  -12  -12    4     -4.30      0.00
  -11  -12    4     -3.86      0.00
  -10  -12    4     -5.36      0.00
   -9  -12    4     -2.77      0.00
   -8  -12    4     -0.35      0.00
   -7  -12    4     -4.88      0.00
   -6  -12    4      2.07      0.00
   -5  -12    4      6.30      0.00
   -4  -12    4      1.66      0.00
   -3  -12    4      0.63      0.00
   -2  -12    4      2.62      0.00
   -1  -12    4     -1.72      0.00
    0  -12    4     -4.77      0.00
    1  -12    4     -5.22      0.00
    2  -12    4     -3.58      0.00
    3  -12    4     -2.93      0.00
    4  -12    4     -2.38      0.00
    5  -12    4      0.49      0.00
    6  -12    4      1.09      0.00
    7  -12    4      3.08      0.00
    8  -12    4     -0.25      0.00
    9  -12    4     -0.26      0.00
  -19  -11    4     -4.34      0.00
  -18  -11    4     -6.80      0.00
  -17  -11    4      0.47      0.00
  -16  -11    4      3.58      0.00
  -15  -11    4      0.38      0.00
  -14  -11    4     -1.97      0.00
  -13  -11    4     -4.46      0.00
  -12  -11    4     -5.00      0.00
  -11  -11    4     -4.67      0.00
  -10  -11    4     -0.56      0.00
   -9  -11    4      2.33      0.00
   -8  -11    4     -1.60      0.00
   -7  -11    4      3.51      0.00
   -6  -11    4      3.35      0.00
   -5  -11    4     -0.60      0.00
   -4  -11    4      2.04      0.00
   -3  -11    4      1.91      0.00
   -2  -11    4     -3.01      0.00
   -1  -11    4     -1.81      0.00
    0  -11    4      0.11      0.00
    1  -11    4     -3.05      0.00
    2  -11    4     -1.58      0.00
    3  -11    4      0.27      0.00
    4  -11    4      1.22      0.00
    5  -11    4      0.74      0.00
    6  -11    4      2.15      0.00
    7  -11    4      0.09      0.00
    8  -11    4     -1.57      0.00
    9  -11    4     -3.18      0.00
   10  -11    4     -6.44      0.00
  -20  -10    4     -4.27      0.00
  -19  -10    4     -4.25      0.00
  -18  -10    4      0.42      0.00
  -17  -10    4     -1.69      0.00
  -16  -10    4     -3.11      0.00
  -15  -10    4     -4.20      0.00
  -14  -10    4     -5.98      0.00
  -13  -10    4     -6.64      0.00
  -12  -10    4     -6.94      0.00
  -11  -10    4     -3.38      0.00
  -10  -10    4     -3.56      0.00
   -9  -10    4     -6.62      0.00
   -8  -10    4      1.51      0.00
   -7  -10    4      4.61      0.00
   -6  -10    4      2.30      0.00
   -5  -10    4      3.14      0.00
   -4  -10    4      0.89      0.00
   -3  -10    4      1.70      0.00
   -2  -10    4      6.08      0.00
   -1  -10    4      3.30      0.00
    0  -10    4     -2.34      0.00
    1  -10    4      2.32      0.00
    2  -10    4      2.76      0.00
    3  -10    4     -1.81      0.00
    4  -10    4     -2.29      0.00
    5  -10    4      0.62      0.00
    6  -10    4      0.86      0.00
    7  -10    4      0.46      0.00
    8  -10    4      2.31      0.00
    9  -10    4      1.72      0.00
   10  -10    4      0.75      0.00
   11  -10    4     -2.46      0.00
  -20   -9    4     -1.88      0.00
  -19   -9    4     -2.84      0.00
  -18   -9    4     -5.53      0.00
  -17   -9    4     -5.37      0.00
  -16   -9    4     -5.14      0.00
  -15   -9    4     -5.17      0.00
  -14   -9    4     -4.66      0.00
  -13   -9    4     -4.97      0.00
  -12   -9    4     -0.66      0.00
  -11   -9    4     -0.06      0.00
  -10   -9    4     -1.37      0.00
   -9   -9    4      2.84      0.00
   -8   -9    4      1.63      0.00
   -7   -9    4     -2.26      0.00
   -6   -9    4     -0.41      0.00
   -5   -9    4     -1.77      0.00
   -4   -9    4     -2.39      0.00
   -3   -9    4     -1.18      0.00
   -2   -9    4     -0.84      0.00
   -1   -9    4      1.20      0.00
    0   -9    4      3.89      0.00
    1   -9    4      0.54      0.00
    2   -9    4     -2.31      0.00
    3   -9    4      1.78      0.00
    4   -9    4      1.86      0.00
    5   -9    4     -1.76      0.00
    6   -9    4     -0.31      0.00
    7   -9    4      4.86      0.00
    8   -9    4      3.68      0.00
    9   -9    4      0.65      0.00
   10   -9    4     -1.39      0.00
   11   -9    4     -1.86      0.00
   12   -9    4      2.64      0.00
  -20   -8    4     -6.29      0.00
  -19   -8    4     -4.93      0.00
  -18   -8    4     -4.44      0.00
  -17   -8    4     -0.99      0.00
  -16   -8    4      0.55      0.00
  -15   -8    4      2.75      0.00
  -14   -8    4      2.34      0.00
  -13   -8    4      5.37      0.00
  -12   -8    4      2.04      0.00
  -11   -8    4     -2.85      0.00
  -10   -8    4     -0.18      0.00
   -9   -8    4      0.56      0.00
   -8   -8    4     -1.00      0.00
   -7   -8    4      2.82      0.00
   -6   -8    4      0.02      0.00
   -5   -8    4     -3.58      0.00
   -4   -8    4     -1.06      0.00
   -3   -8    4      2.19      0.00
   -2   -8    4     -1.12      0.00
   -1   -8    4     -6.40      0.00
    0   -8    4     -3.54      0.00
    1   -8    4      0.35      0.00
    2   -8    4      3.16      0.00
    3   -8    4      0.78      0.00
    4   -8    4     -1.19      0.00
    5   -8    4      4.35      0.00
    6   -8    4      5.71      0.00
    7   -8    4      0.70      0.00
    8   -8    4     -1.21      0.00
    9   -8    4      1.41      0.00
   10   -8    4      4.38      0.00
   11   -8    4      6.79      0.00
   12   -8    4      1.24      0.00
   13   -8    4     -0.95      0.00
  -20   -7    4      7.30      0.00
  -19   -7    4      5.21      0.00
  -18   -7    4      3.76      0.00
  -17   -7    4     -3.15      0.00
  -16   -7    4     -1.62      0.00
  -15   -7    4     -0.79      0.00
  -14   -7    4      1.11      0.00
  -13   -7    4     -3.94      0.00
  -12   -7    4     -5.48      0.00
  -11   -7    4      1.47      0.00
  -10   -7    4     -0.64      0.00
   -9   -7    4     -4.58      0.00
   -8   -7    4      1.91      0.00
   -7   -7    4      2.41      0.00
   -6   -7    4      0.67      0.00
   -5   -7    4      1.08      0.00
   -4   -7    4      1.08      0.00
   -3   -7    4     -3.17      0.00
   -2   -7    4      0.77      0.00
   -1   -7    4      8.12      0.00
    0   -7    4      0.68      0.00
    1   -7    4     -2.99      0.00
    2   -7    4      0.92      0.00
    3   -7    4     -2.17      0.00
    4   -7    4     -1.09      0.00
    5   -7    4     -4.57      0.00
    6   -7    4     -5.59      0.00
    7   -7    4     -2.02      0.00
    8   -7    4      3.76      0.00
    9   -7    4      3.59      0.00
   10   -7    4     -1.59      0.00
   11   -7    4     -7.09      0.00
   12   -7    4     -4.73      0.00
   13   -7    4     -5.16      0.00
   14   -7    4     -4.82      0.00
  -20   -6    4     -3.30      0.00
  -19   -6    4     -2.77      0.00
  -18   -6    4     -2.84      0.00
  -17   -6    4      3.61      0.00
  -16   -6    4      0.91      0.00
  -15   -6    4     -1.30      0.00
  -14   -6    4     -3.41      0.00
  -13   -6    4     -0.79      0.00
  -12   -6    4      4.07      0.00
  -11   -6    4     -2.36      0.00
  -10   -6    4     -1.73      0.00
   -9   -6    4      4.08      0.00
   -8   -6    4     -2.40      0.00
   -7   -6    4     -7.15      0.00
   -6   -6    4     -3.98      0.00
   -5   -6    4      1.83      0.00
   -4   -6    4     -2.21      0.00
   -3   -6    4      1.81      0.00
   -2   -6    4      2.01      0.00
   -1   -6    4     -6.07      0.00
    0   -6    4      3.38      0.00
    1   -6    4     11.51      0.00
    2   -6    4     -3.05      0.00
    3   -6    4     -1.43      0.00
    4   -6    4      0.06      0.00
    5   -6    4     -0.96      0.00
    6   -6    4     -2.73      0.00
    7   -6    4     -0.22      0.00
    8   -6    4     -0.09      0.00
    9   -6    4      0.20      0.00
   10   -6    4      4.00      0.00
   11   -6    4      5.52      0.00
   12   -6    4     -1.64      0.00
   13   -6    4     -3.67      0.00
   14   -6    4     -0.78      0.00
   15   -6    4     -0.46      0.00
  -20   -5    4     -1.34      0.00
  -19   -5    4      0.27      0.00
  -18   -5    4     -0.45      0.00
  -17   -5    4     -7.24      0.00
  -16   -5    4     -7.57      0.00
  -15   -5    4     -5.58      0.00
  -14   -5    4     -3.18      0.00
  -13   -5    4      0.51      0.00
  -12   -5    4     -3.21      0.00
  -11   -5    4      0.31      0.00
  -10   -5    4     -1.46      0.00
   -9   -5    4     -6.74      0.00
   -8   -5    4     -1.33      0.00
   -7   -5    4      6.33      0.00
   -6   -5    4      4.68      0.00
   -5   -5    4     -8.05      0.00
   -4   -5    4     -1.28      0.00
   -3   -5    4      2.71      0.00
   -2   -5    4     -1.11      0.00
   -1   -5    4      7.28      0.00
    0   -5    4      3.01      0.00
    1   -5    4    -11.72      0.00
    2   -5    4      2.45      0.00
    3   -5    4      4.53      0.00
    4   -5    4     -4.04      0.00
    5   -5    4     -2.93      0.00
    6   -5    4      4.35      0.00
    7   -5    4      4.91      0.00
    8   -5    4      2.48      0.00
    9   -5    4      3.60      0.00
   10   -5    4      0.88      0.00
   11   -5    4     -3.12      0.00
   12   -5    4      0.56      0.00
   13   -5    4      3.96      0.00
   14   -5    4     -0.05      0.00
   15   -5    4     -3.99      0.00
   16   -5    4     -2.54      0.00
  -20   -4    4     10.57      0.00
  -19   -4    4      7.01      0.00
  -18   -4    4      1.88      0.00
  -17   -4    4      0.34      0.00
  -16   -4    4     -0.84      0.00
  -15   -4    4     -1.19      0.00
  -14   -4    4      1.51      0.00
  -13   -4    4      0.39      0.00
  -12   -4    4      3.76      0.00
  -11   -4    4     -0.42      0.00
  -10   -4    4     -1.48      0.00
   -9   -4    4      1.86      0.00
   -8   -4    4      4.24      0.00
   -7   -4    4      3.82      0.00
   -6   -4    4      1.70      0.00
   -5   -4    4     11.22      0.00
   -4   -4    4      8.03      0.00
   -3   -4    4     -1.04      0.00
   -2   -4    4      8.78      0.00
   -1   -4    4      4.90      0.00
    0   -4    4     -2.07      0.00
    1   -4    4      8.14      0.00
    2   -4    4     -0.26      0.00
    3   -4    4    -10.72      0.00
    4   -4    4     -1.74      0.00
    5   -4    4      1.82      0.00
    6   -4    4     -2.82      0.00
    7   -4    4     -4.74      0.00
    8   -4    4      0.73      0.00
    9   -4    4     -1.17      0.00
   10   -4    4     -2.18      0.00
   11   -4    4      3.46      0.00
   12   -4    4      6.43      0.00
   13   -4    4      2.65      0.00
   14   -4    4      3.46      0.00
   15   -4    4      4.18      0.00
   16   -4    4     -0.69      0.00
   17   -4    4     -0.33      0.00
  -20   -3    4     -7.99      0.00
  -19   -3    4     -6.05      0.00
  -18   -3    4      0.43      0.00
  -17   -3    4      1.43      0.00
  -16   -3    4     -1.41      0.00
  -15   -3    4     -3.20      0.00
  -14   -3    4     -1.72      0.00
  -13   -3    4      1.77      0.00
  -12   -3    4     -0.57      0.00
  -11   -3    4     -1.36      0.00
  -10   -3    4     -4.44      0.00
   -9   -3    4     -5.49      0.00
   -8   -3    4     -3.09      0.00
   -7   -3    4     -1.88      0.00
   -6   -3    4      3.77      0.00
   -5   -3    4      1.67      0.00
   -4   -3    4     -1.66      0.00
   -3   -3    4     11.44      0.00
   -2   -3    4      1.19      0.00
   -1   -3    4     -7.70      0.00
    0   -3    4      1.13      0.00
    1   -3    4     -1.10      0.00
    2   -3    4     -3.78      0.00
    3   -3    4      2.93      0.00
    4   -3    4      0.80      0.00
    5   -3    4      0.43      0.00
    6   -3    4      4.12      0.00
    7   -3    4      7.24      0.00
    8   -3    4     -2.29      0.00
    9   -3    4     -5.31      0.00
   10   -3    4     -3.12      0.00
   11   -3    4     -5.79      0.00
   12   -3    4     -6.91      0.00
   13   -3    4      2.67      0.00
   14   -3    4      2.61      0.00
   15   -3    4     -2.00      0.00
   16   -3    4      4.27      0.00
   17   -3    4      5.33      0.00
  -19   -2    4      8.94      0.00
  -18   -2    4      4.98      0.00
  -17   -2    4      6.50      0.00
  -16   -2    4      7.24      0.00
  -15   -2    4      6.52      0.00
  -14   -2    4     -0.99      0.00
  -13   -2    4     -3.78      0.00
  -12   -2    4     -0.39      0.00
  -11   -2    4      1.53      0.00
  -10   -2    4      2.69      0.00
   -9   -2    4      4.78      0.00
   -8   -2    4      3.22      0.00
   -7   -2    4      8.43      0.00
   -6   -2    4      6.44      0.00
   -5   -2    4      0.50      0.00
   -4   -2    4      7.82      0.00
   -3   -2    4     -2.75      0.00
   -2   -2    4     -6.01      0.00
   -1   -2    4      2.04      0.00
    0   -2    4     -2.15      0.00
    1   -2    4      4.15      0.00
    2   -2    4     13.53      0.00
    3   -2    4     20.86      0.00
    4   -2    4     17.52      0.00
    5   -2    4     11.59      0.00
    6   -2    4      9.71      0.00
    7   -2    4      3.08      0.00
    8   -2    4      4.40      0.00
    9   -2    4      3.53      0.00
   10   -2    4     -2.63      0.00
   11   -2    4     -2.08      0.00
   12   -2    4      1.98      0.00
   13   -2    4     -5.91      0.00
   14   -2    4     -5.03      0.00
   15   -2    4      3.18      0.00
   16   -2    4      1.22      0.00
   17   -2    4     -0.19      0.00
   18   -2    4     -4.90      0.00
  -19   -1    4      0.22      0.00
  -18   -1    4      5.71      0.00
  -17   -1    4      1.02      0.00
  -16   -1    4     -3.78      0.00
  -15   -1    4    -10.27      0.00
  -14   -1    4     -6.00      0.00
  -13   -1    4     -2.78      0.00
  -12   -1    4     -2.91      0.00
  -11   -1    4     -2.40      0.00
  -10   -1    4      1.41      0.00
   -9   -1    4      0.58      0.00
   -8   -1    4      7.25      0.00
   -7   -1    4      0.72      0.00
   -6   -1    4     -3.50      0.00
   -5   -1    4      6.46      0.00
   -4   -1    4      1.06      0.00
   -3   -1    4     -8.36      0.00
   -2   -1    4     -8.10      0.00
   -1   -1    4     -6.86      0.00
    0   -1    4      7.37      0.00
    1   -1    4      1.57      0.00
    2   -1    4     11.65      0.00
    3   -1    4     -1.30      0.00
    4   -1    4     -3.22      0.00
    5   -1    4      8.99      0.00
    6   -1    4      6.76      0.00
    7   -1    4      4.20      0.00
    8   -1    4     -0.22      0.00
    9   -1    4     -2.97      0.00
   10   -1    4      3.19      0.00
   11   -1    4      4.24      0.00
   12   -1    4     -0.37      0.00
   13   -1    4      6.03      0.00
   14   -1    4      9.36      0.00
   15   -1    4      5.53      0.00
   16   -1    4      4.45      0.00
   17   -1    4      3.84      0.00
   18   -1    4      5.71      0.00
   19   -1    4      6.01      0.00
  -19    0    4      2.82      0.00
  -18    0    4     -1.46      0.00
  -17    0    4      1.84      0.00
  -16    0    4      1.49      0.00
  -15    0    4      3.25      0.00
  -14    0    4      1.21      0.00
  -13    0    4     -0.06      0.00
  -12    0    4      3.78      0.00
  -11    0    4      7.71      0.00
  -10    0    4      5.03      0.00
   -9    0    4     10.01      0.00
   -8    0    4      3.37      0.00
   -7    0    4      5.67      0.00
   -6    0    4      7.92      0.00
   -5    0    4     -4.88      0.00
   -4    0    4     -8.13      0.00
   -3    0    4     10.79      0.00
   -2    0    4     10.82      0.00
   -1    0    4     -5.03      0.00
    0    0    4    -17.49      0.00
    1    0    4     25.39      0.00
    2    0    4      9.60      0.00
    3    0    4      7.79      0.00
    4    0    4     18.03      0.00
    5    0    4      3.36      0.00
    6    0    4      3.73      0.00
    7    0    4      1.94      0.00
    8    0    4     -5.35      0.00
    9    0    4     -3.20      0.00
   10    0    4     -2.07      0.00
   11    0    4      0.28      0.00
   12    0    4      2.31      0.00
   13    0    4     -0.20      0.00
   14    0    4     -0.50      0.00
   15    0    4      2.41      0.00
   16    0    4      6.29      0.00
   17    0    4      5.27      0.00
   18    0    4     -0.15      0.00
   19    0    4      0.73      0.00
  -18    1    4      4.98      0.00
  -17    1    4      3.60      0.00
  -16    1    4      3.02      0.00
  -15    1    4      1.95      0.00
  -14    1    4     -1.22      0.00
  -13    1    4      1.25      0.00
  -12    1    4      1.46      0.00
  -11    1    4      0.68      0.00
  -10    1    4      5.96      0.00
   -9    1    4      1.15      0.00
   -8    1    4      1.35      0.00
   -7    1    4     -6.64      0.00
   -6    1    4    -15.96      0.00
   -5    1    4     -8.75      0.00
   -4    1    4      0.48      0.00
   -3    1    4    -12.48      0.00
   -2    1    4    -14.12      0.00
   -1    1    4     11.23      0.00
    0    1    4     38.88      0.00
    1    1    4     -9.49      0.00
    2    1    4     11.31      0.00
    3    1    4     30.37      0.00
    4    1    4     -1.30      0.00
    5    1    4      7.84      0.00
    6    1    4      9.88      0.00
    7    1    4      1.77      0.00
    8    1    4      2.81      0.00
    9    1    4      3.32      0.00
   10    1    4      4.79      0.00
   11    1    4      0.57      0.00
   12    1    4     -0.90      0.00
   13    1    4     -1.28      0.00
   14    1    4     -2.93      0.00
   15    1    4     -0.08      0.00
   16    1    4      0.41      0.00
   17    1    4      0.90      0.00
   18    1    4      6.20      0.00
   19    1    4     -3.45      0.00
  -18    2    4     -2.21      0.00
  -17    2    4     -2.48      0.00
  -16    2    4     -2.50      0.00
  -15    2    4     -3.84      0.00
  -14    2    4      1.32      0.00
  -13    2    4      1.35      0.00
  -12    2    4      1.83      0.00
  -11    2    4      3.40      0.00
  -10    2    4     -0.22      0.00
   -9    2    4      2.33      0.00
   -8    2    4      2.23      0.00
   -7    2    4      2.16      0.00
   -6    2    4      1.53      0.00
   -5    2    4     -5.76      0.00
   -4    2    4     -5.43      0.00
   -3    2    4     -1.03      0.00
   -2    2    4     -9.20      0.00
   -1    2    4    -30.60      0.00
    0    2    4    -39.94      0.00
    1    2    4     25.43      0.00
    2    2    4     17.30      0.00
    3    2    4    -33.06      0.00
    4    2    4     -5.16      0.00
    5    2    4     -4.49      0.00
    6    2    4    -12.85      0.00
    7    2    4     -7.81      0.00
    8    2    4     -2.31      0.00
    9    2    4      1.53      0.00
   10    2    4      0.04      0.00
   11    2    4      4.36      0.00
   12    2    4      4.27      0.00
   13    2    4      1.61      0.00
   14    2    4      2.86      0.00
   15    2    4     -1.48      0.00
   16    2    4     -2.19      0.00
   17    2    4      2.33      0.00
   18    2    4     -5.09      0.00
   19    2    4      5.80      0.00
   20    2    4      3.60      0.00
  -17    3    4      0.58      0.00
  -16    3    4      3.81      0.00
  -15    3    4      5.38      0.00
  -14    3    4      0.28      0.00
  -13    3    4     -3.46      0.00
  -12    3    4     -4.47      0.00
  -11    3    4     -5.67      0.00
  -10    3    4     -3.77      0.00
   -9    3    4     -3.68      0.00
   -8    3    4     -0.66      0.00
   -7    3    4      2.10      0.00
   -6    3    4      4.04      0.00
   -5    3    4     14.44      0.00
   -4    3    4     14.42      0.00
   -3    3    4     17.75      0.00
   -2    3    4     25.35      0.00
   -1    3    4     33.44      0.00
    0    3    4     43.59      0.00
    1    3    4      6.64      0.00
    2    3    4     -7.52      0.00
    3    3    4     16.28      0.00
    4    3    4    -24.25      0.00
    5    3    4    -37.39      0.00
    6    3    4    -13.76      0.00
    7    3    4      0.35      0.00
    8    3    4     -2.76      0.00
    9    3    4     -8.74      0.00
   10    3    4     -5.43      0.00
   11    3    4     -7.38      0.00
   12    3    4     -7.69      0.00
   13    3    4     -2.65      0.00
   14    3    4     -4.00      0.00
   15    3    4      0.50      0.00
   16    3    4      3.44      0.00
   17    3    4     -4.22      0.00
   18    3    4      1.70      0.00
   19    3    4     -7.95      0.00
   20    3    4     -9.07      0.00
  -17    4    4      3.53      0.00
  -16    4    4      0.75      0.00
  -15    4    4      1.24      0.00
  -14    4    4     -0.61      0.00
  -13    4    4      0.38      0.00
  -12    4    4      1.32      0.00
  -11    4    4      0.95      0.00
  -10    4    4     -3.67      0.00
   -9    4    4     -3.65      0.00
   -8    4    4     -5.64      0.00
   -7    4    4     -6.60      0.00
   -6    4    4     -4.04      0.00
   -5    4    4     -5.06      0.00
   -4    4    4      5.57      0.00
   -3    4    4      6.09      0.00
   -2    4    4     -7.81      0.00
   -1    4    4    -11.76      0.00
    0    4    4    -18.33      0.00
    1    4    4    -15.26      0.00
    2    4    4    -21.40      0.00
    3    4    4    -49.82      0.00
    4    4    4    -26.16      0.00
    5    4    4      5.95      0.00
    6    4    4      0.40      0.00
    7    4    4    -10.78      0.00
    8    4    4     -3.60      0.00
    9    4    4      6.47      0.00
   10    4    4      0.73      0.00
   11    4    4      1.45      0.00
   12    4    4      7.50      0.00
   13    4    4      3.89      0.00
   14    4    4      5.70      0.00
   15    4    4      5.21      0.00
   16    4    4      1.97      0.00
   17    4    4      5.36      0.00
   18    4    4     -1.08      0.00
   19    4    4      2.75      0.00
   20    4    4      3.50      0.00
   21    4    4     -6.14      0.00
  -16    5    4     14.26      0.00
  -15    5    4      6.40      0.00
  -14    5    4     -0.21      0.00
  -13    5    4     -4.53      0.00
  -12    5    4     -3.94      0.00
  -11    5    4     -2.79      0.00
  -10    5    4     -0.77      0.00
   -9    5    4     -5.09      0.00
   -8    5    4     -0.71      0.00
   -7    5    4      4.27      0.00
   -6    5    4      0.90      0.00
   -5    5    4      1.41      0.00
   -4    5    4     -0.47      0.00
   -3    5    4     -5.14      0.00
   -2    5    4     -2.30      0.00
   -1    5    4     -7.14      0.00
    0    5    4     -4.62      0.00
    1    5    4     -6.06      0.00
    2    5    4     -7.94      0.00
    3    5    4      2.73      0.00
    4    5    4      2.85      0.00
    5    5    4    -14.47      0.00
    6    5    4    -11.20      0.00
    7    5    4      2.82      0.00
    8    5    4      0.67      0.00
    9    5    4    -11.80      0.00
   10    5    4     -5.45      0.00
   11    5    4     -1.58      0.00
   12    5    4     -8.67      0.00
   13    5    4     -7.89      0.00
   14    5    4     -7.95      0.00
   15    5    4     -8.66      0.00
   16    5    4     -9.36      0.00
   17    5    4    -12.90      0.00
   18    5    4     -6.85      0.00
   19    5    4     -5.35      0.00
   20    5    4     -9.48      0.00
   21    5    4     -0.95      0.00
  -16    6    4      0.42      0.00
  -15    6    4      2.21      0.00
  -14    6    4     -0.03      0.00
  -13    6    4     -2.67      0.00
  -12    6    4     -2.96      0.00
  -11    6    4     -0.99      0.00
  -10    6    4      0.03      0.00
   -9    6    4      7.62      0.00
   -8    6    4      6.32      0.00
   -7    6    4     -1.44      0.00
   -6    6    4      0.23      0.00
   -5    6    4      2.01      0.00
   -4    6    4     -1.01      0.00
   -3    6    4     -0.27      0.00
   -2    6    4     -3.96      0.00
   -1    6    4     -0.74      0.00
    0    6    4     -2.80      0.00
    1    6    4      2.97      0.00
    2    6    4      5.52      0.00
    3    6    4      7.62      0.00
    4    6    4      6.66      0.00
    5    6    4     14.99      0.00
    6    6    4     16.50      0.00
    7    6    4      4.76      0.00
    8    6    4     -4.80      0.00
    9    6    4      3.60      0.00
   10    6    4      2.59      0.00
   11    6    4     -0.91      0.00
   12    6    4      2.46      0.00
   13    6    4      3.21      0.00
   14    6    4      4.21      0.00
   15    6    4      3.69      0.00
   16    6    4      1.85      0.00
   17    6    4      6.51      0.00
   18    6    4      5.50      0.00
   19    6    4     -1.10      0.00
   20    6    4     -2.17      0.00
   21    6    4     -8.93      0.00
  -15    7    4     -2.73      0.00
  -14    7    4     -6.50      0.00
  -13    7    4     -3.71      0.00
  -12    7    4     -0.45      0.00
  -11    7    4      0.64      0.00
  -10    7    4      1.57      0.00
   -9    7    4      0.32      0.00
   -8    7    4      1.44      0.00
   -7    7    4      4.58      0.00
   -6    7    4     -1.36      0.00
   -5    7    4     -1.83      0.00
   -4    7    4      4.45      0.00
   -3    7    4      2.86      0.00
   -2    7    4      0.83      0.00
   -1    7    4     -1.78      0.00
    0    7    4      2.66      0.00
    1    7    4     -3.94      0.00
    2    7    4     -2.74      0.00
    3    7    4     -1.97      0.00
    4    7    4     -4.27      0.00
    5    7    4     -5.13      0.00
    6    7    4     -8.24      0.00
    7    7    4     -8.13      0.00
    8    7    4      1.76      0.00
    9    7    4     -3.88      0.00
   10    7    4     -8.70      0.00
   11    7    4     -6.30      0.00
   12    7    4     -4.81      0.00
   13    7    4     -5.22      0.00
   14    7    4     -6.36      0.00
   15    7    4     -5.21      0.00
   16    7    4     -0.68      0.00
   17    7    4     -5.31      0.00
   18    7    4     -9.41      0.00
   19    7    4     -3.88      0.00
   20    7    4     -2.67      0.00
   21    7    4      3.02      0.00
  -14    8    4     -3.10      0.00
  -13    8    4     -7.24      0.00
  -12    8    4     -7.64      0.00
  -11    8    4     -4.85      0.00
  -10    8    4     -0.48      0.00
   -9    8    4      1.56      0.00
   -8    8    4      0.44      0.00
   -7    8    4     -3.17      0.00
   -6    8    4     -0.06      0.00
   -5    8    4     -2.13      0.00
   -4    8    4     -4.36      0.00
   -3    8    4      0.97      0.00
   -2    8    4      2.98      0.00
   -1    8    4     -0.72      0.00
    0    8    4     -9.61      0.00
    1    8    4     -3.77      0.00
    2    8    4      0.47      0.00
    3    8    4      1.09      0.00
    4    8    4      9.90      0.00
    5    8    4      9.62      0.00
    6    8    4      8.32      0.00
    7    8    4     12.57      0.00
    8    8    4      1.79      0.00
    9    8    4     -1.24      0.00
   10    8    4      6.22      0.00
   11    8    4      8.28      0.00
   12    8    4      5.19      0.00
   13    8    4      4.50      0.00
   14    8    4      4.11      0.00
   15    8    4      0.99      0.00
   16    8    4     -5.02      0.00
   17    8    4     -0.35      0.00
   18    8    4      8.30      0.00
   19    8    4      5.36      0.00
   20    8    4     10.23      0.00
   21    8    4     11.48      0.00
   22    8    4      2.67      0.00
  -13    9    4      7.16      0.00
  -12    9    4      4.51      0.00
  -11    9    4     -0.63      0.00
  -10    9    4     -2.29      0.00
   -9    9    4     -0.60      0.00
   -8    9    4      1.60      0.00
   -7    9    4     -0.64      0.00
   -6    9    4     -5.66      0.00
   -5    9    4     -0.27      0.00
   -4    9    4      3.98      0.00
   -3    9    4     -1.55      0.00
   -2    9    4     -3.24      0.00
   -1    9    4      0.91      0.00
    0    9    4      7.27      0.00
    1    9    4      1.82      0.00
    2    9    4     -3.81      0.00
    3    9    4      2.08      0.00
    4    9    4     -1.07      0.00
    5    9    4     -4.60      0.00
    6    9    4     -2.21      0.00
    7    9    4     -6.11      0.00
    8    9    4     -0.66      0.00
    9    9    4      7.51      0.00
   10    9    4      3.11      0.00
   11    9    4     -1.74      0.00
   12    9    4     -0.43      0.00
   13    9    4     -2.09      0.00
   14    9    4     -6.74      0.00
   15    9    4     -6.78      0.00
   16    9    4      0.34      0.00
   17    9    4      0.51      0.00
   18    9    4     -6.91      0.00
   19    9    4      1.86      0.00
   20    9    4      5.06      0.00
   21    9    4      1.92      0.00
   22    9    4      4.57      0.00
  -13   10    4     -4.42      0.00
  -12   10    4     -3.46      0.00
  -11   10    4      0.85      0.00
  -10   10    4     -0.05      0.00
   -9   10    4     -1.96      0.00
   -8   10    4     -8.00      0.00
   -7   10    4     -6.22      0.00
   -6   10    4      0.55      0.00
   -5   10    4      0.00      0.00
   -4   10    4     -2.54      0.00
   -3   10    4      3.06      0.00
   -2   10    4      4.54      0.00
   -1   10    4     -0.10      0.00
    0   10    4     -7.73      0.00
    1   10    4     -5.57      0.00
    2   10    4      3.50      0.00
    3   10    4     -1.67      0.00
    4   10    4     -8.32      0.00
    5   10    4     -2.90      0.00
    6   10    4      0.44      0.00
    7   10    4      3.61      0.00
    8   10    4      4.51      0.00
    9   10    4     -3.24      0.00
   10   10    4     -1.75      0.00
   11   10    4      5.00      0.00
   12   10    4      3.18      0.00
   13   10    4     -1.84      0.00
   14   10    4     -0.29      0.00
   15   10    4      1.41      0.00
   16   10    4     -4.96      0.00
   17   10    4     -6.74      0.00
   18   10    4      5.09      0.00
   19   10    4      5.53      0.00
   20   10    4      3.43      0.00
   21   10    4      4.68      0.00
   22   10    4     -2.87      0.00
  -12   11    4     -2.53      0.00
  -11   11    4     -4.63      0.00
  -10   11    4     -0.22      0.00
   -9   11    4     -1.71      0.00
   -8   11    4      0.80      0.00
   -7   11    4     -1.18      0.00
   -6   11    4     -3.27      0.00
   -5   11    4     -2.15      0.00
   -4   11    4      1.09      0.00
   -3   11    4     -2.35      0.00
   -2   11    4     -3.75      0.00
   -1   11    4     -3.43      0.00
    0   11    4     -0.89      0.00
    1   11    4      0.67      0.00
    2   11    4     -4.04      0.00
    3   11    4     -3.31      0.00
    4   11    4      3.54      0.00
    5   11    4      1.85      0.00
    6   11    4     -0.33      0.00
    7   11    4      0.54      0.00
    8   11    4     -2.65      0.00
    9   11    4      2.99      0.00
   10   11    4      5.86      0.00
   11   11    4      1.94      0.00
   12   11    4      1.51      0.00
   13   11    4      5.81      0.00
   14   11    4      3.77      0.00
   15   11    4     -1.40      0.00
   16   11    4      3.12      0.00
   17   11    4      4.75      0.00
   18   11    4     -4.76      0.00
   19   11    4     -5.40      0.00
   20   11    4      0.34      0.00
   21   11    4     -3.04      0.00
   22   11    4     -1.47      0.00
  -11   12    4     10.00      0.00
  -10   12    4      6.14      0.00
   -9   12    4      2.41      0.00
   -8   12    4     -5.99      0.00
   -7   12    4     -1.90      0.00
   -6   12    4      4.62      0.00
   -5   12    4      5.78      0.00
   -4   12    4      0.99      0.00
   -3   12    4      2.39      0.00
   -2   12    4      2.59      0.00
   -1   12    4      0.37      0.00
    0   12    4     -0.50      0.00
    1   12    4     -1.67      0.00
    2   12    4     -1.81      0.00
    3   12    4     -0.80      0.00
    4   12    4      0.55      0.00
    5   12    4      2.20      0.00
    6   12    4      1.41      0.00
    7   12    4     -1.32      0.00
    8   12    4      0.85      0.00
    9   12    4     -0.30      0.00
   10   12    4      0.56      0.00
   11   12    4      2.07      0.00
   12   12    4      1.08      0.00
   13   12    4     -4.09      0.00
   14   12    4     -6.03      0.00
   15   12    4      1.59      0.00
   16   12    4      2.08      0.00
   17   12    4      1.20      0.00
   18   12    4      3.95      0.00
   19   12    4      3.65      0.00
   20   12    4     -2.04      0.00
   21   12    4     -3.42      0.00
   22   12    4     -6.31      0.00
  -10   13    4     -4.69      0.00
   -9   13    4     -6.05      0.00
   -8   13    4      7.10      0.00
   -7   13    4      9.88      0.00
   -6   13    4      3.97      0.00
   -5   13    4      0.29      0.00
   -4   13    4      2.73      0.00
   -3   13    4     -1.28      0.00
   -2   13    4     -4.81      0.00
   -1   13    4     -3.24      0.00
    0   13    4     -1.73      0.00
    1   13    4     -1.97      0.00
    2   13    4     -0.52      0.00
    3   13    4      1.47      0.00
    4   13    4     -2.61      0.00
    5   13    4     -3.58      0.00
    6   13    4      0.43      0.00
    7   13    4     -0.64      0.00
    8   13    4     -1.51      0.00
    9   13    4      2.85      0.00
   10   13    4      1.00      0.00
   11   13    4      0.28      0.00
   12   13    4      1.24      0.00
   13   13    4      1.65      0.00
   14   13    4      5.72      0.00
   15   13    4      2.13      0.00
   16   13    4      1.17      0.00
   17   13    4      0.79      0.00
   18   13    4      2.60      0.00
   19   13    4      5.18      0.00
   20   13    4      4.82      0.00
   21   13    4      2.13      0.00
   -9   14    4      8.05      0.00
   -8   14    4      2.92      0.00
   -7   14    4      0.05      0.00
   -6   14    4      2.36      0.00
   -5   14    4      1.40      0.00
   -4   14    4     -1.64      0.00
   -3   14    4      3.08      0.00
   -2   14    4      5.88      0.00
   -1   14    4      4.88      0.00
    0   14    4      3.03      0.00
    1   14    4      2.58      0.00
    2   14    4      1.49      0.00
    3   14    4     -3.36      0.00
    4   14    4      0.58      0.00
    5   14    4      4.31      0.00
    6   14    4     -1.92      0.00
    7   14    4      1.99      0.00
    8   14    4      7.66      0.00
    9   14    4      0.44      0.00
   10   14    4     -1.43      0.00
   11   14    4      1.50      0.00
   12   14    4      1.97      0.00
   13   14    4      2.25      0.00
   14   14    4     -2.89      0.00
   15   14    4      0.24      0.00
   16   14    4      3.55      0.00
   17   14    4      4.39      0.00
   18   14    4      3.74      0.00
   19   14    4      5.23      0.00
   20   14    4      8.28      0.00
   21   14    4      1.84      0.00
   -7   15    4     -6.20      0.00
   -6   15    4     -8.27      0.00
   -5   15    4     -2.85      0.00
   -4   15    4      2.29      0.00
   -3   15    4     -1.04      0.00
   -2   15    4     -0.95      0.00
   -1   15    4     -0.69      0.00
    0   15    4     -0.76      0.00
    1   15    4      1.58      0.00
    2   15    4      1.47      0.00
    3   15    4      7.27      0.00
    4   15    4      6.66      0.00
    6   15    4      4.11      0.00
    7   15    4      6.08      0.00
    8   15    4     -3.66      0.00
    9   15    4     -4.06      0.00
   10   15    4     -1.94      0.00
   11   15    4     -4.34      0.00
   12   15    4     -3.37      0.00
   13   15    4     -1.12      0.00
   14   15    4      4.16      0.00
   15   15    4      3.23      0.00
   16   15    4      1.62      0.00
   17   15    4      3.54      0.00
   18   15    4      6.75      0.00
   19   15    4      3.66      0.00
   20   15    4     -6.23      0.00
   21   15    4     -6.36      0.00
   -6   16    4     -2.11      0.00
   -5   16    4     -4.79      0.00
   -4   16    4     -3.21      0.00
   -3   16    4      2.68      0.00
   -2   16    4      0.00      0.00
   -1   16    4     -1.42      0.00
    0   16    4      1.02      0.00
    1   16    4     -1.22      0.00
    2   16    4      1.99      0.00
    3   16    4     -0.92      0.00
    4   16    4     -5.84      0.00
    5   16    4     -2.77      0.00
    6   16    4     -0.84      0.00
    7   16    4     -3.89      0.00
    8   16    4      2.20      0.00
    9   16    4      1.35      0.00
   10   16    4     -4.23      0.00
   11   16    4     -1.45      0.00
   12   16    4     -0.34      0.00
   13   16    4     -2.95      0.00
   14   16    4     -3.21      0.00
   15   16    4      2.00      0.00
   16   16    4      5.08      0.00
   17   16    4      4.00      0.00
   18   16    4     -0.01      0.00
   19   16    4     -0.18      0.00
   20   16    4      3.00      0.00
   -4   17    4     12.33      0.00
   -3   17    4     13.07      0.00
   -2   17    4     16.29      0.00
   -1   17    4     10.91      0.00
    0   17    4      0.79      0.00
    1   17    4      0.52      0.00
    2   17    4     -0.52      0.00
    3   17    4     -0.48      0.00
    4   17    4     -1.04      0.00
    5   17    4     -3.46      0.00
    6   17    4     -6.94      0.00
    7   17    4     -3.12      0.00
    8   17    4     -5.98      0.00
    9   17    4     -5.96      0.00
   10   17    4     -0.11      0.00
   11   17    4     -1.20      0.00
   12   17    4     -3.35      0.00
   13   17    4     -1.93      0.00
   14   17    4     -1.20      0.00
   15   17    4     -2.46      0.00
   16   17    4     -4.00      0.00
   17   17    4     -7.03      0.00
   18   17    4     -4.27      0.00
   19   17    4     -1.50      0.00
   20   17    4     -1.21      0.00
   -3   18    4      0.57      0.00
   -2   18    4     -6.75      0.00
   -1   18    4     -5.61      0.00
    0   18    4      1.44      0.00
    1   18    4      4.24      0.00
    2   18    4      2.03      0.00
    3   18    4     -4.59      0.00
    4   18    4     -5.38      0.00
    5   18    4     -2.45      0.00
    6   18    4      2.06      0.00
    7   18    4      1.00      0.00
    9   18    4     -1.73      0.00
   10   18    4     -4.73      0.00
   11   18    4     -0.76      0.00
   12   18    4      3.00      0.00
   13   18    4      6.04      0.00
   14   18    4      7.97      0.00
   15   18    4      5.52      0.00
   16   18    4      0.24      0.00
   17   18    4     -0.35      0.00
   18   18    4     -5.43      0.00
   19   18    4     -8.88      0.00
    0   19    4      0.11      0.00
    1   19    4     -4.62      0.00
    2   19    4     -5.88      0.00
    3   19    4     -0.69      0.00
    4   19    4     -0.18      0.00
    5   19    4     -2.94      0.00
    6   19    4     -3.83      0.00
   13   19    4     -1.68      0.00
   14   19    4     -2.08      0.00
   15   19    4      2.31      0.00
   16   19    4      6.38      0.00
   -6  -17    5     -0.60      0.00
   -5  -17    5     -3.82      0.00
   -4  -17    5     -4.66      0.00
   -3  -17    5     -2.66      0.00
   -2  -17    5      1.99      0.00
   -7  -16    5      3.72      0.00
   -6  -16    5      1.24      0.00
   -5  -16    5      2.69      0.00
   -4  -16    5      3.31      0.00
   -3  -16    5      5.70      0.00
   -2  -16    5      6.82      0.00
   -1  -16    5      5.04      0.00
    0  -16    5     -2.61      0.00
    1  -16    5     -2.07      0.00
   -7  -15    5      4.47      0.00
   -6  -15    5      3.25      0.00
   -5  -15    5     -2.20      0.00
   -4  -15    5     -4.79      0.00
   -3  -15    5     -2.40      0.00
   -2  -15    5      0.81      0.00
   -1  -15    5     -3.12      0.00
    0  -15    5     -3.13      0.00
    1  -15    5     -5.73      0.00
    2  -15    5     -3.71      0.00
    3  -15    5     -3.05      0.00
   -8  -14    5     -8.71      0.00
   -7  -14    5     -6.47      0.00
   -6  -14    5     -3.19      0.00
   -5  -14    5     -2.51      0.00
   -4  -14    5     -0.40      0.00
   -3  -14    5      1.73      0.00
   -2  -14    5      2.19      0.00
   -1  -14    5      5.04      0.00
    0  -14    5      1.83      0.00
    1  -14    5      2.09      0.00
    2  -14    5      4.93      0.00
    3  -14    5      2.97      0.00
    4  -14    5      3.50      0.00
    5  -14    5     -2.78      0.00
  -16  -13    5      7.00      0.00
  -15  -13    5      7.12      0.00
   -8  -13    5      8.44      0.00
   -7  -13    5      7.20      0.00
   -6  -13    5      1.91      0.00
   -5  -13    5      3.29      0.00
   -4  -13    5      3.17      0.00
   -3  -13    5      2.46      0.00
   -2  -13    5      0.98      0.00
   -1  -13    5     -4.26      0.00
    0  -13    5     -4.24      0.00
    1  -13    5      0.53      0.00
    2  -13    5     -0.49      0.00
    3  -13    5      1.66      0.00
    4  -13    5      0.00      0.00
    5  -13    5      4.37      0.00
    6  -13    5      7.17      0.00
    7  -13    5      6.09      0.00
  -19  -12    5      4.83      0.00
  -18  -12    5      2.74      0.00
  -17  -12    5      1.96      0.00
  -16  -12    5      1.27      0.00
  -15  -12    5     -3.07      0.00
  -14  -12    5     -4.08      0.00
  -13  -12    5     -1.18      0.00
  -12  -12    5     -6.74      0.00
  -11  -12    5     -7.21      0.00
  -10  -12    5     -0.79      0.00
   -9  -12    5      5.20      0.00
   -8  -12    5      2.39      0.00
   -7  -12    5      0.07      0.00
   -6  -12    5      2.20      0.00
   -5  -12    5     -1.66      0.00
   -4  -12    5     -0.51      0.00
   -3  -12    5      2.68      0.00
   -2  -12    5      2.76      0.00
   -1  -12    5      2.44      0.00
    0  -12    5      5.11      0.00
    1  -12    5      4.07      0.00
    2  -12    5      6.33      0.00
    3  -12    5      5.10      0.00
    4  -12    5      3.85      0.00
    5  -12    5      1.39      0.00
    6  -12    5     -1.43      0.00
    7  -12    5      1.05      0.00
    8  -12    5      2.07      0.00
  -19  -11    5     -3.24      0.00
  -18  -11    5      2.15      0.00
  -17  -11    5      3.06      0.00
  -16  -11    5     -0.97      0.00
  -15  -11    5      2.11      0.00
  -14  -11    5      5.23      0.00
  -13  -11    5      1.83      0.00
  -12  -11    5      1.05      0.00
  -11  -11    5      1.09      0.00
  -10  -11    5      2.28      0.00
   -9  -11    5     -0.34      0.00
   -8  -11    5     -4.07      0.00
   -7  -11    5     -3.35      0.00
   -6  -11    5     -5.16      0.00
   -5  -11    5     -0.32      0.00
   -4  -11    5      1.42      0.00
   -3  -11    5     -2.15      0.00
   -2  -11    5     -2.95      0.00
   -1  -11    5      1.42      0.00
    0  -11    5      0.39      0.00
    1  -11    5      0.34      0.00
    2  -11    5      1.23      0.00
    3  -11    5     -0.28      0.00
    4  -11    5     -1.49      0.00
    5  -11    5     -3.25      0.00
    6  -11    5      0.74      0.00
    7  -11    5      5.20      0.00
    8  -11    5      9.20      0.00
    9  -11    5      4.87      0.00
   10  -11    5     -1.13      0.00
  -19  -10    5      0.81      0.00
  -18  -10    5     -1.76      0.00
  -17  -10    5     -3.63      0.00
  -16  -10    5      2.71      0.00
  -15  -10    5      6.04      0.00
  -14  -10    5      6.83      0.00
  -13  -10    5      4.11      0.00
  -12  -10    5      1.51      0.00
  -11  -10    5      3.89      0.00
  -10  -10    5      5.96      0.00
   -9  -10    5      9.76      0.00
   -8  -10    5     13.82      0.00
   -7  -10    5      8.04      0.00
   -6  -10    5      5.74      0.00
   -5  -10    5      2.42      0.00
   -4  -10    5     -2.00      0.00
   -3  -10    5     -0.43      0.00
   -2  -10    5      1.60      0.00
   -1  -10    5     -1.62      0.00
    0  -10    5      0.30      0.00
    1  -10    5      4.53      0.00
    2  -10    5      2.14      0.00
    3  -10    5      1.93      0.00
    4  -10    5      0.40      0.00
    5  -10    5     -0.77      0.00
    6  -10    5     -1.21      0.00
    7  -10    5      0.77      0.00
    8  -10    5      0.61      0.00
    9  -10    5      0.58      0.00
   10  -10    5      5.69      0.00
   11  -10    5      2.90      0.00
  -19   -9    5      3.11      0.00
  -18   -9    5      0.26      0.00
  -17   -9    5      2.15      0.00
  -16   -9    5      2.27      0.00
  -15   -9    5      4.42      0.00
  -14   -9    5      2.84      0.00
  -13   -9    5      2.60      0.00
  -12   -9    5      2.62      0.00
  -11   -9    5      0.64      0.00
  -10   -9    5      1.44      0.00
   -9   -9    5      0.38      0.00
   -8   -9    5     -6.16      0.00
   -7   -9    5     -3.50      0.00
   -6   -9    5      0.47      0.00
   -5   -9    5     -0.01      0.00
   -4   -9    5      0.87      0.00
   -3   -9    5     -0.43      0.00
   -2   -9    5     -1.64      0.00
   -1   -9    5      0.81      0.00
    0   -9    5     -2.07      0.00
    1   -9    5     -7.16      0.00
    2   -9    5     -1.63      0.00
    3   -9    5      4.13      0.00
    4   -9    5      2.80      0.00
    5   -9    5      1.21      0.00
    6   -9    5      0.92      0.00
    7   -9    5     -1.09      0.00
    8   -9    5     -2.56      0.00
    9   -9    5      1.33      0.00
   10   -9    5     -1.75      0.00
   11   -9    5     -2.31      0.00
   12   -9    5      1.23      0.00
  -20   -8    5      1.85      0.00
  -19   -8    5      6.36      0.00
  -18   -8    5     10.02      0.00
  -17   -8    5      5.17      0.00
  -16   -8    5     -1.72      0.00
  -15   -8    5     -5.08      0.00
  -14   -8    5     -1.08      0.00
  -13   -8    5      3.28      0.00
  -12   -8    5      3.45      0.00
  -11   -8    5      4.21      0.00
  -10   -8    5      3.87      0.00
   -9   -8    5      0.02      0.00
   -8   -8    5      2.70      0.00
   -7   -8    5      4.73      0.00
   -6   -8    5      1.57      0.00
   -5   -8    5      2.07      0.00
   -4   -8    5      2.34      0.00
   -3   -8    5      0.86      0.00
   -2   -8    5      0.88      0.00
   -1   -8    5      1.25      0.00
    0   -8    5      5.18      0.00
    1   -8    5      6.29      0.00
    2   -8    5      1.60      0.00
    3   -8    5     -5.08      0.00
    4   -8    5     -2.33      0.00
    5   -8    5      0.64      0.00
    6   -8    5     -1.80      0.00
    7   -8    5     -2.28      0.00
    8   -8    5      1.65      0.00
    9   -8    5      0.00      0.00
   10   -8    5      0.75      0.00
   11   -8    5      2.08      0.00
   12   -8    5      0.32      0.00
   13   -8    5      3.18      0.00
  -20   -7    5      1.93      0.00
  -19   -7    5      1.81      0.00
  -18   -7    5     -0.81      0.00
  -17   -7    5     -3.70      0.00
  -16   -7    5     -2.61      0.00
  -15   -7    5     -2.40      0.00
  -14   -7    5     -1.45      0.00
  -13   -7    5     -2.54      0.00
  -12   -7    5      0.78      0.00
  -11   -7    5      3.85      0.00
  -10   -7    5      0.56      0.00
   -9   -7    5      3.20      0.00
   -8   -7    5      3.88      0.00
   -7   -7    5     -1.04      0.00
   -6   -7    5      0.88      0.00
   -5   -7    5      1.91      0.00
   -4   -7    5     -1.84      0.00
   -3   -7    5     -1.45      0.00
   -2   -7    5      3.01      0.00
   -1   -7    5      2.74      0.00
    0   -7    5     -4.64      0.00
    1   -7    5     -1.69      0.00
    2   -7    5      3.62      0.00
    3   -7    5      7.38      0.00
    4   -7    5      5.70      0.00
    5   -7    5      0.28      0.00
    6   -7    5      3.00      0.00
    7   -7    5      6.21      0.00
    8   -7    5      3.55      0.00
    9   -7    5     -0.67      0.00
   10   -7    5     -3.21      0.00
   11   -7    5     -1.83      0.00
   12   -7    5      4.70      0.00
   13   -7    5      4.49      0.00
   14   -7    5      3.78      0.00
  -20   -6    5      3.01      0.00
  -19   -6    5      6.16      0.00
  -18   -6    5      7.03      0.00
  -17   -6    5      4.14      0.00
  -16   -6    5     -4.12      0.00
  -15   -6    5     -2.50      0.00
  -14   -6    5     -0.11      0.00
  -13   -6    5      3.61      0.00
  -12   -6    5      1.03      0.00
  -11   -6    5     -4.91      0.00
  -10   -6    5      2.04      0.00
   -9   -6    5      2.61      0.00
   -8   -6    5     -4.25      0.00
   -7   -6    5     -2.53      0.00
   -6   -6    5     -0.42      0.00
   -5   -6    5     -1.57      0.00
   -4   -6    5     -0.71      0.00
   -3   -6    5      2.28      0.00
   -2   -6    5     -1.82      0.00
   -1   -6    5     -0.52      0.00
    0   -6    5      9.87      0.00
    1   -6    5      3.86      0.00
    2   -6    5     -4.77      0.00
    3   -6    5     -0.46      0.00
    4   -6    5     -1.49      0.00
    5   -6    5      0.74      0.00
    6   -6    5     -0.10      0.00
    7   -6    5     -0.52      0.00
    8   -6    5     -2.19      0.00
    9   -6    5     -1.21      0.00
   10   -6    5     -1.27      0.00
   11   -6    5     -2.12      0.00
   12   -6    5     -3.38      0.00
   13   -6    5      0.70      0.00
   14   -6    5      0.58      0.00
   15   -6    5      0.99      0.00
  -20   -5    5     -8.01      0.00
  -19   -5    5     -5.36      0.00
  -18   -5    5     -5.68      0.00
  -17   -5    5     -4.75      0.00
  -16   -5    5      3.50      0.00
  -15   -5    5      3.98      0.00
  -14   -5    5      2.54      0.00
  -13   -5    5     -1.69      0.00
  -12   -5    5     -4.22      0.00
  -11   -5    5      2.65      0.00
  -10   -5    5     -1.32      0.00
   -9   -5    5     -3.64      0.00
   -8   -5    5      1.53      0.00
   -7   -5    5      1.07      0.00
   -6   -5    5     -4.32      0.00
   -5   -5    5     -4.02      0.00
   -4   -5    5      3.60      0.00
   -3   -5    5      0.37      0.00
   -2   -5    5      3.33      0.00
   -1   -5    5      5.00      0.00
    0   -5    5     -7.15      0.00
    1   -5    5     -4.90      0.00
    2   -5    5      9.38      0.00
    3   -5    5     -0.31      0.00
    4   -5    5     -0.91      0.00
    5   -5    5      4.21      0.00
    6   -5    5      6.98      0.00
    7   -5    5      1.49      0.00
    8   -5    5     -0.50      0.00
    9   -5    5     -1.62      0.00
   10   -5    5     -1.79      0.00
   11   -5    5     -1.23      0.00
   12   -5    5     -0.77      0.00
   13   -5    5     -4.75      0.00
   14   -5    5     -4.44      0.00
   15   -5    5      0.07      0.00
   16   -5    5      2.01      0.00
  -20   -4    5     -2.20      0.00
  -19   -4    5    -10.19      0.00
  -18   -4    5     -7.26      0.00
  -17   -4    5     -2.52      0.00
  -16   -4    5     -2.87      0.00
  -15   -4    5     -1.73      0.00
  -14   -4    5     -2.18      0.00
  -13   -4    5     -4.96      0.00
  -12   -4    5     -2.14      0.00
  -11   -4    5     -3.80      0.00
  -10   -4    5      2.84      0.00
   -9   -4    5      5.38      0.00
   -8   -4    5      1.05      0.00
   -7   -4    5     -2.79      0.00
   -6   -4    5      1.40      0.00
   -5   -4    5      4.37      0.00
   -4   -4    5     -7.56      0.00
   -3   -4    5     -5.30      0.00
   -2   -4    5     -0.40      0.00
   -1   -4    5     -7.21      0.00
    0   -4    5     -2.87      0.00
    1   -4    5      1.52      0.00
    2   -4    5    -10.38      0.00
    3   -4    5      0.60      0.00
    4   -4    5      9.17      0.00
    5   -4    5      1.33      0.00
    6   -4    5     -5.93      0.00
    7   -4    5     -1.04      0.00
    8   -4    5      2.97      0.00
    9   -4    5      1.17      0.00
   10   -4    5      0.65      0.00
   11   -4    5      0.20      0.00
   12   -4    5     -4.47      0.00
   13   -4    5     -5.75      0.00
   14   -4    5      0.36      0.00
   15   -4    5      2.88      0.00
   16   -4    5      2.85      0.00
  -19   -3    5     12.93      0.00
  -18   -3    5      7.47      0.00
  -17   -3    5     -1.76      0.00
  -16   -3    5     -3.88      0.00
  -15   -3    5     -0.59      0.00
  -14   -3    5      1.14      0.00
  -13   -3    5      2.99      0.00
  -12   -3    5     -0.42      0.00
  -11   -3    5      2.61      0.00
  -10   -3    5      1.94      0.00
   -9   -3    5      5.01      0.00
   -8   -3    5      5.16      0.00
   -7   -3    5      4.36      0.00
   -6   -3    5      0.15      0.00
   -5   -3    5     -7.11      0.00
   -4   -3    5     -0.48      0.00
   -3   -3    5      3.31      0.00
   -2   -3    5     -7.39      0.00
   -1   -3    5     -0.88      0.00
    0   -3    5      3.90      0.00
    1   -3    5     -3.42      0.00
    2   -3    5      3.10      0.00
    3   -3    5      3.59      0.00
    4   -3    5     -3.56      0.00
    5   -3    5      1.49      0.00
    6   -3    5      6.51      0.00
    7   -3    5      1.73      0.00
    8   -3    5     -5.37      0.00
    9   -3    5      0.07      0.00
   10   -3    5      2.69      0.00
   11   -3    5     -0.67      0.00
   12   -3    5      2.17      0.00
   14   -3    5      6.56      0.00
   15   -3    5      3.62      0.00
   16   -3    5     -0.44      0.00
   17   -3    5     -6.54      0.00
  -19   -2    5     -9.51      0.00
  -18   -2    5    -11.43      0.00
  -17   -2    5     -4.47      0.00
  -16   -2    5      1.70      0.00
  -15   -2    5      2.51      0.00
  -14   -2    5      1.73      0.00
  -13   -2    5      1.20      0.00
  -12   -2    5      2.27      0.00
  -11   -2    5     -0.81      0.00
  -10   -2    5      1.53      0.00
   -9   -2    5     -0.42      0.00
   -8   -2    5     -0.82      0.00
   -7   -2    5     -0.01      0.00
   -6   -2    5     -5.22      0.00
   -5   -2    5     -7.61      0.00
   -4   -2    5     -9.65      0.00
   -3   -2    5    -17.86      0.00
   -2   -2    5     -3.92      0.00
   -1   -2    5     -0.33      0.00
    0   -2    5     -8.01      0.00
    1   -2    5     -2.91      0.00
    2   -2    5     -0.49      0.00
    3   -2    5     -4.22      0.00
    4   -2    5     -2.69      0.00
    5   -2    5     -0.88      0.00
    6   -2    5      0.29      0.00
    7   -2    5     -0.58      0.00
    8   -2    5      4.84      0.00
    9   -2    5      0.63      0.00
   10   -2    5     -0.46      0.00
   11   -2    5      4.59      0.00
   12   -2    5      2.38      0.00
   13   -2    5     -7.48      0.00
   14   -2    5     -2.61      0.00
   15   -2    5     -0.32      0.00
   16   -2    5      0.00      0.00
   17   -2    5      6.26      0.00
   18   -2    5      6.66      0.00
  -19   -1    5     -7.03      0.00
  -18   -1    5     -1.96      0.00
  -17   -1    5     -2.00      0.00
  -16   -1    5     -0.15      0.00
  -15   -1    5      1.91      0.00
  -14   -1    5      4.96      0.00
  -13   -1    5      0.77      0.00
  -12   -1    5     -2.92      0.00
  -11   -1    5      1.88      0.00
  -10   -1    5      4.33      0.00
   -9   -1    5      3.69      0.00
   -8   -1    5      1.19      0.00
   -7   -1    5     -8.60      0.00
   -6   -1    5     -5.84      0.00
   -5   -1    5     -2.04      0.00
   -4   -1    5    -11.52      0.00
   -3   -1    5     -6.79      0.00
   -2   -1    5     -6.39      0.00
   -1   -1    5     -7.50      0.00
    0   -1    5     -0.71      0.00
    1   -1    5     -0.68      0.00
    2   -1    5     -0.58      0.00
    3   -1    5     -5.18      0.00
    4   -1    5     -1.36      0.00
    5   -1    5     -3.87      0.00
    6   -1    5    -11.52      0.00
    7   -1    5     -7.40      0.00
    8   -1    5     -9.73      0.00
    9   -1    5     -6.22      0.00
   10   -1    5     -1.16      0.00
   11   -1    5     -2.42      0.00
   12   -1    5     -2.59      0.00
   13   -1    5      3.98      0.00
   14   -1    5     -1.86      0.00
   15   -1    5     -3.76      0.00
   16   -1    5     -2.65      0.00
   17   -1    5     -1.88      0.00
   18   -1    5      0.62      0.00
  -18    0    5     -9.44      0.00
  -17    0    5     -6.30      0.00
  -16    0    5     -2.75      0.00
  -15    0    5      3.58      0.00
  -14    0    5      0.68      0.00
  -13    0    5     -0.07      0.00
  -12    0    5      0.61      0.00
  -11    0    5     -3.36      0.00
  -10    0    5     -7.51      0.00
   -9    0    5     -6.46      0.00
   -8    0    5    -11.47      0.00
   -7    0    5     -4.46      0.00
   -6    0    5     -8.34      0.00
   -5    0    5    -15.84      0.00
   -4    0    5     -2.85      0.00
   -3    0    5      6.96      0.00
   -2    0    5      0.88      0.00
   -1    0    5      0.97      0.00
    0    0    5      8.82      0.00
    1    0    5     14.22      0.00
    2    0    5     -6.67      0.00
    3    0    5      1.06      0.00
    4    0    5     -5.40      0.00
    5    0    5    -12.99      0.00
    6    0    5     -2.90      0.00
    7    0    5     -6.01      0.00
    8    0    5     -7.28      0.00
    9    0    5     -6.86      0.00
   10    0    5     -8.28      0.00
   11    0    5     -5.19      0.00
   12    0    5     -3.06      0.00
   13    0    5     -7.29      0.00
   14    0    5     -4.30      0.00
   15    0    5     -4.13      0.00
   16    0    5      0.05      0.00
   17    0    5      0.94      0.00
   18    0    5     -0.93      0.00
   19    0    5      1.30      0.00
  -18    1    5      4.77      0.00
  -17    1    5      3.59      0.00
  -16    1    5      4.02      0.00
  -15    1    5     -0.21      0.00
  -14    1    5      3.07      0.00
  -13    1    5      5.77      0.00
  -12    1    5      1.09      0.00
  -11    1    5     -0.59      0.00
  -10    1    5      1.59      0.00
   -9    1    5     -4.51      0.00
   -8    1    5     -2.17      0.00
   -7    1    5     -8.78      0.00
   -6    1    5     -6.35      0.00
   -5    1    5      0.50      0.00
   -4    1    5     -6.93      0.00
   -3    1    5    -16.70      0.00
   -2    1    5     -0.54      0.00
   -1    1    5      8.22      0.00
    0    1    5    -18.20      0.00
    1    1    5    -47.01      0.00
    2    1    5    -10.64      0.00
    3    1    5    -17.81      0.00
    4    1    5    -26.67      0.00
    5    1    5    -10.28      0.00
    6    1    5    -12.72      0.00
    7    1    5     -8.77      0.00
    8    1    5     -2.82      0.00
    9    1    5     -2.12      0.00
   10    1    5      1.47      0.00
   11    1    5      0.69      0.00
   12    1    5     -0.19      0.00
   13    1    5      0.41      0.00
   14    1    5     -0.38      0.00
   15    1    5      4.60      0.00
   16    1    5      0.40      0.00
   17    1    5     -2.00      0.00
   18    1    5     -3.42      0.00
   19    1    5    -11.09      0.00
  -18    2    5     -0.51      0.00
  -17    2    5     -1.58      0.00
  -16    2    5     -5.00      0.00
  -15    2    5     -1.00      0.00
  -14    2    5      0.16      0.00
  -13    2    5     -6.35      0.00
  -12    2    5     -5.68      0.00
  -11    2    5     -4.74      0.00
  -10    2    5     -7.63      0.00
   -9    2    5     -4.66      0.00
   -8    2    5     -5.86      0.00
   -7    2    5      1.35      0.00
   -6    2    5      3.86      0.00
   -5    2    5      0.54      0.00
   -4    2    5      4.68      0.00
   -3    2    5     13.40      0.00
   -2    2    5      4.33      0.00
   -1    2    5    -17.13      0.00
    0    2    5    -15.08      0.00
    1    2    5     -2.68      0.00
    2    2    5    -55.28      0.00
    3    2    5    -54.35      0.00
    4    2    5    -17.31      0.00
    5    2    5    -22.98      0.00
    6    2    5    -15.81      0.00
    7    2    5     -3.95      0.00
    8    2    5     -1.41      0.00
    9    2    5      0.59      0.00
   10    2    5      0.57      0.00
   11    2    5      4.61      0.00
   12    2    5      2.24      0.00
   13    2    5      0.92      0.00
   14    2    5      1.68      0.00
   15    2    5     -5.66      0.00
   16    2    5     -3.53      0.00
   17    2    5     -1.11      0.00
   18    2    5     -2.79      0.00
   19    2    5      8.79      0.00
   20    2    5      3.36      0.00
  -17    3    5      0.37      0.00
  -16    3    5      1.17      0.00
  -15    3    5     -1.01      0.00
  -14    3    5     -3.36      0.00
  -13    3    5      0.25      0.00
  -12    3    5     -1.64      0.00
  -11    3    5     -3.82      0.00
  -10    3    5     -5.53      0.00
   -9    3    5    -10.59      0.00
   -8    3    5     -9.50      0.00
   -7    3    5     -5.56      0.00
   -6    3    5      1.24      0.00
   -5    3    5      5.85      0.00
   -4    3    5      0.52      0.00
   -3    3    5      2.08      0.00
   -2    3    5      3.05      0.00
   -1    3    5      3.13      0.00
    0    3    5    -17.17      0.00
    1    3    5    -45.66      0.00
    2    3    5    -10.40      0.00
    3    3    5      4.99      0.00
    4    3    5    -27.65      0.00
    5    3    5    -14.93      0.00
    6    3    5     -1.91      0.00
    7    3    5    -10.50      0.00
    8    3    5    -16.28      0.00
    9    3    5    -10.74      0.00
   10    3    5     -0.74      0.00
   11    3    5     -2.37      0.00
   12    3    5      0.77      0.00
   13    3    5      3.24      0.00
   14    3    5     -0.93      0.00
   15    3    5      1.66      0.00
   16    3    5     -0.54      0.00
   17    3    5     -1.56      0.00
   18    3    5      7.31      0.00
   19    3    5     -1.82      0.00
   20    3    5      3.39      0.00
  -17    4    5     -9.05      0.00
  -16    4    5     -8.07      0.00
  -15    4    5     -1.69      0.00
  -14    4    5     -0.55      0.00
  -13    4    5     -4.83      0.00
  -12    4    5     -5.59      0.00
  -11    4    5     -3.60      0.00
  -10    4    5     -2.29      0.00
   -9    4    5     -1.48      0.00
   -8    4    5     -3.31      0.00
   -7    4    5     -1.78      0.00
   -6    4    5     -1.71      0.00
   -5    4    5     -6.97      0.00
   -4    4    5     -5.28      0.00
   -3    4    5    -14.74      0.00
   -2    4    5    -16.03      0.00
   -1    4    5    -11.17      0.00
    0    4    5      2.54      0.00
    1    4    5     28.92      0.00
    2    4    5     21.70      0.00
    3    4    5      4.88      0.00
    4    4    5     22.80      0.00
    5    4    5     13.58      0.00
    6    4    5     -8.02      0.00
    7    4    5     -5.28      0.00
    8    4    5      6.60      0.00
    9    4    5      4.82      0.00
   10    4    5     -6.96      0.00
   11    4    5     -5.75      0.00
   12    4    5     -5.74      0.00
   13    4    5     -8.38      0.00
   14    4    5     -3.00      0.00
   15    4    5     -1.64      0.00
   16    4    5      2.39      0.00
   17    4    5      3.76      0.00
   18    4    5     -7.97      0.00
   19    4    5     -0.97      0.00
   20    4    5     -1.44      0.00
   21    4    5     -1.92      0.00
  -16    5    5     -0.80      0.00
  -15    5    5     -6.67      0.00
  -14    5    5     -3.80      0.00
  -13    5    5     -1.03      0.00
  -12    5    5      2.28      0.00
  -11    5    5      3.83      0.00
  -10    5    5      4.40      0.00
   -9    5    5      2.30      0.00
   -8    5    5      6.04      0.00
   -7    5    5      4.92      0.00
   -6    5    5      1.21      0.00
   -5    5    5      0.63      0.00
   -4    5    5     -7.90      0.00
   -3    5    5     -8.08      0.00
   -2    5    5     -8.33      0.00
   -1    5    5    -11.76      0.00
    0    5    5    -10.02      0.00
    1    5    5    -17.11      0.00
    2    5    5    -16.93      0.00
    3    5    5     -7.23      0.00
    4    5    5    -11.81      0.00
    5    5    5     -7.90      0.00
    6    5    5     13.04      0.00
    7    5    5     16.87      0.00
    8    5    5      3.46      0.00
    9    5    5     -0.79      0.00
   10    5    5      9.13      0.00
   11    5    5      7.97      0.00
   12    5    5      5.79      0.00
   13    5    5      9.52      0.00
   14    5    5      6.64      0.00
   15    5    5      6.69      0.00
   16    5    5      4.50      0.00
   17    5    5      1.85      0.00
   18    5    5     10.31      0.00
   19    5    5      9.89      0.00
   20    5    5     12.68      0.00
   21    5    5     14.26      0.00
  -15    6    5      2.18      0.00
  -14    6    5      2.31      0.00
  -13    6    5      3.08      0.00
  -12    6    5      0.79      0.00
  -11    6    5      0.89      0.00
  -10    6    5      2.10      0.00
   -9    6    5      5.57      0.00
   -8    6    5     -0.47      0.00
   -7    6    5     -0.55      0.00
   -6    6    5      3.55      0.00
   -5    6    5     -0.56      0.00
   -4    6    5     -3.33      0.00
   -3    6    5     -3.63      0.00
   -2    6    5     -3.77      0.00
   -1    6    5      1.55      0.00
    0    6    5      0.08      0.00
    1    6    5      3.75      0.00
    2    6    5      3.41      0.00
    3    6    5      3.93      0.00
    4    6    5      5.54      0.00
    5    6    5      7.86      0.00
    6    6    5     -3.31      0.00
    7    6    5    -10.70      0.00
    8    6    5     -1.73      0.00
    9    6    5      7.81      0.00
   10    6    5      0.01      0.00
   11    6    5     -0.76      0.00
   12    6    5      2.41      0.00
   13    6    5     -0.08      0.00
   14    6    5      1.41      0.00
   15    6    5      1.99      0.00
   16    6    5      2.78      0.00
   17    6    5      2.95      0.00
   18    6    5     -2.57      0.00
   19    6    5     -0.69      0.00
   20    6    5     -0.05      0.00
   21    6    5     -7.50      0.00
  -15    7    5      2.64      0.00
  -14    7    5      6.24      0.00
  -13    7    5      5.84      0.00
  -12    7    5      4.75      0.00
  -11    7    5      3.66      0.00
  -10    7    5      2.72      0.00
   -9    7    5     -0.71      0.00
   -8    7    5      2.29      0.00
   -7    7    5      2.11      0.00
   -6    7    5     -2.64      0.00
   -5    7    5     -1.43      0.00
   -4    7    5     -0.78      0.00
   -3    7    5     -3.55      0.00
   -2    7    5      0.50      0.00
   -1    7    5      2.81      0.00
    0    7    5      7.43      0.00
    1    7    5      5.48      0.00
    2    7    5     10.25      0.00
    3    7    5      4.54      0.00
    4    7    5      1.92      0.00
    5    7    5      2.30      0.00
    6    7    5      3.46      0.00
    7    7    5      6.03      0.00
    8    7    5      2.71      0.00
    9    7    5     -9.29      0.00
   10    7    5     -3.94      0.00
   11    7    5      1.14      0.00
   12    7    5     -0.11      0.00
   13    7    5      0.72      0.00
   14    7    5      3.02      0.00
   15    7    5      4.69      0.00
   16    7    5      1.71      0.00
   17    7    5     -3.74      0.00
   18    7    5      0.54      0.00
   19    7    5      2.93      0.00
   20    7    5     -2.35      0.00
   21    7    5      2.18      0.00
  -14    8    5      4.92      0.00
  -13    8    5      3.30      0.00
  -12    8    5      5.05      0.00
  -11    8    5      5.54      0.00
  -10    8    5      4.57      0.00
   -9    8    5      1.18      0.00
   -8    8    5     -2.61      0.00
   -7    8    5     -1.04      0.00
   -6    8    5      2.48      0.00
   -5    8    5     -3.05      0.00
   -4    8    5     -5.38      0.00
   -3    8    5     -1.09      0.00
   -2    8    5     -2.77      0.00
   -1    8    5     -4.47      0.00
    0    8    5     -2.86      0.00
    1    8    5      4.74      0.00
    2    8    5     -2.13      0.00
    3    8    5     -1.48      0.00
    4    8    5      1.23      0.00
    5    8    5     -4.86      0.00
    6    8    5     -5.31      0.00
    7    8    5     -4.60      0.00
    8    8    5     -7.54      0.00
    9    8    5      3.79      0.00
   10    8    5      3.90      0.00
   11    8    5     -3.74      0.00
   12    8    5     -4.62      0.00
   13    8    5      0.56      0.00
   14    8    5      1.95      0.00
   15    8    5     -1.19      0.00
   16    8    5     -4.46      0.00
   17    8    5     -1.79      0.00
   18    8    5     -5.24      0.00
   19    8    5     -9.55      0.00
   20    8    5     -0.28      0.00
   21    8    5     -0.85      0.00
   22    8    5      2.53      0.00
  -13    9    5      4.71      0.00
  -12    9    5      0.09      0.00
  -11    9    5     -1.09      0.00
  -10    9    5     -1.73      0.00
   -9    9    5      0.67      0.00
   -8    9    5      3.20      0.00
   -7    9    5      0.04      0.00
   -6    9    5     -3.63      0.00
   -5    9    5      2.27      0.00
   -4    9    5      4.55      0.00
   -3    9    5      0.67      0.00
   -2    9    5      1.78      0.00
   -1    9    5      6.33      0.00
    0    9    5      6.21      0.00
    1    9    5     -4.91      0.00
    2    9    5     -5.34      0.00
    3    9    5     -3.06      0.00
    4    9    5     -5.12      0.00
    5    9    5      0.48      0.00
    6    9    5      1.31      0.00
    7    9    5     -2.98      0.00
    8    9    5      4.65      0.00
    9    9    5      0.99      0.00
   10    9    5     -5.83      0.00
   11    9    5     -1.61      0.00
   12    9    5      5.42      0.00
   13    9    5      6.12      0.00
   14    9    5      6.27      0.00
   15    9    5      5.26      0.00
   16    9    5      2.21      0.00
   17    9    5     -5.75      0.00
   18    9    5     -6.20      0.00
   19    9    5      0.05      0.00
   20    9    5     -9.38      0.00
   21    9    5     -6.32      0.00
   22    9    5     -0.38      0.00
  -13   10    5     -2.48      0.00
  -12   10    5      3.84      0.00
  -11   10    5      1.54      0.00
  -10   10    5     -1.91      0.00
   -9   10    5     -0.94      0.00
   -8   10    5     -0.78      0.00
   -7   10    5      1.78      0.00
   -6   10    5      2.41      0.00
   -5   10    5     -1.75      0.00
   -4   10    5     -2.10      0.00
   -3   10    5      1.11      0.00
   -2   10    5      0.20      0.00
   -1   10    5     -1.75      0.00
    0   10    5     -1.92      0.00
    1   10    5      4.73      0.00
    2   10    5      5.20      0.00
    3   10    5      0.93      0.00
    4   10    5      6.38      0.00
    5   10    5      8.57      0.00
    6   10    5      3.29      0.00
    7   10    5      5.79      0.00
    8   10    5      1.44      0.00
    9   10    5     -2.71      0.00
   10   10    5      2.93      0.00
   11   10    5      1.87      0.00
   12   10    5     -4.71      0.00
   13   10    5     -3.54      0.00
   14   10    5     -0.35      0.00
   15   10    5     -1.73      0.00
   16   10    5     -2.93      0.00
   17   10    5      4.22      0.00
   18   10    5      5.69      0.00
   19   10    5     -6.65      0.00
   20   10    5     -2.35      0.00
   21   10    5      0.78      0.00
   22   10    5     -2.75      0.00
  -12   11    5     -1.81      0.00
  -11   11    5     -1.88      0.00
  -10   11    5      2.88      0.00
   -9   11    5      1.43      0.00
   -8   11    5      0.74      0.00
   -7   11    5     -2.58      0.00
   -6   11    5     -1.45      0.00
   -5   11    5      2.52      0.00
   -4   11    5      3.30      0.00
   -3   11    5     -0.81      0.00
   -2   11    5      0.39      0.00
   -1   11    5      2.26      0.00
    0   11    5      3.28      0.00
    1   11    5      0.20      0.00
    2   11    5      0.09      0.00
    3   11    5      7.03      0.00
    4   11    5      5.27      0.00
    5   11    5     -1.22      0.00
    6   11    5      4.31      0.00
    7   11    5      4.66      0.00
    8   11    5      1.70      0.00
    9   11    5      3.81      0.00
   10   11    5     -3.53      0.00
   11   11    5     -6.11      0.00
   12   11    5      0.81      0.00
   13   11    5      2.37      0.00
   14   11    5     -4.20      0.00
   15   11    5     -4.23      0.00
   16   11    5      1.41      0.00
   17   11    5     -3.32      0.00
   18   11    5     -7.89      0.00
   19   11    5      1.08      0.00
   20   11    5      1.97      0.00
   21   11    5     -1.49      0.00
   22   11    5      3.50      0.00
  -11   12    5     -0.55      0.00
  -10   12    5     -2.23      0.00
   -9   12    5      2.85      0.00
   -8   12    5      3.45      0.00
   -7   12    5      3.85      0.00
   -6   12    5     -0.49      0.00
   -5   12    5     -2.14      0.00
   -4   12    5     -1.26      0.00
   -3   12    5      3.56      0.00
   -2   12    5      0.65      0.00
   -1   12    5     -1.09      0.00
    0   12    5      1.13      0.00
    1   12    5      3.72      0.00
    2   12    5      4.59      0.00
    3   12    5      2.06      0.00
    4   12    5      2.90      0.00
    5   12    5      6.98      0.00
    6   12    5      4.02      0.00
    7   12    5      1.94      0.00
    8   12    5      3.16      0.00
    9   12    5     -1.54      0.00
   10   12    5      0.96      0.00
   11   12    5      1.55      0.00
   12   12    5     -2.46      0.00
   13   12    5     -4.93      0.00
   14   12    5      1.77      0.00
   15   12    5      5.27      0.00
   16   12    5     -1.41      0.00
   17   12    5     -0.68      0.00
   18   12    5     -1.48      0.00
   19   12    5     -9.34      0.00
   20   12    5     -9.99      0.00
   21   12    5      0.39      0.00
   22   12    5      1.41      0.00
  -10   13    5      5.09      0.00
   -9   13    5      2.93      0.00
   -8   13    5      0.60      0.00
   -7   13    5     -6.24      0.00
   -6   13    5     -2.73      0.00
   -5   13    5      1.06      0.00
   -4   13    5      1.55      0.00
   -3   13    5     -4.39      0.00
   -2   13    5     -0.14      0.00
   -1   13    5      5.39      0.00
    0   13    5      4.61      0.00
    1   13    5      4.14      0.00
    2   13    5      7.10      0.00
    3   13    5      6.61      0.00
    4   13    5      1.58      0.00
    5   13    5      0.46      0.00
    6   13    5      1.01      0.00
    7   13    5     -0.01      0.00
    8   13    5      1.99      0.00
    9   13    5      7.03      0.00
   10   13    5      3.67      0.00
   11   13    5      2.24      0.00
   12   13    5      0.87      0.00
   13   13    5      3.77      0.00
   14   13    5      3.26      0.00
   15   13    5     -2.29      0.00
   16   13    5      2.36      0.00
   17   13    5      3.18      0.00
   18   13    5      3.79      0.00
   19   13    5      2.77      0.00
   20   13    5      1.13      0.00
   21   13    5     -1.94      0.00
   22   13    5     -0.24      0.00
   -9   14    5      3.66      0.00
   -8   14    5      0.45      0.00
   -7   14    5      6.50      0.00
   -6   14    5      4.25      0.00
   -5   14    5      0.20      0.00
   -4   14    5     -0.16      0.00
   -3   14    5      5.70      0.00
   -2   14    5      1.71      0.00
   -1   14    5     -3.34      0.00
    0   14    5     -2.42      0.00
    1   14    5      1.64      0.00
    2   14    5     -0.73      0.00
    3   14    5     -3.30      0.00
    4   14    5      0.97      0.00
    5   14    5     -0.69      0.00
    6   14    5     -3.05      0.00
    7   14    5      0.71      0.00
    8   14    5     -1.71      0.00
    9   14    5     -6.76      0.00
   10   14    5     -2.98      0.00
   11   14    5     -3.57      0.00
   12   14    5     -1.38      0.00
   13   14    5     -1.01      0.00
   14   14    5     -5.03      0.00
   15   14    5     -0.86      0.00
   16   14    5     -2.64      0.00
   17   14    5     -3.80      0.00
   18   14    5     -6.88      0.00
   19   14    5     -3.70      0.00
   20   14    5      3.60      0.00
   21   14    5      5.10      0.00
   -7   15    5      2.42      0.00
   -6   15    5      2.13      0.00
   -5   15    5      4.00      0.00
   -4   15    5      2.13      0.00
   -3   15    5     -1.18      0.00
   -2   15    5      2.59      0.00
   -1   15    5      1.84      0.00
    0   15    5      2.34      0.00
    1   15    5      1.88      0.00
    2   15    5      1.56      0.00
    3   15    5      3.68      0.00
    4   15    5     -0.39      0.00
    5   15    5     -0.32      0.00
    6   15    5      3.21      0.00
    7   15    5     -0.89      0.00
    8   15    5      0.04      0.00
    9   15    5      8.58      0.00
   10   15    5      6.42      0.00
   11   15    5      4.49      0.00
   12   15    5      5.35      0.00
   13   15    5      3.65      0.00
   14   15    5      3.76      0.00
   15   15    5     -1.95      0.00
   16   15    5      0.03      0.00
   17   15    5      2.20      0.00
   18   15    5      2.15      0.00
   19   15    5     -1.65      0.00
   20   15    5     -5.15      0.00
   21   15    5      1.47      0.00
   -6   16    5      1.78      0.00
   -5   16    5     -1.90      0.00
   -4   16    5      1.69      0.00
   -3   16    5      2.56      0.00
   -2   16    5     -3.57      0.00
   -1   16    5      2.05      0.00
    0   16    5      4.58      0.00
    1   16    5     -0.52      0.00
    2   16    5     -1.21      0.00
    3   16    5     -2.94      0.00
    4   16    5      1.27      0.00
    5   16    5      4.52      0.00
    6   16    5      0.72      0.00
    7   16    5      0.44      0.00
    8   16    5      4.70      0.00
    9   16    5     -1.22      0.00
   10   16    5     -2.37      0.00
   11   16    5      3.26      0.00
   12   16    5      2.25      0.00
   13   16    5      1.14      0.00
   14   16    5      0.58      0.00
   15   16    5      5.52      0.00
   16   16    5      5.44      0.00
   17   16    5      0.62      0.00
   18   16    5     -4.26      0.00
   19   16    5     -2.69      0.00
   20   16    5      5.00      0.00
   21   16    5      4.51      0.00
   -5   17    5     -1.62      0.00
   -4   17    5     -8.10      0.00
   -3   17    5     -9.48      0.00
   -2   17    5     -1.14      0.00
   -1   17    5     -4.26      0.00
    0   17    5     -9.09      0.00
    1   17    5     -3.47      0.00
    2   17    5     -0.58      0.00
    3   17    5      3.90      0.00
    4   17    5      4.42      0.00
    5   17    5      1.99      0.00
    6   17    5      0.64      0.00
    7   17    5      2.54      0.00
    8   17    5     -1.99      0.00
    9   17    5      0.31      0.00
   10   17    5      4.67      0.00
   11   17    5      1.65      0.00
   12   17    5      1.41      0.00
   13   17    5     -0.77      0.00
   14   17    5     -2.53      0.00
   15   17    5     -1.49      0.00
   16   17    5      0.18      0.00
   17   17    5      1.41      0.00
   18   17    5      4.96      0.00
   19   17    5      6.80      0.00
   20   17    5      2.70      0.00
   -3   18    5      1.70      0.00
   -2   18    5     -1.66      0.00
   -1   18    5      0.55      0.00
    0   18    5      4.53      0.00
    1   18    5      1.71      0.00
    2   18    5     -1.20      0.00
    3   18    5     -2.25      0.00
    4   18    5      0.88      0.00
    5   18    5      0.74      0.00
    6   18    5      0.14      0.00
    7   18    5     -4.25      0.00
    8   18    5     -3.42      0.00
    9   18    5      0.34      0.00
   10   18    5      3.38      0.00
   11   18    5      5.23      0.00
   12   18    5      0.84      0.00
   13   18    5     -1.11      0.00
   14   18    5     -0.40      0.00
   15   18    5     -2.93      0.00
   16   18    5     -3.18      0.00
   17   18    5     -2.45      0.00
   18   18    5     -6.52      0.00
   19   18    5     -8.35      0.00
   -1   19    5     -6.07      0.00
    0   19    5     -6.15      0.00
    1   19    5     -3.21      0.00
    2   19    5      4.67      0.00
    3   19    5      8.66      0.00
    4   19    5      2.53      0.00
    5   19    5      0.39      0.00
    6   19    5      0.80      0.00
    7   19    5      1.33      0.00
    8   19    5      4.65      0.00
    9   19    5      6.41      0.00
   10   19    5      2.51      0.00
   11   19    5     -1.32      0.00
   12   19    5     -0.04      0.00
   13   19    5     -1.42      0.00
   14   19    5     -3.32      0.00
   15   19    5      0.27      0.00
   16   19    5      2.08      0.00
   17   19    5      1.50      0.00
   18   19    5      5.22      0.00
    3   20    5     -8.36      0.00
    4   20    5     -2.21      0.00
    5   20    5      0.24      0.00
    6   20    5     -3.34      0.00
    7   20    5      0.30      0.00
    8   20    5      3.00      0.00
   -7  -17    6      1.44      0.00
   -6  -17    6     -0.57      0.00
   -5  -17    6     -0.43      0.00
   -4  -17    6      2.35      0.00
   -8  -16    6     -0.81      0.00
   -7  -16    6     -2.40      0.00
   -6  -16    6      0.43      0.00
   -5  -16    6      4.17      0.00
   -4  -16    6     -0.82      0.00
   -3  -16    6     -5.90      0.00
   -2  -16    6     -8.84      0.00
   -1  -16    6     -6.02      0.00
    0  -16    6     -3.52      0.00
   -8  -15    6      0.74      0.00
   -7  -15    6      0.85      0.00
   -6  -15    6      0.72      0.00
   -5  -15    6     -2.22      0.00
   -4  -15    6      0.83      0.00
   -3  -15    6      0.84      0.00
   -2  -15    6      0.50      0.00
   -1  -15    6     -0.91      0.00
    0  -15    6     -0.02      0.00
    1  -15    6     -6.02      0.00
    2  -15    6     -3.71      0.00
   -8  -14    6      0.25      0.00
   -7  -14    6      2.80      0.00
   -6  -14    6      2.90      0.00
   -5  -14    6      6.15      0.00
   -4  -14    6      2.87      0.00
   -3  -14    6      0.03      0.00
   -2  -14    6      1.98      0.00
   -1  -14    6      5.19      0.00
    0  -14    6     -1.50      0.00
    1  -14    6     -0.92      0.00
    2  -14    6      0.33      0.00
    3  -14    6      3.13      0.00
    4  -14    6      4.79      0.00
   -9  -13    6     -5.42      0.00
   -8  -13    6     -0.90      0.00
   -7  -13    6     -1.77      0.00
   -6  -13    6      2.36      0.00
   -5  -13    6      0.78      0.00
   -4  -13    6     -2.04      0.00
   -3  -13    6     -1.15      0.00
   -2  -13    6     -1.28      0.00
   -1  -13    6     -2.51      0.00
    0  -13    6      3.87      0.00
    1  -13    6      3.54      0.00
    2  -13    6     -1.11      0.00
    3  -13    6     -1.24      0.00
    4  -13    6     -4.83      0.00
    5  -13    6     -1.92      0.00
    6  -13    6     -2.86      0.00
  -17  -12    6      2.15      0.00
  -16  -12    6      4.19      0.00
  -15  -12    6      1.99      0.00
  -12  -12    6     -1.44      0.00
  -11  -12    6      6.50      0.00
  -10  -12    6      6.59      0.00
   -9  -12    6      1.45      0.00
   -8  -12    6     -0.93      0.00
   -7  -12    6      2.13      0.00
   -6  -12    6     -0.52      0.00
   -5  -12    6     -1.58      0.00
   -4  -12    6      0.80      0.00
   -3  -12    6     -2.16      0.00
   -2  -12    6     -3.30      0.00
   -1  -12    6     -1.06      0.00
    0  -12    6     -3.17      0.00
    1  -12    6     -3.76      0.00
    2  -12    6      4.03      0.00
    3  -12    6      3.76      0.00
    4  -12    6      3.30      0.00
    5  -12    6     -0.82      0.00
    6  -12    6     -3.25      0.00
    7  -12    6     -2.93      0.00
    8  -12    6     -3.90      0.00
  -18  -11    6      5.34      0.00
  -17  -11    6     -2.44      0.00
  -16  -11    6     -4.83      0.00
  -15  -11    6     -4.24      0.00
  -14  -11    6     -4.99      0.00
  -13  -11    6     -0.32      0.00
  -12  -11    6      5.23      0.00
  -11  -11    6     -1.83      0.00
  -10  -11    6     -5.26      0.00
   -9  -11    6     -2.17      0.00
   -8  -11    6      2.41      0.00
   -7  -11    6      2.64      0.00
   -6  -11    6      1.07      0.00
   -5  -11    6     -0.96      0.00
   -4  -11    6     -6.04      0.00
   -3  -11    6     -3.67      0.00
   -2  -11    6      1.10      0.00
   -1  -11    6      2.62      0.00
    0  -11    6      2.17      0.00
    1  -11    6      5.34      0.00
    2  -11    6      1.64      0.00
    3  -11    6      1.04      0.00
    4  -11    6      2.51      0.00
    5  -11    6      1.90      0.00
    6  -11    6      0.87      0.00
    7  -11    6     -2.92      0.00
    8  -11    6     -2.66      0.00
    9  -11    6     -4.19      0.00
  -19  -10    6      5.36      0.00
  -18  -10    6      5.00      0.00
  -17  -10    6      8.75      0.00
  -16  -10    6      4.54      0.00
  -15  -10    6     -2.53      0.00
  -14  -10    6     -0.23      0.00
  -13  -10    6      2.82      0.00
  -12  -10    6      2.12      0.00
  -11  -10    6      2.36      0.00
  -10  -10    6      1.13      0.00
   -9  -10    6      1.04      0.00
   -8  -10    6     -2.04      0.00
   -7  -10    6     -6.03      0.00
   -6  -10    6     -3.82      0.00
   -5  -10    6     -1.88      0.00
   -4  -10    6      1.35      0.00
   -3  -10    6      0.91      0.00
   -2  -10    6     -2.41      0.00
   -1  -10    6     -2.53      0.00
    0  -10    6      2.90      0.00
    1  -10    6      0.59      0.00
    2  -10    6     -2.62      0.00
    3  -10    6     -1.65      0.00
    4  -10    6     -2.19      0.00
    5  -10    6      0.29      0.00
    6  -10    6      1.37      0.00
    7  -10    6      2.50      0.00
    8  -10    6     -1.39      0.00
    9  -10    6     -1.71      0.00
   10  -10    6     -0.35      0.00
  -19   -9    6     -1.09      0.00
  -18   -9    6      1.64      0.00
  -17   -9    6      2.65      0.00
  -16   -9    6      1.26      0.00
  -15   -9    6      0.65      0.00
  -14   -9    6     -1.32      0.00
  -13   -9    6      0.97      0.00
  -12   -9    6      0.87      0.00
  -11   -9    6      0.51      0.00
  -10   -9    6      0.97      0.00
   -9   -9    6     -2.72      0.00
   -8   -9    6     -3.75      0.00
   -7   -9    6      0.82      0.00
   -6   -9    6      0.21      0.00
   -5   -9    6      0.26      0.00
   -4   -9    6      0.75      0.00
   -3   -9    6     -1.01      0.00
   -2   -9    6     -0.62      0.00
   -1   -9    6     -0.57      0.00
    0   -9    6     -5.55      0.00
    1   -9    6     -3.66      0.00
    2   -9    6      2.45      0.00
    3   -9    6     -0.27      0.00
    4   -9    6     -2.80      0.00
    5   -9    6     -2.15      0.00
    6   -9    6     -1.25      0.00
    7   -9    6     -2.24      0.00
    8   -9    6      1.41      0.00
    9   -9    6      3.57      0.00
   10   -9    6     -2.20      0.00
   11   -9    6      2.12      0.00
   12   -9    6      2.56      0.00
  -19   -8    6      5.37      0.00
  -18   -8    6      4.55      0.00
  -17   -8    6      0.66      0.00
  -16   -8    6      1.63      0.00
  -15   -8    6      4.12      0.00
  -14   -8    6      5.15      0.00
  -13   -8    6     -0.86      0.00
  -12   -8    6     -2.80      0.00
  -11   -8    6     -2.64      0.00
  -10   -8    6     -2.70      0.00
   -9   -8    6     -0.18      0.00
   -8   -8    6      1.38      0.00
   -7   -8    6     -4.97      0.00
   -6   -8    6     -6.56      0.00
   -5   -8    6     -1.39      0.00
   -4   -8    6      1.91      0.00
   -3   -8    6      2.72      0.00
   -2   -8    6     -0.02      0.00
   -1   -8    6     -1.47      0.00
    0   -8    6      3.70      0.00
    1   -8    6      1.43      0.00
    2   -8    6     -6.40      0.00
    3   -8    6     -4.89      0.00
    4   -8    6      4.21      0.00
    5   -8    6      4.36      0.00
    6   -8    6      0.38      0.00
    7   -8    6     -0.99      0.00
    8   -8    6     -4.81      0.00
    9   -8    6    -10.78      0.00
   10   -8    6     -4.42      0.00
   11   -8    6     -5.24      0.00
   12   -8    6     -8.41      0.00
   13   -8    6     -5.79      0.00
  -19   -7    6     -1.82      0.00
  -18   -7    6     -1.30      0.00
  -17   -7    6      5.52      0.00
  -16   -7    6      7.82      0.00
  -15   -7    6      2.91      0.00
  -14   -7    6     -2.91      0.00
  -13   -7    6     -2.12      0.00
  -12   -7    6      0.14      0.00
  -11   -7    6     -0.75      0.00
  -10   -7    6     -2.46      0.00
   -9   -7    6     -1.01      0.00
   -8   -7    6     -4.04      0.00
   -7   -7    6     -2.80      0.00
   -6   -7    6      0.35      0.00
   -5   -7    6     -3.45      0.00
   -4   -7    6     -5.91      0.00
   -3   -7    6     -2.06      0.00
   -2   -7    6      2.33      0.00
   -1   -7    6      3.07      0.00
    0   -7    6     -2.38      0.00
    1   -7    6     -0.17      0.00
    2   -7    6      2.95      0.00
    3   -7    6      3.49      0.00
    4   -7    6     -3.49      0.00
    5   -7    6     -3.68      0.00
    6   -7    6      0.02      0.00
    7   -7    6     -1.81      0.00
    8   -7    6     -3.59      0.00
    9   -7    6      2.86      0.00
   10   -7    6      3.93      0.00
   11   -7    6      4.52      0.00
   12   -7    6      5.14      0.00
   13   -7    6      2.24      0.00
   14   -7    6      0.41      0.00
  -19   -6    6     -7.15      0.00
  -18   -6    6     -3.89      0.00
  -17   -6    6     -1.86      0.00
  -16   -6    6     -1.41      0.00
  -15   -6    6      0.61      0.00
  -14   -6    6      1.07      0.00
  -13   -6    6      1.54      0.00
  -12   -6    6     -2.19      0.00
  -11   -6    6     -2.25      0.00
  -10   -6    6      3.02      0.00
   -9   -6    6     -1.00      0.00
   -8   -6    6     -0.18      0.00
   -7   -6    6      3.26      0.00
   -6   -6    6      1.95      0.00
   -5   -6    6      4.68      0.00
   -4   -6    6      8.52      0.00
   -3   -6    6      3.31      0.00
   -2   -6    6     -2.95      0.00
   -1   -6    6     -2.36      0.00
    0   -6    6      0.75      0.00
    1   -6    6     -6.96      0.00
    2   -6    6     -6.59      0.00
    3   -6    6     -2.50      0.00
    4   -6    6      1.45      0.00
    5   -6    6      3.01      0.00
    6   -6    6     -0.91      0.00
    7   -6    6     -0.54      0.00
    8   -6    6      1.70      0.00
    9   -6    6     -0.71      0.00
   10   -6    6     -4.66      0.00
   11   -6    6     -4.04      0.00
   12   -6    6     -0.72      0.00
   13   -6    6      2.29      0.00
   14   -6    6      0.54      0.00
  -19   -5    6     13.84      0.00
  -18   -5    6     10.59      0.00
  -17   -5    6      8.42      0.00
  -16   -5    6      6.22      0.00
  -15   -5    6      1.76      0.00
  -14   -5    6      4.14      0.00
  -13   -5    6      4.55      0.00
  -12   -5    6      6.34      0.00
  -11   -5    6      4.19      0.00
  -10   -5    6     -5.38      0.00
   -9   -5    6      0.27      0.00
   -8   -5    6      6.18      0.00
   -7   -5    6      2.49      0.00
   -6   -5    6      0.17      0.00
   -5   -5    6      1.16      0.00
   -4   -5    6     -0.98      0.00
   -3   -5    6     -1.81      0.00
   -2   -5    6      2.35      0.00
   -1   -5    6     -0.66      0.00
    0   -5    6     -4.44      0.00
    1   -5    6      5.05      0.00
    2   -5    6      4.56      0.00
    3   -5    6     -4.26      0.00
    4   -5    6     -0.91      0.00
    5   -5    6     -2.37      0.00
    6   -5    6     -3.35      0.00
    7   -5    6     -5.08      0.00
    8   -5    6     -3.47      0.00
    9   -5    6     -2.19      0.00
   10   -5    6      3.30      0.00
   11   -5    6      5.23      0.00
   12   -5    6      3.60      0.00
   13   -5    6      1.30      0.00
   14   -5    6      3.58      0.00
   15   -5    6      0.10      0.00
  -19   -4    6     -3.13      0.00
  -18   -4    6      1.26      0.00
  -17   -4    6     -1.13      0.00
  -16   -4    6     -3.09      0.00
  -15   -4    6      1.67      0.00
  -14   -4    6      1.90      0.00
  -13   -4    6      1.57      0.00
  -12   -4    6      0.80      0.00
  -11   -4    6     -0.76      0.00
  -10   -4    6      5.68      0.00
   -9   -4    6      0.89      0.00
   -8   -4    6     -5.88      0.00
   -7   -4    6     -4.69      0.00
   -6   -4    6      0.14      0.00
   -5   -4    6     -2.19      0.00
   -4   -4    6     -2.97      0.00
   -3   -4    6      4.18      0.00
   -2   -4    6      0.33      0.00
   -1   -4    6     -0.97      0.00
    0   -4    6      3.87      0.00
    1   -4    6     -1.65      0.00
    2   -4    6     -2.64      0.00
    3   -4    6     10.87      0.00
    4   -4    6      2.44      0.00
    5   -4    6     -4.13      0.00
    6   -4    6     -2.48      0.00
    7   -4    6      2.93      0.00
    8   -4    6      0.22      0.00
    9   -4    6     -0.19      0.00
   10   -4    6     -0.02      0.00
   11   -4    6      0.50      0.00
   12   -4    6     -2.03      0.00
   13   -4    6     -3.66      0.00
   14   -4    6     -6.32      0.00
   15   -4    6     -3.89      0.00
   16   -4    6      2.89      0.00
  -19   -3    6     -0.15      0.00
  -18   -3    6     -6.34      0.00
  -17   -3    6     -1.87      0.00
  -16   -3    6      3.99      0.00
  -15   -3    6      3.47      0.00
  -14   -3    6      1.01      0.00
  -13   -3    6      0.01      0.00
  -12   -3    6     -3.60      0.00
  -11   -3    6     -1.44      0.00
  -10   -3    6     -2.23      0.00
   -9   -3    6      3.91      0.00
   -8   -3    6      4.66      0.00
   -7   -3    6      2.26      0.00
   -6   -3    6     -2.32      0.00
   -5   -3    6      2.20      0.00
   -4   -3    6      7.45      0.00
   -3   -3    6     -3.14      0.00
   -2   -3    6     -5.93      0.00
   -1   -3    6      0.73      0.00
    0   -3    6     -2.84      0.00
    1   -3    6     -2.29      0.00
    2   -3    6      5.05      0.00
    3   -3    6     -4.64      0.00
    4   -3    6     -2.46      0.00
    5   -3    6      3.27      0.00
    6   -3    6      1.19      0.00
    7   -3    6     -5.48      0.00
    8   -3    6     -3.77      0.00
    9   -3    6      0.23      0.00
   10   -3    6      0.57      0.00
   11   -3    6      2.27      0.00
   12   -3    6      7.69      0.00
   13   -3    6      4.38      0.00
   14   -3    6     -2.76      0.00
   15   -3    6     -1.81      0.00
   16   -3    6     -3.83      0.00
   17   -3    6     -3.14      0.00
  -19   -2    6     -0.41      0.00
  -18   -2    6      7.34      0.00
  -17   -2    6      5.98      0.00
  -16   -2    6      0.82      0.00
  -15   -2    6     -2.02      0.00
  -14   -2    6     -0.08      0.00
  -13   -2    6     -2.58      0.00
  -12   -2    6     -2.42      0.00
  -11   -2    6     -3.83      0.00
  -10   -2    6      0.29      0.00
   -9   -2    6     -3.65      0.00
   -8   -2    6     -1.65      0.00
   -7   -2    6     -2.82      0.00
   -6   -2    6     -2.86      0.00
   -5   -2    6     -1.60      0.00
   -4   -2    6     -0.71      0.00
   -3   -2    6      6.06      0.00
   -2   -2    6     12.54      0.00
   -1   -2    6      2.45      0.00
    0   -2    6      2.69      0.00
    1   -2    6      8.26      0.00
    2   -2    6      1.08      0.00
    3   -2    6      0.47      0.00
    4   -2    6      0.12      0.00
    5   -2    6     -5.20      0.00
    6   -2    6     -6.94      0.00
    7   -2    6     -2.39      0.00
    8   -2    6      2.10      0.00
    9   -2    6     -0.88      0.00
   10   -2    6      1.76      0.00
   11   -2    6      3.01      0.00
   12   -2    6     -3.55      0.00
   13   -2    6     -3.56      0.00
   14   -2    6      5.30      0.00
   15   -2    6      3.37      0.00
   16   -2    6      4.20      0.00
   17   -2    6      2.88      0.00
   18   -2    6     -4.04      0.00
  -19   -1    6      6.71      0.00
  -18   -1    6      0.52      0.00
  -17   -1    6     -6.07      0.00
  -16   -1    6     -6.27      0.00
  -15   -1    6     -1.70      0.00
  -14   -1    6     -1.21      0.00
  -13   -1    6     -0.67      0.00
  -12   -1    6      0.70      0.00
  -11   -1    6      3.12      0.00
  -10   -1    6     -3.67      0.00
   -9   -1    6     -3.18      0.00
   -8   -1    6     -6.72      0.00
   -7   -1    6     -6.67      0.00
   -6   -1    6      1.38      0.00
   -5   -1    6      2.63      0.00
   -4   -1    6     -1.84      0.00
   -3   -1    6      0.27      0.00
   -2   -1    6     -3.46      0.00
   -1   -1    6      3.50      0.00
    0   -1    6      5.31      0.00
    1   -1    6     -1.90      0.00
    2   -1    6     -1.45      0.00
    3   -1    6      0.35      0.00
    4   -1    6     -3.01      0.00
    5   -1    6     -8.39      0.00
    6   -1    6     -7.03      0.00
    7   -1    6     -1.27      0.00
    8   -1    6     -3.49      0.00
    9   -1    6      2.59      0.00
   10   -1    6      2.23      0.00
   11   -1    6     -0.87      0.00
   12   -1    6      1.22      0.00
   13   -1    6      1.42      0.00
   14   -1    6     -5.64      0.00
   15   -1    6     -1.36      0.00
   16   -1    6     -3.15      0.00
   17   -1    6     -4.99      0.00
   18   -1    6     -2.11      0.00
  -18    0    6     -3.77      0.00
  -17    0    6      1.36      0.00
  -16    0    6      3.74      0.00
  -15    0    6      1.41      0.00
  -14    0    6     -2.45      0.00
  -13    0    6      0.94      0.00
  -12    0    6      2.33      0.00
  -11    0    6     -2.34      0.00
  -10    0    6      0.63      0.00
   -9    0    6      0.26      0.00
   -8    0    6     -1.17      0.00
   -7    0    6      2.86      0.00
   -6    0    6     -1.86      0.00
   -5    0    6      3.72      0.00
   -4    0    6     16.69      0.00
   -3    0    6      9.80      0.00
   -2    0    6      1.89      0.00
   -1    0    6      0.42      0.00
    0    0    6     -1.00      0.00
    1    0    6     -6.83      0.00
    2    0    6    -12.46      0.00
    3    0    6     -7.68      0.00
    4    0    6     -7.65      0.00
    5    0    6      1.24      0.00
    6    0    6      6.73      0.00
    7    0    6      1.46      0.00
    8    0    6      8.70      0.00
    9    0    6      5.44      0.00
   10    0    6      0.72      0.00
   11    0    6      0.72      0.00
   12    0    6      1.11      0.00
   13    0    6      0.42      0.00
   14    0    6      3.82      0.00
   15    0    6     -2.19      0.00
   16    0    6     -0.86      0.00
   17    0    6     -4.06      0.00
   18    0    6     -3.53      0.00
   19    0    6     -0.21      0.00
  -18    1    6      3.59      0.00
  -17    1    6     -1.35      0.00
  -16    1    6     -4.62      0.00
  -15    1    6     -6.18      0.00
  -14    1    6      1.34      0.00
  -13    1    6     -0.30      0.00
  -12    1    6     -5.16      0.00
  -11    1    6     -2.07      0.00
  -10    1    6     -2.12      0.00
   -9    1    6     -3.90      0.00
   -8    1    6      1.38      0.00
   -7    1    6     -0.46      0.00
   -6    1    6     11.47      0.00
   -5    1    6     14.75      0.00
   -4    1    6      1.53      0.00
   -3    1    6     -1.18      0.00
   -2    1    6     10.03      0.00
   -1    1    6      4.05      0.00
    0    1    6    -12.71      0.00
    1    1    6    -11.02      0.00
    2    1    6     -0.35      0.00
    3    1    6    -13.64      0.00
    4    1    6     -4.04      0.00
    5    1    6     -2.13      0.00
    6    1    6    -12.30      0.00
    7    1    6     -3.15      0.00
    8    1    6     -0.07      0.00
    9    1    6      2.74      0.00
   10    1    6      4.02      0.00
   11    1    6      1.45      0.00
   12    1    6      0.91      0.00
   13    1    6      2.42      0.00
   14    1    6      1.80      0.00
   15    1    6      6.29      0.00
   16    1    6     -1.85      0.00
   17    1    6      0.70      0.00
   18    1    6      0.94      0.00
   19    1    6     -0.53      0.00
  -17    2    6      0.08      0.00
  -16    2    6      3.02      0.00
  -15    2    6      9.07      0.00
  -14    2    6      3.15      0.00
  -13    2    6      0.04      0.00
  -12    2    6      3.33      0.00
  -11    2    6     -0.47      0.00
  -10    2    6     -2.07      0.00
   -9    2    6      1.92      0.00
   -8    2    6     -2.17      0.00
   -7    2    6      3.14      0.00
   -6    2    6      2.86      0.00
   -5    2    6      4.61      0.00
   -4    2    6     10.49      0.00
   -3    2    6     11.37      0.00
   -2    2    6     -0.31      0.00
   -1    2    6      4.65      0.00
    0    2    6     27.67      0.00
    1    2    6     22.26      0.00
    2    2    6      0.55      0.00
    3    2    6     27.16      0.00
    4    2    6     25.85      0.00
    5    2    6      6.74      0.00
    6    2    6     14.34      0.00
    7    2    6     11.46      0.00
    8    2    6      3.93      0.00
    9    2    6     -0.96      0.00
   10    2    6     -4.09      0.00
   11    2    6     -4.48      0.00
   12    2    6     -8.13      0.00
   13    2    6     -6.32      0.00
   14    2    6     -0.95      0.00
   15    2    6     -3.21      0.00
   16    2    6      4.46      0.00
   17    2    6      0.86      0.00
   18    2    6      0.93      0.00
   19    2    6      6.13      0.00
   20    2    6     -2.90      0.00
  -17    3    6      3.76      0.00
  -16    3    6      2.70      0.00
  -15    3    6     -4.01      0.00
  -14    3    6     -2.82      0.00
  -13    3    6      0.89      0.00
  -12    3    6     -2.86      0.00
  -11    3    6      0.53      0.00
  -10    3    6      4.77      0.00
   -9    3    6      3.99      0.00
   -8    3    6      5.95      0.00
   -7    3    6      4.11      0.00
   -6    3    6      2.80      0.00
   -5    3    6     -2.48      0.00
   -4    3    6     -9.44      0.00
   -3    3    6    -10.76      0.00
   -2    3    6     -3.83      0.00
   -1    3    6      1.95      0.00
    0    3    6    -14.84      0.00
    1    3    6    -11.08      0.00
    2    3    6     19.10      0.00
    3    3    6      2.94      0.00
    4    3    6     -2.12      0.00
    5    3    6     25.69      0.00
    6    3    6     19.76      0.00
    7    3    6      8.28      0.00
    8    3    6     10.19      0.00
    9    3    6     11.27      0.00
   10    3    6      7.94      0.00
   11    3    6      2.24      0.00
   12    3    6      5.16      0.00
   13    3    6      2.80      0.00
   14    3    6     -0.35      0.00
   15    3    6      5.82      0.00
   16    3    6      2.05      0.00
   17    3    6      4.69      0.00
   18    3    6      4.81      0.00
   19    3    6     -6.67      0.00
   20    3    6      0.99      0.00
  -16    4    6     -0.73      0.00
  -15    4    6     -1.11      0.00
  -14    4    6     -1.11      0.00
  -13    4    6     -0.17      0.00
  -12    4    6      5.16      0.00
  -11    4    6      5.71      0.00
  -10    4    6      7.29      0.00
   -9    4    6      9.85      0.00
   -8    4    6     10.03      0.00
   -7    4    6      6.92      0.00
   -6    4    6      3.07      0.00
   -5    4    6      3.07      0.00
   -4    4    6      4.29      0.00
   -3    4    6     -2.85      0.00
   -2    4    6     -2.33      0.00
   -1    4    6     -8.90      0.00
    0    4    6     -2.60      0.00
    1    4    6     -2.00      0.00
    2    4    6    -16.91      0.00
    3    4    6      4.56      0.00
    4    4    6     33.06      0.00
    5    4    6     15.10      0.00
    6    4    6      8.33      0.00
    7    4    6     15.70      0.00
    8    4    6     10.60      0.00
    9    4    6      2.87      0.00
   10    4    6      3.44      0.00
   11    4    6      8.17      0.00
   12    4    6      0.89      0.00
   13    4    6     -0.83      0.00
   14    4    6      2.07      0.00
   15    4    6     -3.52      0.00
   16    4    6     -2.74      0.00
   17    4    6     -5.44      0.00
   18    4    6     -9.35      0.00
   19    4    6      0.60      0.00
   20    4    6     -4.42      0.00
  -16    5    6     -9.26      0.00
  -15    5    6     -7.40      0.00
  -14    5    6     -0.64      0.00
  -13    5    6      0.69      0.00
  -12    5    6     -0.99      0.00
  -11    5    6     -1.61      0.00
  -10    5    6     -1.65      0.00
   -9    5    6      0.28      0.00
   -8    5    6      1.71      0.00
   -7    5    6      0.95      0.00
   -6    5    6      1.38      0.00
   -5    5    6     -0.47      0.00
   -4    5    6     -5.28      0.00
   -3    5    6      3.16      0.00
   -2    5    6      1.68      0.00
   -1    5    6      6.48      0.00
    0    5    6      8.86      0.00
    1    5    6      9.06      0.00
    2    5    6     20.97      0.00
    3    5    6     21.56      0.00
    4    5    6      6.09      0.00
    5    5    6     14.14      0.00
    6    5    6     17.89      0.00
    7    5    6      1.90      0.00
    8    5    6     -3.76      0.00
    9    5    6      7.13      0.00
   10    5    6     11.67      0.00
   11    5    6      1.78      0.00
   12    5    6     -0.05      0.00
   13    5    6     -0.30      0.00
   14    5    6     -3.77      0.00
   15    5    6     -0.54      0.00
   16    5    6      0.75      0.00
   17    5    6      5.93      0.00
   18    5    6     10.04      0.00
   19    5    6     -1.24      0.00
   20    5    6      1.90      0.00
   21    5    6      1.72      0.00
  -15    6    6      0.84      0.00
  -14    6    6     -1.56      0.00
  -13    6    6      2.75      0.00
  -12    6    6      1.14      0.00
  -11    6    6     -0.97      0.00
  -10    6    6     -1.90      0.00
   -9    6    6     -2.24      0.00
   -8    6    6     -3.99      0.00
   -7    6    6      0.11      0.00
   -6    6    6      0.55      0.00
   -5    6    6     -0.15      0.00
   -4    6    6      4.90      0.00
   -3    6    6      1.57      0.00
   -2    6    6      5.69      0.00
   -1    6    6     10.59      0.00
    0    6    6      7.74      0.00
    1    6    6      4.91      0.00
    2    6    6     -2.09      0.00
    3    6    6     -5.10      0.00
    4    6    6     -1.61      0.00
    5    6    6     -6.24      0.00
    6    6    6    -13.31      0.00
    7    6    6     -4.77      0.00
    8    6    6      5.90      0.00
    9    6    6     -1.28      0.00
   10    6    6    -11.52      0.00
   11    6    6     -5.45      0.00
   12    6    6     -1.64      0.00
   13    6    6     -1.70      0.00
   14    6    6     -0.36      0.00
   15    6    6     -3.09      0.00
   16    6    6     -0.80      0.00
   17    6    6     -0.09      0.00
   18    6    6     -2.33      0.00
   19    6    6      3.96      0.00
   20    6    6      1.57      0.00
   21    6    6      0.81      0.00
  -15    7    6     -5.04      0.00
  -14    7    6     -3.01      0.00
  -13    7    6     -5.51      0.00
  -12    7    6     -2.18      0.00
  -11    7    6     -0.87      0.00
  -10    7    6     -1.60      0.00
   -9    7    6     -3.43      0.00
   -8    7    6     -2.81      0.00
   -7    7    6     -8.15      0.00
   -6    7    6     -6.82      0.00
   -5    7    6      0.60      0.00
   -4    7    6      0.26      0.00
   -3    7    6      0.70      0.00
   -2    7    6      2.29      0.00
   -1    7    6     -0.48      0.00
    0    7    6      2.54      0.00
    1    7    6      6.17      0.00
    2    7    6     10.23      0.00
    3    7    6      6.06      0.00
    4    7    6      5.71      0.00
    5    7    6      3.38      0.00
    6    7    6      1.22      0.00
    7    7    6      1.14      0.00
    8    7    6     -1.22      0.00
    9    7    6      3.61      0.00
   10    7    6     12.58      0.00
   11    7    6      4.70      0.00
   12    7    6     -1.39      0.00
   13    7    6     -0.79      0.00
   14    7    6     -2.52      0.00
   15    7    6     -1.69      0.00
   16    7    6     -1.66      0.00
   17    7    6     -2.11      0.00
   18    7    6     -2.35      0.00
   19    7    6     -7.96      0.00
   20    7    6     -4.77      0.00
   21    7    6      2.53      0.00
  -14    8    6     -2.09      0.00
  -13    8    6      0.63      0.00
  -12    8    6      1.86      0.00
  -11    8    6      1.38      0.00
  -10    8    6      1.27      0.00
   -9    8    6      0.04      0.00
   -8    8    6     -0.56      0.00
   -7    8    6      4.65      0.00
   -6    8    6      6.10      0.00
   -5    8    6      1.10      0.00
   -4    8    6      1.94      0.00
   -3    8    6      3.29      0.00
   -2    8    6     -1.76      0.00
   -1    8    6     -1.24      0.00
    0    8    6      0.27      0.00
    1    8    6     -1.51      0.00
    2    8    6     -7.58      0.00
    3    8    6     -2.57      0.00
    4    8    6     -7.42      0.00
    5    8    6    -10.75      0.00
    6    8    6     -2.25      0.00
    7    8    6      0.13      0.00
    8    8    6      1.11      0.00
    9    8    6      3.14      0.00
   10    8    6     -5.64      0.00
   11    8    6     -3.73      0.00
   12    8    6      0.59      0.00
   13    8    6     -1.11      0.00
   14    8    6     -0.99      0.00
   15    8    6      1.39      0.00
   16    8    6      2.47      0.00
   17    8    6      2.72      0.00
   18    8    6      1.66      0.00
   19    8    6      8.37      0.00
   20    8    6     10.12      0.00
   21    8    6     -4.45      0.00
   22    8    6     -3.71      0.00
  -13    9    6      1.06      0.00
  -12    9    6     -4.04      0.00
  -11    9    6     -2.09      0.00
  -10    9    6     -1.45      0.00
   -9    9    6      1.03      0.00
   -8    9    6     -0.76      0.00
   -7    9    6     -4.91      0.00
   -6    9    6     -2.40      0.00
   -5    9    6      5.14      0.00
   -4    9    6      3.07      0.00
   -3    9    6     -2.61      0.00
   -2    9    6      0.87      0.00
   -1    9    6      4.10      0.00
    0    9    6      0.04      0.00
    1    9    6     -2.50      0.00
    2    9    6      4.29      0.00
    3    9    6     -0.26      0.00
    4    9    6     -1.57      0.00
    5    9    6      2.77      0.00
    6    9    6     -3.57      0.00
    7    9    6     -5.24      0.00
    8    9    6     -0.37      0.00
    9    9    6     -4.92      0.00
   10    9    6     -0.80      0.00
   11    9    6      1.18      0.00
   12    9    6     -4.02      0.00
   13    9    6     -5.85      0.00
   14    9    6     -2.24      0.00
   15    9    6      0.42      0.00
   16    9    6      3.23      0.00
   17    9    6      4.46      0.00
   18    9    6      7.67      0.00
   19    9    6      0.03      0.00
   20    9    6    -15.61      0.00
   21    9    6     -9.94      0.00
   22    9    6     -9.12      0.00
  -13   10    6     -6.81      0.00
  -12   10    6      0.13      0.00
  -11   10    6     -0.81      0.00
  -10   10    6      2.50      0.00
   -9   10    6      1.38      0.00
   -8   10    6      0.03      0.00
   -7   10    6      2.12      0.00
   -6   10    6      0.62      0.00
   -5   10    6     -4.31      0.00
   -4   10    6     -2.98      0.00
   -3   10    6      2.01      0.00
   -2   10    6      0.62      0.00
   -1   10    6     -4.56      0.00
    0   10    6     -1.93      0.00
    1   10    6      4.60      0.00
    2   10    6     -0.75      0.00
    3   10    6     -3.06      0.00
    4   10    6     -0.75      0.00
    5   10    6     -5.12      0.00
    6   10    6     -3.21      0.00
    7   10    6      3.02      0.00
    8   10    6     -1.32      0.00
    9   10    6      2.64      0.00
   10   10    6      4.31      0.00
   11   10    6     -3.08      0.00
   12   10    6     -3.38      0.00
   13   10    6      2.81      0.00
   14   10    6      3.89      0.00
   15   10    6      2.93      0.00
   16   10    6      3.51      0.00
   17   10    6      6.10      0.00
   18   10    6      1.35      0.00
   19   10    6     -1.91      0.00
   20   10    6      5.83      0.00
   21   10    6     -2.23      0.00
   22   10    6     -2.22      0.00
  -12   11    6      2.54      0.00
  -11   11    6      9.54      0.00
  -10   11    6      5.87      0.00
   -9   11    6      1.28      0.00
   -8   11    6      4.66      0.00
   -7   11    6      7.50      0.00
   -6   11    6      7.88      0.00
   -5   11    6      4.75      0.00
   -4   11    6      0.66      0.00
   -3   11    6     -1.10      0.00
   -2   11    6      0.55      0.00
   -1   11    6      2.79      0.00
    0   11    6      3.68      0.00
    1   11    6      1.40      0.00
    2   11    6      3.84      0.00
    3   11    6      3.38      0.00
    4   11    6     -4.42      0.00
    5   11    6     -1.44      0.00
    6   11    6      4.34      0.00
    7   11    6     -3.38      0.00
    8   11    6     -2.01      0.00
    9   11    6     -0.32      0.00
   10   11    6     -5.46      0.00
   11   11    6     -0.72      0.00
   12   11    6      1.92      0.00
   13   11    6     -3.37      0.00
   14   11    6     -4.48      0.00
   15   11    6      0.38      0.00
   16   11    6     -0.18      0.00
   17   11    6     -5.05      0.00
   18   11    6      0.12      0.00
   19   11    6      5.35      0.00
   20   11    6     -4.85      0.00
   21   11    6     -3.65      0.00
   22   11    6      0.65      0.00
  -11   12    6     -9.26      0.00
  -10   12    6     -8.91      0.00
   -9   12    6     -2.54      0.00
   -8   12    6     -0.59      0.00
   -7   12    6     -1.65      0.00
   -6   12    6     -5.15      0.00
   -5   12    6     -4.59      0.00
   -4   12    6     -2.38      0.00
   -3   12    6     -2.78      0.00
   -2   12    6     -6.58      0.00
   -1   12    6     -3.66      0.00
    0   12    6     -1.15      0.00
    1   12    6     -2.32      0.00
    2   12    6     -5.62      0.00
    3   12    6     -5.08      0.00
    4   12    6      2.71      0.00
    5   12    6      0.85      0.00
    6   12    6     -9.10      0.00
    7   12    6     -5.19      0.00
    8   12    6     -1.25      0.00
    9   12    6     -1.40      0.00
   10   12    6      4.29      0.00
   11   12    6      0.66      0.00
   12   12    6     -2.35      0.00
   13   12    6      2.21      0.00
   14   12    6      7.84      0.00
   15   12    6      1.58      0.00
   16   12    6     -3.10      0.00
   17   12    6      2.43      0.00
   18   12    6      1.67      0.00
   19   12    6      0.06      0.00
   20   12    6      7.18      0.00
   21   12    6      8.25      0.00
   22   12    6      1.50      0.00
  -10   13    6     -3.01      0.00
   -9   13    6     -2.96      0.00
   -8   13    6      1.10      0.00
   -7   13    6      3.77      0.00
   -6   13    6      6.17      0.00
   -5   13    6      2.61      0.00
   -4   13    6     -0.83      0.00
   -3   13    6     -0.90      0.00
   -2   13    6      6.17      0.00
   -1   13    6      3.22      0.00
    0   13    6     -1.61      0.00
    1   13    6      0.78      0.00
    2   13    6      3.42      0.00
    3   13    6      0.09      0.00
    4   13    6     -6.58      0.00
    5   13    6     -7.65      0.00
    6   13    6     -4.52      0.00
    7   13    6     -4.14      0.00
    8   13    6     -4.14      0.00
    9   13    6     -4.50      0.00
   10   13    6     -8.86      0.00
   11   13    6     -5.04      0.00
   12   13    6     -2.52      0.00
   13   13    6      0.22      0.00
   14   13    6     -4.75      0.00
   15   13    6     -5.41      0.00
   16   13    6     -1.77      0.00
   17   13    6     -4.99      0.00
   18   13    6     -2.01      0.00
   19   13    6     -3.01      0.00
   20   13    6     -8.34      0.00
   21   13    6     -8.35      0.00
   22   13    6      1.86      0.00
   -9   14    6     -4.41      0.00
   -8   14    6     -8.16      0.00
   -7   14    6     -9.23      0.00
   -6   14    6    -13.71      0.00
   -5   14    6     -8.94      0.00
   -4   14    6     -3.32      0.00
   -3   14    6     -0.87      0.00
   -2   14    6     -7.42      0.00
   -1   14    6     -4.67      0.00
    0   14    6      0.34      0.00
    1   14    6     -1.58      0.00
    2   14    6     -5.32      0.00
    3   14    6     -1.12      0.00
    4   14    6      2.99      0.00
    5   14    6      1.05      0.00
    6   14    6      1.96      0.00
    7   14    6     -0.10      0.00
    8   14    6     -5.99      0.00
    9   14    6     -4.40      0.00
   10   14    6      3.10      0.00
   11   14    6      1.59      0.00
   12   14    6      3.16      0.00
   13   14    6     -1.83      0.00
   14   14    6     -0.64      0.00
   15   14    6      4.11      0.00
   16   14    6      0.47      0.00
   17   14    6      2.39      0.00
   18   14    6     -0.25      0.00
   19   14    6     -0.31      0.00
   20   14    6     -1.70      0.00
   21   14    6     -4.58      0.00
   -7   15    6     -5.64      0.00
   -6   15    6      2.53      0.00
   -5   15    6      2.77      0.00
   -4   15    6     -1.32      0.00
   -3   15    6     -2.95      0.00
   -2   15    6      1.42      0.00
   -1   15    6     -2.13      0.00
    0   15    6     -3.96      0.00
    1   15    6     -3.62      0.00
    2   15    6      0.43      0.00
    3   15    6     -0.94      0.00
    4   15    6     -4.47      0.00
    5   15    6     -1.89      0.00
    6   15    6     -4.76      0.00
    7   15    6     -7.81      0.00
    8   15    6     -2.04      0.00
    9   15    6      2.13      0.00
   10   15    6     -0.66      0.00
   11   15    6      2.18      0.00
   12   15    6     -1.90      0.00
   13   15    6     -1.52      0.00
   14   15    6      1.14      0.00
   15   15    6     -3.02      0.00
   16   15    6     -0.26      0.00
   17   15    6     -1.93      0.00
   19   15    6     -5.51      0.00
   20   15    6     -6.06      0.00
   21   15    6      1.54      0.00
   -6   16    6     -1.04      0.00
   -5   16    6     -3.20      0.00
   -4   16    6      0.18      0.00
   -3   16    6     -1.90      0.00
   -2   16    6     -4.41      0.00
   -1   16    6      1.90      0.00
    0   16    6     -0.86      0.00
    1   16    6     -2.26      0.00
    2   16    6     -2.54      0.00
    3   16    6     -2.81      0.00
    4   16    6      1.76      0.00
    5   16    6      1.78      0.00
    6   16    6      1.15      0.00
    7   16    6      1.67      0.00
    8   16    6     -0.55      0.00
    9   16    6     -2.38      0.00
   10   16    6      4.23      0.00
   11   16    6      2.31      0.00
   12   16    6     -1.75      0.00
   13   16    6     -0.19      0.00
   14   16    6     -1.75      0.00
   15   16    6     -1.07      0.00
   16   16    6     -5.54      0.00
   17   16    6     -4.29      0.00
   18   16    6     -2.64      0.00
   19   16    6      0.37      0.00
   20   16    6      3.81      0.00
   21   16    6     -1.19      0.00
   -5   17    6      5.49      0.00
   -4   17    6     -0.86      0.00
   -3   17    6      0.40      0.00
   -2   17    6      1.59      0.00
   -1   17    6     -5.77      0.00
    0   17    6     -0.32      0.00
    1   17    6      5.92      0.00
    2   17    6      2.74      0.00
    3   17    6      2.13      0.00
    4   17    6      0.61      0.00
    5   17    6      2.74      0.00
    6   17    6      4.98      0.00
    7   17    6      5.02      0.00
    8   17    6      2.41      0.00
    9   17    6      4.30      0.00
   10   17    6     -0.84      0.00
   11   17    6     -3.99      0.00
   12   17    6      2.94      0.00
   13   17    6      4.08      0.00
   14   17    6      5.62      0.00
   15   17    6      4.32      0.00
   16   17    6      3.87      0.00
   17   17    6      3.08      0.00
   18   17    6      3.51      0.00
   19   17    6      2.01      0.00
   20   17    6     -3.75      0.00
   -3   18    6     -5.68      0.00
   -2   18    6     -8.73      0.00
   -1   18    6      0.35      0.00
    0   18    6      3.29      0.00
    1   18    6     -2.40      0.00
    2   18    6     -2.03      0.00
    3   18    6      0.90      0.00
    4   18    6      6.05      0.00
    5   18    6      5.75      0.00
    6   18    6      4.09      0.00
    7   18    6      0.71      0.00
    8   18    6      4.10      0.00
    9   18    6      5.71      0.00
   10   18    6      4.59      0.00
   11   18    6      2.17      0.00
   12   18    6     -3.97      0.00
   13   18    6     -2.64      0.00
   14   18    6     -4.04      0.00
   15   18    6     -7.74      0.00
   16   18    6     -5.27      0.00
   17   18    6     -0.74      0.00
   18   18    6      2.67      0.00
   19   18    6      5.48      0.00
   -1   19    6      5.32      0.00
    0   19    6      1.90      0.00
    1   19    6      1.67      0.00
    2   19    6      2.69      0.00
    3   19    6      0.48      0.00
    4   19    6     -2.67      0.00
    5   19    6      1.33      0.00
    6   19    6      2.22      0.00
    7   19    6      4.83      0.00
    8   19    6      6.23      0.00
    9   19    6      1.50      0.00
   10   19    6     -2.13      0.00
   11   19    6     -1.04      0.00
   12   19    6      1.52      0.00
   13   19    6     -0.83      0.00
   14   19    6     -0.74      0.00
   15   19    6      3.82      0.00
   16   19    6      2.59      0.00
   17   19    6      2.69      0.00
   18   19    6      4.07      0.00
   19   19    6      3.26      0.00
    1   20    6      3.92      0.00
    2   20    6      1.37      0.00
    3   20    6      3.12      0.00
    4   20    6      6.20      0.00
    5   20    6      1.27      0.00
    6   20    6      1.94      0.00
    7   20    6      6.33      0.00
   12   20    6     -6.83      0.00
   13   20    6     -0.89      0.00
   14   20    6      2.04      0.00
   15   20    6     -2.60      0.00
   16   20    6     -4.40      0.00
   -8  -16    7      1.84      0.00
   -7  -16    7      1.39      0.00
   -6  -16    7      4.46      0.00
   -5  -16    7      2.25      0.00
   -4  -16    7      1.62      0.00
   -3  -16    7      3.66      0.00
   -2  -16    7      4.88      0.00
   -9  -15    7     -5.58      0.00
   -8  -15    7     -2.32      0.00
   -7  -15    7     -2.41      0.00
   -6  -15    7     -7.25      0.00
   -5  -15    7     -6.40      0.00
   -4  -15    7     -0.52      0.00
   -3  -15    7     -0.03      0.00
   -2  -15    7     -2.51      0.00
   -1  -15    7     -4.79      0.00
    0  -15    7      1.90      0.00
    1  -15    7      6.88      0.00
   -9  -14    7      8.72      0.00
   -8  -14    7      4.08      0.00
   -7  -14    7      1.53      0.00
   -6  -14    7      2.51      0.00
   -5  -14    7      5.34      0.00
   -4  -14    7      1.91      0.00
   -3  -14    7      0.12      0.00
   -2  -14    7     -2.82      0.00
   -1  -14    7     -3.60      0.00
    0  -14    7     -5.04      0.00
    1  -14    7     -0.08      0.00
    2  -14    7     -2.89      0.00
    3  -14    7     -1.16      0.00
   -9  -13    7     -1.61      0.00
   -8  -13    7     -0.59      0.00
   -7  -13    7     -0.84      0.00
   -6  -13    7     -1.62      0.00
   -5  -13    7     -6.30      0.00
   -4  -13    7     -1.71      0.00
   -3  -13    7      1.45      0.00
   -2  -13    7      1.07      0.00
   -1  -13    7      2.20      0.00
    0  -13    7      7.20      0.00
    1  -13    7      0.79      0.00
    2  -13    7     -0.37      0.00
    3  -13    7      1.36      0.00
    4  -13    7      3.12      0.00
    5  -13    7      6.98      0.00
   -9  -12    7     -2.52      0.00
   -8  -12    7     -1.44      0.00
   -7  -12    7     -2.23      0.00
   -6  -12    7     -5.54      0.00
   -5  -12    7     -1.68      0.00
   -4  -12    7     -3.75      0.00
   -3  -12    7     -6.59      0.00
   -2  -12    7     -2.52      0.00
   -1  -12    7      1.21      0.00
    0  -12    7     -0.62      0.00
    1  -12    7      4.04      0.00
    2  -12    7      4.45      0.00
    3  -12    7     -3.00      0.00
    4  -12    7     -2.28      0.00
    5  -12    7     -2.24      0.00
    6  -12    7      1.38      0.00
    7  -12    7      2.85      0.00
  -16  -11    7      1.60      0.00
  -15  -11    7      2.35      0.00
  -14  -11    7      0.89      0.00
  -13  -11    7      4.65      0.00
  -12  -11    7      4.76      0.00
  -11  -11    7      0.67      0.00
  -10  -11    7      3.94      0.00
   -9  -11    7      2.08      0.00
   -8  -11    7     -3.08      0.00
   -7  -11    7     -2.81      0.00
   -6  -11    7      2.62      0.00
   -5  -11    7      3.29      0.00
   -4  -11    7      5.27      0.00
   -3  -11    7      6.93      0.00
   -2  -11    7      0.58      0.00
   -1  -11    7     -4.93      0.00
    0  -11    7     -4.11      0.00
    1  -11    7     -6.28      0.00
    2  -11    7    -12.00      0.00
    3  -11    7     -6.38      0.00
    4  -11    7     -3.66      0.00
    5  -11    7     -1.84      0.00
    6  -11    7     -1.40      0.00
    7  -11    7     -4.04      0.00
    8  -11    7     -4.57      0.00
    9  -11    7     -7.40      0.00
  -18  -10    7     -2.87      0.00
  -17  -10    7     -0.31      0.00
  -16  -10    7     -4.01      0.00
  -15  -10    7     -0.61      0.00
  -14  -10    7      0.96      0.00
  -13  -10    7     -4.45      0.00
  -12  -10    7     -4.38      0.00
  -11  -10    7      1.64      0.00
  -10  -10    7     -0.76      0.00
   -9  -10    7     -4.07      0.00
   -8  -10    7     -4.46      0.00
   -7  -10    7     -1.75      0.00
   -6  -10    7     -0.50      0.00
   -5  -10    7     -1.00      0.00
   -4  -10    7     -1.76      0.00
   -3  -10    7     -2.26      0.00
   -1  -10    7      5.36      0.00
    0  -10    7      4.13      0.00
    1  -10    7     -1.31      0.00
    2  -10    7      0.45      0.00
    3  -10    7     -0.84      0.00
    4  -10    7     -2.02      0.00
    5  -10    7      0.99      0.00
    6  -10    7      1.48      0.00
    7  -10    7      0.60      0.00
    8  -10    7     -4.45      0.00
    9  -10    7     -0.90      0.00
   10  -10    7      1.00      0.00
  -18   -9    7     -0.97      0.00
  -17   -9    7     -1.50      0.00
  -16   -9    7      0.20      0.00
  -15   -9    7     -4.94      0.00
  -14   -9    7     -7.09      0.00
  -13   -9    7     -0.65      0.00
  -12   -9    7      3.95      0.00
  -11   -9    7      2.36      0.00
  -10   -9    7     -2.96      0.00
   -9   -9    7     -5.84      0.00
   -8   -9    7     -1.06      0.00
   -7   -9    7     -0.11      0.00
   -6   -9    7     -4.11      0.00
   -5   -9    7     -2.96      0.00
   -4   -9    7      1.74      0.00
   -3   -9    7      5.98      0.00
   -2   -9    7      7.52      0.00
   -1   -9    7      4.43      0.00
    0   -9    7      2.01      0.00
    1   -9    7      6.46      0.00
    2   -9    7      4.09      0.00
    3   -9    7     -2.95      0.00
    4   -9    7     -2.61      0.00
    5   -9    7     -1.22      0.00
    6   -9    7     -1.18      0.00
    7   -9    7     -1.59      0.00
    8   -9    7      4.13      0.00
    9   -9    7      1.18      0.00
   10   -9    7     -3.09      0.00
   11   -9    7      1.08      0.00
  -19   -8    7      1.15      0.00
  -18   -8    7     -4.22      0.00
  -17   -8    7     -6.31      0.00
  -16   -8    7     -4.90      0.00
  -15   -8    7     -0.87      0.00
  -14   -8    7     -1.83      0.00
  -13   -8    7     -5.22      0.00
  -12   -8    7     -3.36      0.00
  -11   -8    7     -2.81      0.00
  -10   -8    7      1.69      0.00
   -9   -8    7      7.55      0.00
   -8   -8    7      5.05      0.00
   -7   -8    7      1.34      0.00
   -6   -8    7      3.28      0.00
   -5   -8    7      2.75      0.00
   -4   -8    7     -1.42      0.00
   -3   -8    7     -4.07      0.00
   -2   -8    7     -5.13      0.00
   -1   -8    7      0.16      0.00
    0   -8    7      5.10      0.00
    1   -8    7     -0.17      0.00
    2   -8    7     -1.88      0.00
    3   -8    7      5.23      0.00
    4   -8    7      5.12      0.00
    5   -8    7     -3.31      0.00
    6   -8    7     -4.80      0.00
    7   -8    7     -0.78      0.00
    8   -8    7     -3.20      0.00
    9   -8    7     -0.87      0.00
   10   -8    7      7.31      0.00
   11   -8    7      2.78      0.00
   12   -8    7      4.05      0.00
  -19   -7    7     -5.87      0.00
  -18   -7    7     -7.88      0.00
  -17   -7    7     -6.98      0.00
  -16   -7    7     -4.97      0.00
  -15   -7    7     -2.21      0.00
  -14   -7    7      3.08      0.00
  -13   -7    7      6.42      0.00
  -12   -7    7      1.25      0.00
  -11   -7    7     -1.63      0.00
  -10   -7    7     -2.59      0.00
   -9   -7    7     -3.64      0.00
   -8   -7    7     -2.65      0.00
   -7   -7    7      1.76      0.00
   -6   -7    7     -0.10      0.00
   -5   -7    7     -4.64      0.00
   -4   -7    7     -2.52      0.00
   -3   -7    7      1.60      0.00
   -2   -7    7      2.59      0.00
   -1   -7    7     -3.54      0.00
    0   -7    7     -8.06      0.00
    1   -7    7      1.06      0.00
    2   -7    7      6.47      0.00
    3   -7    7      1.51      0.00
    4   -7    7     -4.95      0.00
    5   -7    7      2.51      0.00
    6   -7    7      6.85      0.00
    7   -7    7      2.91      0.00
    8   -7    7      1.03      0.00
    9   -7    7      0.33      0.00
   10   -7    7     -6.92      0.00
   11   -7    7     -2.85      0.00
   12   -7    7     -1.85      0.00
   13   -7    7     -3.70      0.00
  -19   -6    7     -3.36      0.00
  -18   -6    7     -6.70      0.00
  -17   -6    7     -8.19      0.00
  -16   -6    7     -3.13      0.00
  -15   -6    7      3.88      0.00
  -14   -6    7      4.03      0.00
  -13   -6    7     -2.01      0.00
  -12   -6    7     -3.08      0.00
  -11   -6    7      2.49      0.00
  -10   -6    7      4.04      0.00
   -9   -6    7     -0.67      0.00
   -8   -6    7      0.52      0.00
   -7   -6    7     -1.00      0.00
   -6   -6    7     -1.18      0.00
   -5   -6    7      2.79      0.00
   -4   -6    7      1.46      0.00
   -3   -6    7     -2.85      0.00
   -2   -6    7     -1.61      0.00
   -1   -6    7      3.82      0.00
    0   -6    7      7.55      0.00
    1   -6    7      0.93      0.00
    2   -6    7     -0.35      0.00
    3   -6    7     -2.61      0.00
    4   -6    7      0.23      0.00
    5   -6    7     -1.20      0.00
    6   -6    7     -2.45      0.00
    7   -6    7     -0.61      0.00
    8   -6    7     -0.26      0.00
    9   -6    7     -3.53      0.00
   10   -6    7      0.85      0.00
   11   -6    7      3.18      0.00
   12   -6    7      2.44      0.00
   13   -6    7     -0.16      0.00
   14   -6    7     -0.12      0.00
  -19   -5    7     -7.77      0.00
  -18   -5    7    -10.89      0.00
  -17   -5    7     -5.44      0.00
  -16   -5    7      0.77      0.00
  -15   -5    7      0.70      0.00
  -14   -5    7     -3.65      0.00
  -13   -5    7     -5.66      0.00
  -12   -5    7     -1.47      0.00
  -11   -5    7     -3.67      0.00
  -10   -5    7     -4.51      0.00
   -9   -5    7      3.39      0.00
   -8   -5    7      0.93      0.00
   -7   -5    7     -1.68      0.00
   -6   -5    7      0.21      0.00
   -5   -5    7      0.24      0.00
   -4   -5    7      1.12      0.00
   -3   -5    7      4.28      0.00
   -2   -5    7      0.61      0.00
   -1   -5    7     -5.64      0.00
    0   -5    7     -5.06      0.00
    1   -5    7      2.78      0.00
    2   -5    7     -3.23      0.00
    3   -5    7     -3.60      0.00
    4   -5    7      0.26      0.00
    5   -5    7      0.91      0.00
    6   -5    7      3.22      0.00
    7   -5    7      4.48      0.00
    8   -5    7      5.15      0.00
    9   -5    7      8.17      0.00
   10   -5    7      8.81      0.00
   11   -5    7      2.64      0.00
   12   -5    7     -1.50      0.00
   13   -5    7      0.26      0.00
   14   -5    7      1.62      0.00
   15   -5    7     -3.06      0.00
  -19   -4    7      3.99      0.00
  -18   -4    7      7.01      0.00
  -17   -4    7      5.59      0.00
  -16   -4    7      5.56      0.00
  -15   -4    7      2.66      0.00
  -14   -4    7     -2.65      0.00
  -13   -4    7     -1.73      0.00
  -12   -4    7     -1.12      0.00
  -11   -4    7      4.32      0.00
  -10   -4    7      6.89      0.00
   -9   -4    7     -2.49      0.00
   -8   -4    7     -1.81      0.00
   -7   -4    7      3.12      0.00
   -6   -4    7      1.11      0.00
   -5   -4    7     -3.01      0.00
   -4   -4    7     -0.81      0.00
   -3   -4    7     -0.71      0.00
   -2   -4    7     -2.63      0.00
   -1   -4    7      2.06      0.00
    0   -4    7      3.74      0.00
    1   -4    7     -1.45      0.00
    2   -4    7      4.32      0.00
    3   -4    7      4.91      0.00
    4   -4    7     -5.89      0.00
    5   -4    7     -3.12      0.00
    6   -4    7     -0.94      0.00
    7   -4    7     -0.96      0.00
    8   -4    7     -2.01      0.00
    9   -4    7     -1.56      0.00
   10   -4    7     -6.32      0.00
   11   -4    7     -5.25      0.00
   12   -4    7     -0.53      0.00
   13   -4    7      4.19      0.00
   14   -4    7      4.72      0.00
   15   -4    7      8.13      0.00
   16   -4    7      5.17      0.00
  -19   -3    7     -1.44      0.00
  -18   -3    7     -2.83      0.00
  -17   -3    7      3.48      0.00
  -16   -3    7      0.29      0.00
  -15   -3    7     -5.91      0.00
  -14   -3    7     -5.08      0.00
  -13   -3    7     -2.68      0.00
  -12   -3    7      0.49      0.00
  -11   -3    7      1.14      0.00
  -10   -3    7     -2.45      0.00
   -9   -3    7     -0.07      0.00
   -8   -3    7     -4.63      0.00
   -7   -3    7     -8.86      0.00
   -6   -3    7     -6.05      0.00
   -5   -3    7      2.42      0.00
   -4   -3    7     -0.55      0.00
   -3   -3    7     -5.38      0.00
   -2   -3    7      1.99      0.00
   -1   -3    7      3.90      0.00
    0   -3    7      2.87      0.00
    1   -3    7      6.59      0.00
    2   -3    7      0.74      0.00
    3   -3    7     -7.76      0.00
    4   -3    7      2.70      0.00
    5   -3    7      2.44      0.00
    6   -3    7      0.98      0.00
    7   -3    7      1.35      0.00
    8   -3    7      5.11      0.00
    9   -3    7      1.06      0.00
   10   -3    7     -0.32      0.00
   11   -3    7      0.83      0.00
   12   -3    7      2.48      0.00
   13   -3    7     -1.73      0.00
   14   -3    7     -2.07      0.00
   15   -3    7     -4.72      0.00
   17   -3    7     -2.15      0.00
  -18   -2    7      0.61      0.00
  -17   -2    7     -3.05      0.00
  -16   -2    7     -1.83      0.00
  -15   -2    7      1.09      0.00
  -14   -2    7      1.08      0.00
  -13   -2    7     -1.15      0.00
  -12   -2    7      0.83      0.00
  -11   -2    7      0.47      0.00
  -10   -2    7      1.78      0.00
   -9   -2    7     -2.90      0.00
   -8   -2    7      1.04      0.00
   -7   -2    7      2.59      0.00
   -6   -2    7      3.87      0.00
   -5   -2    7      0.36      0.00
   -4   -2    7      3.54      0.00
   -3   -2    7      7.80      0.00
   -2   -2    7     -0.29      0.00
   -1   -2    7     -4.03      0.00
    0   -2    7      1.52      0.00
    1   -2    7     -3.64      0.00
    2   -2    7    -10.26      0.00
    3   -2    7     -4.54      0.00
    4   -2    7     -8.19      0.00
    5   -2    7     -7.22      0.00
    6   -2    7     -5.00      0.00
    7   -2    7     -0.54      0.00
    8   -2    7     -2.73      0.00
    9   -2    7     -4.72      0.00
   10   -2    7     -4.81      0.00
   11   -2    7     -5.70      0.00
   12   -2    7     -4.10      0.00
   13   -2    7      5.58      0.00
   14   -2    7      3.98      0.00
   15   -2    7     -3.80      0.00
   16   -2    7      1.43      0.00
   17   -2    7      1.89      0.00
  -18   -1    7      3.70      0.00
  -17   -1    7      8.15      0.00
  -16   -1    7      8.85      0.00
  -15   -1    7      5.94      0.00
  -14   -1    7      0.81      0.00
  -13   -1    7      1.89      0.00
  -12   -1    7      0.50      0.00
  -11   -1    7      0.82      0.00
  -10   -1    7     -2.75      0.00
   -9   -1    7      1.36      0.00
   -8   -1    7     -2.84      0.00
   -7   -1    7      0.90      0.00
   -6   -1    7      3.47      0.00
   -5   -1    7      3.81      0.00
   -4   -1    7      3.28      0.00
   -3   -1    7      6.31      0.00
   -2   -1    7     12.76      0.00
   -1   -1    7     16.54      0.00
    0   -1    7      6.03      0.00
    1   -1    7      3.09      0.00
    2   -1    7      9.28      0.00
    3   -1    7      8.25      0.00
    4   -1    7      8.74      0.00
    5   -1    7      8.88      0.00
    6   -1    7     10.25      0.00
    7   -1    7      6.15      0.00
    8   -1    7      4.44      0.00
    9   -1    7      7.79      0.00
   10   -1    7      1.73      0.00
   11   -1    7     -3.21      0.00
   12   -1    7     -3.33      0.00
   13   -1    7     -6.97      0.00
   14   -1    7     -3.55      0.00
   15   -1    7      5.97      0.00
   16   -1    7      1.12      0.00
   17   -1    7     -1.18      0.00
   18   -1    7     -0.43      0.00
  -18    0    7      8.27      0.00
  -17    0    7      6.10      0.00
  -16    0    7      1.22      0.00
  -15    0    7     -2.86      0.00
  -14    0    7     -0.61      0.00
  -13    0    7      0.81      0.00
  -12    0    7      1.05      0.00
  -11    0    7      0.36      0.00
  -10    0    7      5.12      0.00
   -9    0    7      0.44      0.00
   -8    0    7      5.25      0.00
   -7    0    7      6.30      0.00
   -6    0    7      2.41      0.00
   -5    0    7      5.13      0.00
   -4    0    7      5.49      0.00
   -3    0    7     -2.28      0.00
   -2    0    7     -4.20      0.00
   -1    0    7     -3.20      0.00
    0    0    7      2.63      0.00
    1    0    7      1.52      0.00
    2    0    7     -3.61      0.00
    3    0    7     -3.39      0.00
    4    0    7      0.30      0.00
    5    0    7      6.06      0.00
    6    0    7      3.00      0.00
    7    0    7      1.69      0.00
    8    0    7      5.80      0.00
    9    0    7     -0.63      0.00
   10    0    7      2.85      0.00
   11    0    7      7.61      0.00
   12    0    7      7.25      0.00
   13    0    7      6.81      0.00
   14    0    7      4.39      0.00
   15    0    7     -1.04      0.00
   16    0    7      4.53      0.00
   17    0    7      2.47      0.00
   18    0    7      1.05      0.00
  -18    1    7     -0.67      0.00
  -17    1    7      0.15      0.00
  -16    1    7      0.61      0.00
  -15    1    7      2.26      0.00
  -14    1    7      0.72      0.00
  -13    1    7     -6.64      0.00
  -12    1    7     -5.08      0.00
  -11    1    7      1.78      0.00
  -10    1    7     -0.64      0.00
   -9    1    7      3.89      0.00
   -8    1    7      6.59      0.00
   -7    1    7      5.10      0.00
   -6    1    7      9.38      0.00
   -5    1    7      1.46      0.00
   -4    1    7     -3.04      0.00
   -3    1    7      5.72      0.00
   -2    1    7      8.90      0.00
   -1    1    7      1.46      0.00
    0    1    7     -0.38      0.00
    1    1    7      7.53      0.00
    2    1    7      6.78      0.00
    3    1    7      2.34      0.00
    4    1    7      8.55      0.00
    5    1    7      5.68      0.00
    6    1    7      6.69      0.00
    7    1    7     10.79      0.00
    8    1    7      2.38      0.00
    9    1    7      4.55      0.00
   10    1    7      2.66      0.00
   11    1    7      0.12      0.00
   12    1    7      0.56      0.00
   13    1    7      0.88      0.00
   14    1    7      0.68      0.00
   15    1    7      2.28      0.00
   16    1    7     -5.57      0.00
   17    1    7     -2.61      0.00
   18    1    7     -7.05      0.00
   19    1    7     -2.66      0.00
  -17    2    7     -2.48      0.00
  -16    2    7      1.56      0.00
  -15    2    7      0.80      0.00
  -14    2    7     -6.33      0.00
  -13    2    7     -0.16      0.00
  -12    2    7      4.59      0.00
  -11    2    7      1.60      0.00
  -10    2    7      5.65      0.00
   -9    2    7      7.28      0.00
   -8    2    7      4.30      0.00
   -7    2    7      6.20      0.00
   -6    2    7     -3.11      0.00
   -5    2    7     -1.99      0.00
   -4    2    7      1.29      0.00
   -3    2    7     -4.77      0.00
   -2    2    7    -12.30      0.00
   -1    2    7      0.00      0.00
    0    2    7      8.93      0.00
    1    2    7     -1.41      0.00
    2    2    7      3.05      0.00
    3    2    7     19.98      0.00
    4    2    7     10.93      0.00
    5    2    7     11.02      0.00
    6    2    7     12.72      0.00
    7    2    7     -1.64      0.00
    8    2    7     -0.45      0.00
    9    2    7      3.02      0.00
   10    2    7      4.69      0.00
   11    2    7      2.55      0.00
   12    2    7      0.26      0.00
   13    2    7      2.48      0.00
   14    2    7      2.38      0.00
   15    2    7     -1.96      0.00
   16    2    7      4.89      0.00
   17    2    7      0.15      0.00
   18    2    7      8.36      0.00
   19    2    7      8.09      0.00
   20    2    7     -1.91      0.00
  -17    3    7     -0.33      0.00
  -16    3    7     -3.15      0.00
  -15    3    7     -3.37      0.00
  -14    3    7      4.05      0.00
  -13    3    7      4.30      0.00
  -12    3    7      2.84      0.00
  -11    3    7      7.43      0.00
  -10    3    7      4.95      0.00
   -9    3    7      4.07      0.00
   -8    3    7      9.45      0.00
   -7    3    7      4.02      0.00
   -6    3    7     -1.23      0.00
   -5    3    7     -7.97      0.00
   -4    3    7     -9.67      0.00
   -3    3    7     -6.66      0.00
   -2    3    7     -0.04      0.00
   -1    3    7     -5.99      0.00
    0    3    7    -11.93      0.00
    1    3    7      9.11      0.00
    2    3    7     16.60      0.00
    3    3    7      2.11      0.00
    4    3    7     19.54      0.00
    5    3    7     26.86      0.00
    6    3    7      7.62      0.00
    7    3    7      8.95      0.00
    8    3    7      9.53      0.00
    9    3    7      0.00      0.00
   10    3    7     -7.24      0.00
   11    3    7     -6.25      0.00
   12    3    7     -1.88      0.00
   13    3    7     -4.94      0.00
   14    3    7     -3.62      0.00
   15    3    7      3.49      0.00
   16    3    7     -2.16      0.00
   17    3    7      1.94      0.00
   18    3    7     -4.71      0.00
   19    3    7     -7.29      0.00
   20    3    7      1.69      0.00
  -16    4    7      5.26      0.00
  -15    4    7      3.16      0.00
  -14    4    7     -0.15      0.00
  -13    4    7     -0.38      0.00
  -12    4    7      1.40      0.00
  -11    4    7     -4.26      0.00
  -10    4    7     -4.03      0.00
   -9    4    7     -0.92      0.00
   -8    4    7     -0.95      0.00
   -7    4    7     -1.04      0.00
   -6    4    7      2.57      0.00
   -5    4    7      6.94      0.00
   -4    4    7      5.22      0.00
   -3    4    7      1.84      0.00
   -2    4    7      2.80      0.00
   -1    4    7      5.55      0.00
    0    4    7     15.48      0.00
    1    4    7      1.94      0.00
    2    4    7     -4.46      0.00
    3    4    7     12.52      0.00
    4    4    7     -3.72      0.00
    5    4    7    -29.69      0.00
    6    4    7    -14.41      0.00
    7    4    7     -4.31      0.00
    8    4    7     -5.68      0.00
    9    4    7     -1.14      0.00
   10    4    7      2.89      0.00
   11    4    7      3.04      0.00
   12    4    7      0.78      0.00
   13    4    7      4.97      0.00
   14    4    7      2.16      0.00
   15    4    7     -5.54      0.00
   16    4    7     -1.76      0.00
   17    4    7     -4.29      0.00
   18    4    7      1.85      0.00
   19    4    7      9.16      0.00
   20    4    7     -0.44      0.00
  -16    5    7      5.07      0.00
  -15    5    7      9.82      0.00
  -14    5    7      6.00      0.00
  -13    5    7      3.61      0.00
  -12    5    7      3.61      0.00
  -11    5    7      5.33      0.00
  -10    5    7      2.93      0.00
   -9    5    7      0.25      0.00
   -8    5    7     -3.56      0.00
   -7    5    7     -2.46      0.00
   -6    5    7     -3.51      0.00
   -5    5    7     -5.25      0.00
   -4    5    7      0.61      0.00
   -3    5    7     12.63      0.00
   -2    5    7     12.72      0.00
   -1    5    7     17.88      0.00
    0    5    7     10.35      0.00
    1    5    7     10.52      0.00
    2    5    7      8.24      0.00
    3    5    7    -13.82      0.00
    4    5    7    -18.81      0.00
    5    5    7      0.35      0.00
    6    5    7     -6.39      0.00
    7    5    7    -13.41      0.00
    8    5    7     -5.54      0.00
    9    5    7     -3.16      0.00
   10    5    7     -8.03      0.00
   11    5    7     -8.70      0.00
   12    5    7     -2.39      0.00
   13    5    7     -1.95      0.00
   14    5    7      0.77      0.00
   15    5    7      2.63      0.00
   16    5    7     -5.16      0.00
   17    5    7     -4.79      0.00
   18    5    7     -4.53      0.00
   19    5    7     -8.39      0.00
   20    5    7     -1.56      0.00
   21    5    7     -7.05      0.00
  -15    6    7     -2.15      0.00
  -14    6    7      0.77      0.00
  -13    6    7      2.98      0.00
  -12    6    7     -1.55      0.00
  -11    6    7     -1.69      0.00
  -10    6    7      0.33      0.00
   -9    6    7     -0.78      0.00
   -8    6    7     -0.48      0.00
   -7    6    7     -2.65      0.00
   -6    6    7     -6.00      0.00
   -5    6    7     -4.39      0.00
   -4    6    7     -2.64      0.00
   -3    6    7     -6.33      0.00
   -2    6    7      2.51      0.00
   -1    6    7     -1.51      0.00
    0    6    7     -5.40      0.00
    1    6    7     -5.41      0.00
    2    6    7     -2.52      0.00
    3    6    7      7.65      0.00
    4    6    7      9.91      0.00
    5    6    7     -4.96      0.00
    6    6    7     -5.02      0.00
    7    6    7     -0.16      0.00
    8    6    7     -7.72      0.00
    9    6    7    -15.25      0.00
   10    6    7     -6.08      0.00
   11    6    7      2.92      0.00
   12    6    7     -1.85      0.00
   13    6    7     -3.66      0.00
   14    6    7     -3.67      0.00
   15    6    7     -4.54      0.00
   16    6    7     -1.03      0.00
   17    6    7     -1.73      0.00
   18    6    7     -0.45      0.00
   19    6    7      1.56      0.00
   20    6    7     -8.86      0.00
   21    6    7     -4.11      0.00
  -14    7    7      7.25      0.00
  -13    7    7     -0.19      0.00
  -12    7    7      2.16      0.00
  -11    7    7      0.73      0.00
  -10    7    7     -0.52      0.00
   -9    7    7      0.21      0.00
   -8    7    7     -0.01      0.00
   -7    7    7     -1.17      0.00
   -6    7    7      2.73      0.00
   -5    7    7      2.25      0.00
   -4    7    7     -0.16      0.00
   -3    7    7      5.91      0.00
   -2    7    7      1.54      0.00
   -1    7    7     -2.66      0.00
    0    7    7     -0.98      0.00
    1    7    7     -2.25      0.00
    2    7    7     -7.15      0.00
    3    7    7    -13.15      0.00
    4    7    7    -12.32      0.00
    5    7    7     -6.40      0.00
    6    7    7     -4.35      0.00
    7    7    7     -3.91      0.00
    8    7    7     -0.78      0.00
    9    7    7      8.68      0.00
   10    7    7      3.86      0.00
   11    7    7     -7.42      0.00
   12    7    7     -4.48      0.00
   13    7    7     -1.87      0.00
   14    7    7     -2.97      0.00
   15    7    7     -0.92      0.00
   16    7    7     -0.73      0.00
   17    7    7      2.58      0.00
   18    7    7      3.32      0.00
   19    7    7     -0.13      0.00
   20    7    7      7.35      0.00
   21    7    7      7.08      0.00
  -14    8    7     -2.40      0.00
  -13    8    7     -0.24      0.00
  -12    8    7     -3.81      0.00
  -11    8    7     -4.31      0.00
  -10    8    7     -4.73      0.00
   -9    8    7     -4.64      0.00
   -8    8    7     -0.08      0.00
   -7    8    7      5.66      0.00
   -6    8    7      1.75      0.00
   -5    8    7     -1.36      0.00
   -4    8    7      3.52      0.00
   -3    8    7      2.78      0.00
   -2    8    7      0.73      0.00
   -1    8    7      2.81      0.00
    0    8    7     -0.53      0.00
    1    8    7     -4.83      0.00
    2    8    7     -3.46      0.00
    3    8    7      1.80      0.00
    4    8    7      0.07      0.00
    5    8    7      3.83      0.00
    6    8    7      6.78      0.00
    7    8    7     -0.05      0.00
    8    8    7     -1.42      0.00
    9    8    7     -5.31      0.00
   10    8    7     -3.62      0.00
   11    8    7      6.50      0.00
   12    8    7      4.17      0.00
   13    8    7      0.18      0.00
   14    8    7      1.91      0.00
   15    8    7     -0.30      0.00
   16    8    7      0.89      0.00
   17    8    7      4.41      0.00
   18    8    7      4.34      0.00
   19    8    7      3.98      0.00
   20    8    7     -4.82      0.00
   21    8    7     -8.50      0.00
  -13    9    7     -4.38      0.00
  -12    9    7     -4.06      0.00
  -11    9    7     -1.89      0.00
  -10    9    7     -2.83      0.00
   -9    9    7     -1.24      0.00
   -8    9    7     -2.75      0.00
   -7    9    7     -2.77      0.00
   -6    9    7      1.42      0.00
   -5    9    7      2.36      0.00
   -4    9    7     -4.57      0.00
   -3    9    7     -5.70      0.00
   -2    9    7      2.20      0.00
   -1    9    7      2.65      0.00
    0    9    7     -1.00      0.00
    1    9    7      0.29      0.00
    2    9    7      1.38      0.00
    3    9    7     -1.27      0.00
    4    9    7      6.38      0.00
    5    9    7      6.95      0.00
    6    9    7      0.11      0.00
    7    9    7      4.93      0.00
    8    9    7      5.58      0.00
    9    9    7      3.92      0.00
   10    9    7      6.72      0.00
   11    9    7      1.81      0.00
   12    9    7      0.77      0.00
   13    9    7      1.81      0.00
   14    9    7     -3.86      0.00
   15    9    7     -4.95      0.00
   16    9    7     -1.63      0.00
   17    9    7     -0.61      0.00
   18    9    7      2.92      0.00
   19    9    7      3.70      0.00
   20    9    7     11.36      0.00
   21    9    7     21.65      0.00
   22    9    7     10.55      0.00
  -12   10    7      6.10      0.00
  -11   10    7      1.00      0.00
  -10   10    7      1.62      0.00
   -9   10    7     -2.87      0.00
   -8   10    7     -1.74      0.00
   -7   10    7     -1.08      0.00
   -6   10    7     -3.19      0.00
   -5   10    7     -2.89      0.00
   -4   10    7      1.32      0.00
   -3   10    7      1.69      0.00
   -2   10    7     -5.50      0.00
   -1   10    7     -6.13      0.00
    0   10    7      1.66      0.00
    1   10    7      1.34      0.00
    2   10    7     -2.86      0.00
    3   10    7      3.76      0.00
    4   10    7      3.39      0.00
    5   10    7     -2.30      0.00
    6   10    7      1.42      0.00
    7   10    7      0.49      0.00
    8   10    7     -3.01      0.00
    9   10    7     -0.08      0.00
   10   10    7     -3.92      0.00
   11   10    7     -3.91      0.00
   12   10    7      0.51      0.00
   13   10    7     -1.66      0.00
   14   10    7     -2.75      0.00
   15   10    7     -0.48      0.00
   16   10    7      0.28      0.00
   17   10    7      0.39      0.00
   18   10    7     -2.27      0.00
   19   10    7      4.05      0.00
   20   10    7     10.79      0.00
   21   10    7      2.50      0.00
   22   10    7      4.44      0.00
  -12   11    7     -6.15      0.00
  -11   11    7     -2.50      0.00
  -10   11    7     -7.06      0.00
   -9   11    7     -3.45      0.00
   -8   11    7     -2.50      0.00
   -7   11    7     -3.04      0.00
   -6   11    7     -0.51      0.00
   -5   11    7      0.03      0.00
   -4   11    7     -1.22      0.00
   -3   11    7     -0.19      0.00
   -2   11    7      5.19      0.00
   -1   11    7      7.15      0.00
    0   11    7      0.04      0.00
    1   11    7     -2.60      0.00
    2   11    7      3.13      0.00
    3   11    7     -1.38      0.00
    4   11    7     -7.59      0.00
    5   11    7     -2.61      0.00
    6   11    7     -4.01      0.00
    7   11    7     -7.85      0.00
    8   11    7     -2.66      0.00
    9   11    7     -5.26      0.00
   10   11    7     -3.25      0.00
   11   11    7      4.43      0.00
   12   11    7      1.87      0.00
   13   11    7      0.59      0.00
   14   11    7      3.34      0.00
   15   11    7      1.67      0.00
   16   11    7     -4.06      0.00
   17   11    7     -6.10      0.00
   18   11    7     -0.77      0.00
   19   11    7     -0.99      0.00
   20   11    7     -6.22      0.00
   21   11    7     -1.12      0.00
   22   11    7     -4.03      0.00
  -11   12    7      1.00      0.00
  -10   12    7      8.15      0.00
   -9   12    7      3.70      0.00
   -8   12    7     -2.32      0.00
   -7   12    7     -2.24      0.00
   -6   12    7     -0.64      0.00
   -5   12    7      1.24      0.00
   -4   12    7      0.88      0.00
   -3   12    7     -1.93      0.00
   -2   12    7     -3.29      0.00
   -1   12    7     -2.76      0.00
    0   12    7     -2.18      0.00
    1   12    7     -1.10      0.00
    2   12    7     -1.66      0.00
    3   12    7      2.23      0.00
    4   12    7      5.99      0.00
    5   12    7     -1.87      0.00
    6   12    7     -3.51      0.00
    7   12    7      3.06      0.00
    8   12    7     -1.02      0.00
    9   12    7      0.31      0.00
   10   12    7      4.40      0.00
   11   12    7     -0.17      0.00
   12   12    7      1.41      0.00
   13   12    7      2.54      0.00
   14   12    7     -0.57      0.00
   15   12    7     -2.71      0.00
   16   12    7      2.91      0.00
   17   12    7      3.97      0.00
   18   12    7     -2.21      0.00
   19   12    7      0.05      0.00
   20   12    7      5.99      0.00
   21   12    7      1.68      0.00
   22   12    7      0.80      0.00
  -10   13    7     -0.17      0.00
   -9   13    7     -0.05      0.00
   -8   13    7     -2.28      0.00
   -7   13    7     -3.84      0.00
   -6   13    7     -3.00      0.00
   -5   13    7     -2.53      0.00
   -4   13    7     -2.05      0.00
   -3   13    7      1.79      0.00
   -2   13    7      3.64      0.00
   -1   13    7     -0.85      0.00
    0   13    7     -0.79      0.00
    1   13    7     -0.71      0.00
    2   13    7     -4.68      0.00
    3   13    7     -8.42      0.00
    4   13    7     -8.56      0.00
    5   13    7     -2.36      0.00
    6   13    7     -0.58      0.00
    7   13    7     -3.84      0.00
    8   13    7     -2.11      0.00
    9   13    7     -2.00      0.00
   10   13    7     -2.55      0.00
   11   13    7      2.49      0.00
   12   13    7      0.79      0.00
   13   13    7     -0.21      0.00
   14   13    7     -1.55      0.00
   15   13    7      3.43      0.00
   16   13    7      1.68      0.00
   17   13    7     -0.91      0.00
   18   13    7      4.91      0.00
   19   13    7      3.83      0.00
   20   13    7      2.82      0.00
   21   13    7      6.35      0.00
   22   13    7      5.85      0.00
   -9   14    7     -3.09      0.00
   -8   14    7      0.65      0.00
   -7   14    7      4.02      0.00
   -6   14    7      4.17      0.00
   -5   14    7      4.72      0.00
   -4   14    7      3.21      0.00
   -3   14    7     -0.42      0.00
   -2   14    7     -2.13      0.00
   -1   14    7      4.65      0.00
    0   14    7      2.52      0.00
    1   14    7     -4.53      0.00
    2   14    7     -5.06      0.00
    3   14    7     -1.83      0.00
    4   14    7     -0.81      0.00
    5   14    7      2.07      0.00
    6   14    7      8.00      0.00
    7   14    7      6.76      0.00
    8   14    7      3.90      0.00
    9   14    7      5.35      0.00
   10   14    7      4.64      0.00
   11   14    7      0.48      0.00
   12   14    7      3.22      0.00
   13   14    7     -1.25      0.00
   14   14    7      1.64      0.00
   15   14    7     -0.08      0.00
   16   14    7     -1.40      0.00
   17   14    7      1.63      0.00
   18   14    7     -2.03      0.00
   19   14    7      3.17      0.00
   20   14    7      5.02      0.00
   21   14    7     -0.23      0.00
   -7   15    7      4.79      0.00
   -6   15    7      8.82      0.00
   -5   15    7      2.94      0.00
   -4   15    7      0.58      0.00
   -3   15    7      2.84      0.00
   -2   15    7      5.95      0.00
   -1   15    7      1.01      0.00
    0   15    7      1.46      0.00
    1   15    7      3.05      0.00
    2   15    7      2.68      0.00
    3   15    7     -0.40      0.00
    4   15    7      2.02      0.00
    5   15    7      2.44      0.00
    6   15    7     -2.55      0.00
    7   15    7      2.37      0.00
    8   15    7      6.12      0.00
    9   15    7     -0.84      0.00
   10   15    7     -5.87      0.00
   11   15    7     -2.73      0.00
   12   15    7     -6.65      0.00
   13   15    7      0.34      0.00
   14   15    7      2.54      0.00
   15   15    7      3.14      0.00
   16   15    7      3.40      0.00
   17   15    7     -5.14      0.00
   18   15    7     -2.56      0.00
   19   15    7     -0.88      0.00
   20   15    7      1.44      0.00
   21   15    7      3.54      0.00
   -6   16    7     -6.54      0.00
   -5   16    7      0.80      0.00
   -4   16    7      2.87      0.00
   -3   16    7     -2.49      0.00
   -2   16    7     -4.32      0.00
   -1   16    7      0.54      0.00
    0   16    7     -1.11      0.00
    1   16    7      0.50      0.00
    2   16    7     -0.42      0.00
    3   16    7      1.06      0.00
    4   16    7     -0.50      0.00
    5   16    7     -3.41      0.00
    6   16    7      1.89      0.00
    7   16    7      2.99      0.00
    8   16    7     -0.38      0.00
    9   16    7     -0.33      0.00
   10   16    7      0.62      0.00
   11   16    7     -7.28      0.00
   12   16    7     -4.86      0.00
   13   16    7     -3.30      0.00
   14   16    7     -3.82      0.00
   15   16    7     -3.84      0.00
   16   16    7     -9.04      0.00
   17   16    7     -3.98      0.00
   18   16    7     -1.84      0.00
   19   16    7      1.50      0.00
   20   16    7      1.81      0.00
   21   16    7     -2.88      0.00
   -5   17    7      2.37      0.00
   -4   17    7     -0.55      0.00
   -3   17    7      6.93      0.00
   -2   17    7      6.92      0.00
   -1   17    7      0.64      0.00
    0   17    7      1.40      0.00
    1   17    7     -3.28      0.00
    2   17    7     -2.81      0.00
    3   17    7     -1.04      0.00
    4   17    7     -3.56      0.00
    5   17    7     -2.94      0.00
    7   17    7     -7.07      0.00
    8   17    7     -6.24      0.00
    9   17    7     -3.65      0.00
   10   17    7     -5.01      0.00
   11   17    7      0.74      0.00
   12   17    7      0.56      0.00
   13   17    7     -6.49      0.00
   14   17    7     -3.84      0.00
   15   17    7     -2.40      0.00
   16   17    7      0.14      0.00
   17   17    7     -3.14      0.00
   18   17    7     -2.90      0.00
   19   17    7     -3.66      0.00
   -3   18    7      1.80      0.00
   -2   18    7     -0.04      0.00
   -1   18    7      0.78      0.00
    0   18    7     -2.85      0.00
    1   18    7      1.36      0.00
    2   18    7      4.57      0.00
    3   18    7     -1.30      0.00
    4   18    7     -5.53      0.00
    5   18    7     -9.95      0.00
    6   18    7     -8.11      0.00
    7   18    7     -3.99      0.00
    8   18    7      1.17      0.00
    9   18    7     -0.63      0.00
   10   18    7     -3.95      0.00
   11   18    7     -9.60      0.00
   12   18    7    -10.47      0.00
   13   18    7      1.50      0.00
   14   18    7      3.31      0.00
   15   18    7      1.68      0.00
   16   18    7     -0.16      0.00
   17   18    7     -0.03      0.00
   18   18    7     -0.42      0.00
   19   18    7     -1.53      0.00
   20   18    7     -0.60      0.00
   -1   19    7     -1.38      0.00
    0   19    7     -0.35      0.00
    1   19    7     -0.78      0.00
    2   19    7     -4.12      0.00
    3   19    7     -2.77      0.00
    4   19    7     -0.32      0.00
    5   19    7      2.21      0.00
    6   19    7     -1.65      0.00
    7   19    7     -2.01      0.00
    8   19    7     -4.68      0.00
    9   19    7     -6.88      0.00
   10   19    7     -3.06      0.00
   11   19    7      1.97      0.00
   12   19    7      4.32      0.00
   13   19    7     -1.14      0.00
   14   19    7     -1.62      0.00
   15   19    7     -0.05      0.00
   16   19    7     -0.73      0.00
   17   19    7      0.90      0.00
   18   19    7     -0.25      0.00
   19   19    7     -0.77      0.00
    1   20    7     -0.99      0.00
    2   20    7     -1.73      0.00
    3   20    7     -1.90      0.00
    4   20    7     -5.52      0.00
    5   20    7     -8.91      0.00
    6   20    7     -1.95      0.00
   11   20    7     -2.95      0.00
   12   20    7     -1.87      0.00
   13   20    7     -0.79      0.00
   14   20    7     -0.58      0.00
   15   20    7     -0.58      0.00
   16   20    7      2.41      0.00
   17   20    7      0.12      0.00
   18   20    7      0.46      0.00
    5   21    7      3.29      0.00
    6   21    7     -3.06      0.00
    7   21    7     -6.92      0.00
   12   21    7     -3.56      0.00
   -8  -16    8      1.88      0.00
   -7  -16    8     -3.04      0.00
   -6  -16    8     -0.89      0.00
   -5  -16    8     -2.01      0.00
   -4  -16    8     -1.12      0.00
   -9  -15    8      4.76      0.00
   -8  -15    8      3.92      0.00
   -7  -15    8      5.64      0.00
   -6  -15    8      3.71      0.00
   -5  -15    8      4.35      0.00
   -4  -15    8      2.27      0.00
   -3  -15    8      4.05      0.00
   -2  -15    8      4.61      0.00
   -1  -15    8      5.20      0.00
    0  -15    8      6.35      0.00
   -9  -14    8     -9.60      0.00
   -8  -14    8     -7.75      0.00
   -7  -14    8     -4.31      0.00
   -6  -14    8     -0.89      0.00
   -5  -14    8     -2.92      0.00
   -4  -14    8     -4.62      0.00
   -3  -14    8     -3.10      0.00
   -2  -14    8      0.32      0.00
   -1  -14    8      1.80      0.00
    0  -14    8     -1.96      0.00
    1  -14    8     -0.85      0.00
    2  -14    8     -0.32      0.00
  -10  -13    8      0.74      0.00
   -9  -13    8      7.34      0.00
   -8  -13    8      4.88      0.00
   -7  -13    8      2.67      0.00
   -6  -13    8     -0.09      0.00
   -5  -13    8     -0.54      0.00
   -4  -13    8      3.11      0.00
   -3  -13    8      2.38      0.00
   -2  -13    8     -0.22      0.00
   -1  -13    8     -3.06      0.00
    0  -13    8     -3.69      0.00
    1  -13    8     -7.10      0.00
    2  -13    8     -3.56      0.00
    3  -13    8     -6.29      0.00
    4  -13    8     -5.73      0.00
  -10  -12    8     -0.82      0.00
   -9  -12    8     -1.65      0.00
   -8  -12    8      0.87      0.00
   -7  -12    8     -0.09      0.00
   -6  -12    8      1.39      0.00
   -5  -12    8      4.13      0.00
   -4  -12    8      1.62      0.00
   -3  -12    8      5.14      0.00
   -2  -12    8      8.12      0.00
   -1  -12    8      4.44      0.00
    0  -12    8      0.11      0.00
    1  -12    8      3.53      0.00
    2  -12    8     -0.54      0.00
    3  -12    8     -1.02      0.00
    4  -12    8      2.47      0.00
    5  -12    8      1.92      0.00
    6  -12    8      4.13      0.00
  -15  -11    8     -4.44      0.00
  -14  -11    8     -1.55      0.00
  -12  -11    8     -6.34      0.00
  -11  -11    8     -9.08      0.00
  -10  -11    8     -1.00      0.00
   -9  -11    8      1.27      0.00
   -8  -11    8      0.65      0.00
   -7  -11    8      2.52      0.00
   -6  -11    8      1.55      0.00
   -5  -11    8     -1.55      0.00
   -4  -11    8      0.27      0.00
   -3  -11    8     -2.47      0.00
   -2  -11    8     -6.01      0.00
   -1  -11    8     -3.24      0.00
    0  -11    8      0.07      0.00
    1  -11    8     -2.80      0.00
    2  -11    8      0.12      0.00
    3  -11    8      3.56      0.00
    4  -11    8     -2.30      0.00
    5  -11    8     -1.42      0.00
    6  -11    8     -0.06      0.00
    7  -11    8      2.49      0.00
    8  -11    8      5.51      0.00
  -17  -10    8     -1.56      0.00
  -16  -10    8     -2.20      0.00
  -15  -10    8      6.79      0.00
  -14  -10    8      5.74      0.00
  -13  -10    8     -2.11      0.00
  -12  -10    8     -1.69      0.00
  -11  -10    8      0.95      0.00
  -10  -10    8     -1.49      0.00
   -9  -10    8     -0.53      0.00
   -8  -10    8      0.10      0.00
   -7  -10    8      0.04      0.00
   -6  -10    8      0.85      0.00
   -5  -10    8      1.73      0.00
   -4  -10    8      0.90      0.00
   -3  -10    8      2.74      0.00
   -2  -10    8      3.48      0.00
   -1  -10    8     -1.52      0.00
    0  -10    8     -6.34      0.00
    1  -10    8     -3.69      0.00
    2  -10    8      0.83      0.00
    3  -10    8     -0.88      0.00
    4  -10    8      2.39      0.00
    5  -10    8      2.41      0.00
    6  -10    8      0.19      0.00
    7  -10    8     -0.79      0.00
    8  -10    8     -3.27      0.00
    9  -10    8      1.44      0.00
  -18   -9    8     -4.46      0.00
  -17   -9    8     -7.70      0.00
  -16   -9    8     -5.64      0.00
  -15   -9    8     -6.52      0.00
  -14   -9    8      1.15      0.00
  -13   -9    8      5.43      0.00
  -12   -9    8      0.71      0.00
  -11   -9    8     -3.43      0.00
  -10   -9    8     -0.48      0.00
   -9   -9    8      4.70      0.00
   -8   -9    8      7.62      0.00
   -7   -9    8      4.25      0.00
   -6   -9    8      1.78      0.00
   -5   -9    8      1.65      0.00
   -4   -9    8      0.29      0.00
   -3   -9    8     -1.87      0.00
   -2   -9    8     -2.54      0.00
   -1   -9    8     -3.77      0.00
    0   -9    8     -3.27      0.00
    1   -9    8     -2.10      0.00
    2   -9    8     -4.69      0.00
    3   -9    8     -1.86      0.00
    4   -9    8      2.15      0.00
    5   -9    8      1.99      0.00
    6   -9    8      1.40      0.00
    7   -9    8      1.89      0.00
    8   -9    8      5.19      0.00
    9   -9    8     -0.84      0.00
   10   -9    8     -0.19      0.00
  -18   -8    8      0.92      0.00
  -17   -8    8      2.13      0.00
  -16   -8    8      3.03      0.00
  -15   -8    8      5.83      0.00
  -14   -8    8     -0.52      0.00
  -13   -8    8     -3.65      0.00
  -12   -8    8     -1.78      0.00
  -11   -8    8      0.25      0.00
  -10   -8    8      1.63      0.00
   -9   -8    8     -3.03      0.00
   -8   -8    8     -7.57      0.00
   -7   -8    8     -1.59      0.00
   -6   -8    8      2.98      0.00
   -5   -8    8     -0.18      0.00
   -4   -8    8     -3.28      0.00
   -3   -8    8     -3.19      0.00
   -2   -8    8     -3.57      0.00
   -1   -8    8      0.00      0.00
    0   -8    8     -0.18      0.00
    1   -8    8     -4.33      0.00
    2   -8    8     -2.03      0.00
    3   -8    8      1.22      0.00
    4   -8    8     -1.94      0.00
    5   -8    8     -1.34      0.00
    6   -8    8      3.95      0.00
    7   -8    8      3.82      0.00
    8   -8    8     -1.60      0.00
    9   -8    8      4.20      0.00
   10   -8    8      4.83      0.00
   11   -8    8      0.45      0.00
   12   -8    8      4.84      0.00
  -18   -7    8      6.69      0.00
  -17   -7    8      8.86      0.00
  -16   -7    8      5.02      0.00
  -15   -7    8     -1.67      0.00
  -14   -7    8      0.43      0.00
  -13   -7    8      1.37      0.00
  -12   -7    8      0.34      0.00
  -11   -7    8      2.08      0.00
  -10   -7    8      0.70      0.00
   -9   -7    8      1.95      0.00
   -8   -7    8      6.54      0.00
   -7   -7    8      6.35      0.00
   -6   -7    8      3.53      0.00
   -5   -7    8      4.54      0.00
   -4   -7    8      6.46      0.00
   -3   -7    8      3.33      0.00
   -2   -7    8      0.35      0.00
    1   -7    8      3.06      0.00
    2   -7    8      0.21      0.00
    3   -7    8     -4.75      0.00
    4   -7    8     -2.43      0.00
    5   -7    8      1.64      0.00
    6   -7    8     -4.92      0.00
    7   -7    8     -7.19      0.00
    8   -7    8     -0.07      0.00
    9   -7    8      0.60      0.00
   10   -7    8      0.44      0.00
   11   -7    8      5.55      0.00
   12   -7    8     -0.96      0.00
   13   -7    8     -2.54      0.00
  -18   -6    8      5.80      0.00
  -17   -6    8      1.54      0.00
  -15   -6    8     -4.82      0.00
  -14   -6    8     -5.38      0.00
  -13   -6    8     -4.21      0.00
  -12   -6    8      0.50      0.00
  -11   -6    8      1.27      0.00
  -10   -6    8     -0.71      0.00
   -9   -6    8     -1.51      0.00
   -8   -6    8     -1.02      0.00
   -7   -6    8     -2.11      0.00
   -6   -6    8      0.76      0.00
   -5   -6    8      2.37      0.00
   -4   -6    8     -1.07      0.00
   -3   -6    8     -0.64      0.00
   -2   -6    8      1.97      0.00
   -1   -6    8      3.77      0.00
    0   -6    8     -0.90      0.00
    1   -6    8     -5.94      0.00
    2   -6    8     -0.47      0.00
    3   -6    8      3.20      0.00
    4   -6    8      4.40      0.00
    5   -6    8     -2.61      0.00
    6   -6    8     -1.34      0.00
    7   -6    8      3.40      0.00
    8   -6    8      3.04      0.00
    9   -6    8     -0.12      0.00
   10   -6    8     -1.75      0.00
   11   -6    8     -8.82      0.00
   12   -6    8     -5.73      0.00
   13   -6    8     -2.23      0.00
   14   -6    8      1.36      0.00
  -18   -5    8      7.23      0.00
  -17   -5    8      5.69      0.00
  -16   -5    8      3.46      0.00
  -15   -5    8     -1.09      0.00
  -14   -5    8     -2.54      0.00
  -13   -5    8     -0.54      0.00
  -12   -5    8     -3.93      0.00
  -11   -5    8     -8.62      0.00
  -10   -5    8     -2.63      0.00
   -9   -5    8      2.29      0.00
   -8   -5    8     -2.27      0.00
   -7   -5    8     -2.16      0.00
   -6   -5    8     -2.35      0.00
   -5   -5    8     -3.23      0.00
   -4   -5    8     -0.57      0.00
   -3   -5    8     -0.50      0.00
   -2   -5    8     -3.01      0.00
   -1   -5    8     -1.43      0.00
    0   -5    8      4.37      0.00
    1   -5    8      7.19      0.00
    2   -5    8     -0.33      0.00
    3   -5    8      3.09      0.00
    4   -5    8      1.45      0.00
    5   -5    8      1.79      0.00
    6   -5    8      3.58      0.00
    7   -5    8      1.55      0.00
    8   -5    8     -2.84      0.00
    9   -5    8     -1.62      0.00
   10   -5    8     -2.55      0.00
   11   -5    8     -1.98      0.00
   12   -5    8     -3.92      0.00
   13   -5    8     -5.17      0.00
   14   -5    8     -7.39      0.00
   15   -5    8     -7.02      0.00
  -18   -4    8     -7.92      0.00
  -17   -4    8     -7.32      0.00
  -16   -4    8     -5.70      0.00
  -15   -4    8     -0.85      0.00
  -14   -4    8      4.07      0.00
  -13   -4    8      2.16      0.00
  -12   -4    8     -1.00      0.00
  -11   -4    8      3.32      0.00
  -10   -4    8     -0.91      0.00
   -9   -4    8     -5.59      0.00
   -8   -4    8      0.72      0.00
   -7   -4    8      2.17      0.00
   -6   -4    8      0.37      0.00
   -5   -4    8      0.75      0.00
   -4   -4    8      1.63      0.00
   -3   -4    8      2.36      0.00
   -2   -4    8      5.56      0.00
   -1   -4    8      4.73      0.00
    0   -4    8     -2.82      0.00
    1   -4    8     -6.52      0.00
    2   -4    8      2.83      0.00
    3   -4    8     -3.13      0.00
    4   -4    8     -5.76      0.00
    5   -4    8      1.26      0.00
    6   -4    8      0.82      0.00
    7   -4    8     -1.39      0.00
    8   -4    8      0.56      0.00
    9   -4    8     -0.21      0.00
   10   -4    8     -1.06      0.00
   11   -4    8      0.32      0.00
   12   -4    8     -0.09      0.00
   13   -4    8     -0.48      0.00
   14   -4    8      1.42      0.00
   15   -4    8      5.14      0.00
  -18   -3    8      5.34      0.00
  -17   -3    8      2.87      0.00
  -16   -3    8      0.26      0.00
  -15   -3    8      3.00      0.00
  -14   -3    8      4.40      0.00
  -13   -3    8      2.91      0.00
  -12   -3    8      3.56      0.00
  -11   -3    8     -1.21      0.00
  -10   -3    8     -0.52      0.00
   -9   -3    8      2.09      0.00
   -8   -3    8     -2.82      0.00
   -7   -3    8     -1.83      0.00
   -6   -3    8      3.41      0.00
   -5   -3    8      2.59      0.00
   -4   -3    8     -4.85      0.00
   -3   -3    8     -4.24      0.00
   -2   -3    8     -0.52      0.00
   -1   -3    8     -2.42      0.00
    0   -3    8      0.19      0.00
    1   -3    8      3.16      0.00
    2   -3    8     -4.75      0.00
    3   -3    8     -0.92      0.00
    4   -3    8      7.62      0.00
    5   -3    8      1.53      0.00
    6   -3    8      0.76      0.00
    7   -3    8      0.52      0.00
    8   -3    8     -0.74      0.00
    9   -3    8     -1.43      0.00
   10   -3    8      1.64      0.00
   11   -3    8     -1.65      0.00
   12   -3    8     -5.41      0.00
   13   -3    8     -5.93      0.00
   14   -3    8     -0.09      0.00
   15   -3    8     -0.90      0.00
   16   -3    8     -2.09      0.00
  -18   -2    8     -6.25      0.00
  -17   -2    8    -10.06      0.00
  -16   -2    8     -5.70      0.00
  -15   -2    8     -5.31      0.00
  -14   -2    8     -7.37      0.00
  -13   -2    8     -4.86      0.00
  -12   -2    8     -1.95      0.00
  -11   -2    8      1.41      0.00
  -10   -2    8      1.40      0.00
   -9   -2    8     -1.60      0.00
   -8   -2    8      3.64      0.00
   -7   -2    8      4.12      0.00
   -6   -2    8     -0.23      0.00
   -5   -2    8     -3.91      0.00
   -4   -2    8      1.14      0.00
   -3   -2    8     -1.82      0.00
   -2   -2    8    -10.09      0.00
   -1   -2    8     -5.13      0.00
    0   -2    8     -0.79      0.00
    1   -2    8     -1.48      0.00
    2   -2    8      4.47      0.00
    3   -2    8      6.23      0.00
    4   -2    8     -0.79      0.00
    5   -2    8      4.06      0.00
    6   -2    8      3.73      0.00
    7   -2    8      2.91      0.00
    8   -2    8     -0.97      0.00
    9   -2    8      1.78      0.00
   10   -2    8      0.98      0.00
   11   -2    8     -0.63      0.00
   12   -2    8     -0.77      0.00
   13   -2    8      2.21      0.00
   14   -2    8     -1.61      0.00
   15   -2    8      2.21      0.00
   16   -2    8      8.51      0.00
   17   -2    8      2.27      0.00
  -18   -1    8     -4.43      0.00
  -17   -1    8      1.60      0.00
  -16   -1    8      1.74      0.00
  -15   -1    8      1.71      0.00
  -14   -1    8      2.62      0.00
  -13   -1    8      3.12      0.00
  -12   -1    8      2.06      0.00
  -11   -1    8      2.76      0.00
  -10   -1    8      1.35      0.00
   -9   -1    8      4.10      0.00
   -8   -1    8     -0.16      0.00
   -7   -1    8      2.87      0.00
   -6   -1    8      4.28      0.00
   -5   -1    8      4.66      0.00
   -4   -1    8     -2.75      0.00
   -3   -1    8     -5.68      0.00
   -2   -1    8     -3.58      0.00
   -1   -1    8    -10.63      0.00
    0   -1    8    -14.35      0.00
    1   -1    8     -6.29      0.00
    2   -1    8     -3.80      0.00
    3   -1    8     -7.20      0.00
    4   -1    8     -3.49      0.00
    5   -1    8     -2.47      0.00
    6   -1    8      1.90      0.00
    7   -1    8     -1.05      0.00
    8   -1    8      1.91      0.00
    9   -1    8      0.71      0.00
   10   -1    8     -1.72      0.00
   11   -1    8      0.48      0.00
   12   -1    8      2.89      0.00
   13   -1    8      1.54      0.00
   14   -1    8      7.49      0.00
   15   -1    8      4.46      0.00
   16   -1    8     -6.97      0.00
   17   -1    8     -4.12      0.00
   18   -1    8      3.01      0.00
  -18    0    8     -7.02      0.00
  -17    0    8     -6.39      0.00
  -16    0    8     -2.75      0.00
  -15    0    8     -1.68      0.00
  -14    0    8      0.26      0.00
  -13    0    8      1.92      0.00
  -12    0    8      4.27      0.00
  -11    0    8      1.24      0.00
  -10    0    8      0.73      0.00
   -9    0    8     -3.72      0.00
   -8    0    8      1.76      0.00
   -7    0    8     -2.04      0.00
   -6    0    8     -2.80      0.00
   -5    0    8     -2.68      0.00
   -4    0    8     -2.98      0.00
   -3    0    8     -4.65      0.00
   -2    0    8     -5.82      0.00
   -1    0    8     -2.16      0.00
    0    0    8      1.63      0.00
    1    0    8     -1.82      0.00
    2    0    8     -1.32      0.00
    3    0    8      2.15      0.00
    4    0    8      3.45      0.00
    5    0    8      5.21      0.00
    6    0    8     -0.11      0.00
    7    0    8      0.43      0.00
    8    0    8     -4.47      0.00
    9    0    8     -8.26      0.00
   10    0    8     -2.87      0.00
   11    0    8     -4.19      0.00
   12    0    8     -8.58      0.00
   13    0    8     -6.85      0.00
   14    0    8     -7.67      0.00
   15    0    8     -4.46      0.00
   16    0    8      2.99      0.00
   17    0    8      2.56      0.00
   18    0    8      2.81      0.00
  -17    1    8      0.11      0.00
  -16    1    8     -2.70      0.00
  -15    1    8     -1.00      0.00
  -14    1    8     -0.22      0.00
  -13    1    8     -0.51      0.00
  -12    1    8     -0.14      0.00
  -11    1    8      0.44      0.00
  -10    1    8     -2.28      0.00
   -9    1    8      1.78      0.00
   -8    1    8     -2.55      0.00
   -7    1    8     -0.32      0.00
   -6    1    8     -1.01      0.00
   -5    1    8     -9.54      0.00
   -4    1    8     -9.46      0.00
   -3    1    8     -5.07      0.00
   -2    1    8     -4.75      0.00
   -1    1    8     -6.22      0.00
    0    1    8     -1.75      0.00
    1    1    8      6.51      0.00
    2    1    8      6.57      0.00
    3    1    8      7.69      0.00
    4    1    8      8.24      0.00
    5    1    8      1.97      0.00
    6    1    8      2.75      0.00
    7    1    8     -1.15      0.00
    8    1    8     -5.15      0.00
    9    1    8     -0.92      0.00
   10    1    8     -4.29      0.00
   11    1    8     -2.76      0.00
   12    1    8      1.06      0.00
   13    1    8      0.23      0.00
   14    1    8     -1.03      0.00
   15    1    8     -4.77      0.00
   16    1    8     -7.16      0.00
   17    1    8      0.52      0.00
   18    1    8      1.53      0.00
   19    1    8      6.11      0.00
  -17    2    8      2.69      0.00
  -16    2    8      2.94      0.00
  -15    2    8     -3.77      0.00
  -14    2    8     -6.41      0.00
  -13    2    8     -0.99      0.00
  -12    2    8     -1.37      0.00
  -11    2    8     -0.82      0.00
  -10    2    8      2.55      0.00
   -9    2    8     -3.71      0.00
   -8    2    8     -5.15      0.00
   -7    2    8     -5.09      0.00
   -6    2    8     -8.64      0.00
   -5    2    8     -3.49      0.00
   -4    2    8     -6.46      0.00
   -3    2    8     -8.94      0.00
   -2    2    8     -4.74      0.00
   -1    2    8      1.40      0.00
    0    2    8     -4.90      0.00
    1    2    8     -9.03      0.00
    2    2    8      1.84      0.00
    3    2    8     -1.76      0.00
    4    2    8    -16.87      0.00
    5    2    8    -11.80      0.00
    6    2    8     -7.01      0.00
    7    2    8     -5.39      0.00
    8    2    8      1.37      0.00
    9    2    8     -3.01      0.00
   10    2    8     -3.64      0.00
   11    2    8     -2.99      0.00
   12    2    8      0.15      0.00
   13    2    8      3.59      0.00
   14    2    8      1.00      0.00
   15    2    8     -0.65      0.00
   16    2    8      2.24      0.00
   17    2    8     -2.84      0.00
   18    2    8      1.19      0.00
   19    2    8     -9.02      0.00
  -16    3    8     -3.73      0.00
  -15    3    8     -0.38      0.00
  -14    3    8      1.89      0.00
  -13    3    8     -4.00      0.00
  -12    3    8     -1.86      0.00
  -11    3    8      0.28      0.00
  -10    3    8     -4.70      0.00
   -9    3    8     -3.93      0.00
   -8    3    8     -2.43      0.00
   -7    3    8     -5.57      0.00
   -6    3    8     -2.75      0.00
   -5    3    8     -4.76      0.00
   -4    3    8      2.18      0.00
   -3    3    8      8.03      0.00
   -2    3    8      3.85      0.00
   -1    3    8     -9.39      0.00
    0    3    8     -4.28      0.00
    1    3    8      5.80      0.00
    2    3    8    -12.15      0.00
    3    3    8    -23.48      0.00
    4    3    8    -10.21      0.00
    5    3    8    -15.30      0.00
    6    3    8    -19.70      0.00
    7    3    8     -9.16      0.00
    8    3    8    -10.66      0.00
    9    3    8     -8.23      0.00
   10    3    8     -1.27      0.00
   11    3    8      3.97      0.00
   12    3    8      3.49      0.00
   13    3    8      0.04      0.00
   14    3    8      1.09      0.00
   15    3    8     -0.59      0.00
   16    3    8     -7.27      0.00
   17    3    8     -1.53      0.00
   18    3    8     -7.45      0.00
   19    3    8      1.68      0.00
   20    3    8      7.77      0.00
  -16    4    8     -4.13      0.00
  -15    4    8     -4.35      0.00
  -14    4    8     -2.74      0.00
  -13    4    8     -0.62      0.00
  -12    4    8     -2.67      0.00
  -11    4    8     -5.63      0.00
  -10    4    8     -3.47      0.00
   -9    4    8     -7.00      0.00
   -8    4    8    -11.71      0.00
   -7    4    8     -8.96      0.00
   -6    4    8     -5.97      0.00
   -5    4    8     -2.23      0.00
   -4    4    8     -2.80      0.00
   -3    4    8     -2.89      0.00
   -2    4    8     -1.02      0.00
   -1    4    8      5.71      0.00
    0    4    8      3.66      0.00
    1    4    8     -9.76      0.00
    2    4    8     -0.05      0.00
    3    4    8      6.05      0.00
    4    4    8    -15.67      0.00
    5    4    8    -12.91      0.00
    6    4    8      2.98      0.00
    7    4    8     -5.59      0.00
    8    4    8     -6.64      0.00
    9    4    8     -2.01      0.00
   10    4    8     -5.26      0.00
   11    4    8     -7.86      0.00
   12    4    8     -5.15      0.00
   13    4    8     -0.02      0.00
   14    4    8     -0.73      0.00
   15    4    8      2.64      0.00
   16    4    8     10.45      0.00
   17    4    8      3.06      0.00
   18    4    8      4.98      0.00
   19    4    8      0.21      0.00
   20    4    8     -3.90      0.00
  -15    5    8      8.98      0.00
  -14    5    8      4.33      0.00
  -13    5    8      2.91      0.00
  -12    5    8      1.59      0.00
  -11    5    8      1.58      0.00
  -10    5    8     -2.74      0.00
   -9    5    8     -4.99      0.00
   -8    5    8     -4.75      0.00
   -7    5    8     -2.35      0.00
   -6    5    8     -3.67      0.00
   -5    5    8     -1.41      0.00
   -4    5    8      4.46      0.00
   -3    5    8      5.11      0.00
   -2    5    8     -0.54      0.00
   -1    5    8     -2.06      0.00
    0    5    8     -3.96      0.00
    1    5    8      3.96      0.00
    2    5    8     -7.31      0.00
    3    5    8    -20.95      0.00
    4    5    8     -4.69      0.00
    5    5    8     -1.25      0.00
    6    5    8    -18.94      0.00
    7    5    8    -11.46      0.00
    8    5    8     -1.77      0.00
    9    5    8     -5.04      0.00
   10    5    8     -5.57      0.00
   11    5    8     -2.74      0.00
   12    5    8     -1.50      0.00
   13    5    8     -3.83      0.00
   14    5    8     -1.94      0.00
   15    5    8     -3.11      0.00
   16    5    8     -5.36      0.00
   17    5    8      0.76      0.00
   18    5    8     -2.07      0.00
   19    5    8      0.19      0.00
   20    5    8      7.34      0.00
  -15    6    8     -4.12      0.00
  -14    6    8      0.86      0.00
  -13    6    8     -2.95      0.00
  -12    6    8     -3.89      0.00
  -11    6    8     -1.36      0.00
  -10    6    8     -0.53      0.00
   -9    6    8     -0.01      0.00
   -8    6    8      3.03      0.00
   -7    6    8     -0.14      0.00
   -6    6    8      1.25      0.00
   -5    6    8      2.59      0.00
   -4    6    8     -1.26      0.00
   -3    6    8     -4.50      0.00
   -2    6    8      0.38      0.00
   -1    6    8     -4.39      0.00
    0    6    8     -3.32      0.00
    1    6    8     -8.48      0.00
    2    6    8     -5.40      0.00
    3    6    8      5.05      0.00
    4    6    8     -1.67      0.00
    5    6    8     -5.68      0.00
    6    6    8     10.83      0.00
    7    6    8     12.53      0.00
    8    6    8      5.77      0.00
    9    6    8      6.60      0.00
   10    6    8      9.31      0.00
   11    6    8      4.98      0.00
   12    6    8      1.30      0.00
   13    6    8      3.66      0.00
   14    6    8      3.48      0.00
   15    6    8      7.18      0.00
   16    6    8      8.67      0.00
   17    6    8      1.38      0.00
   18    6    8      0.09      0.00
   19    6    8     -0.50      0.00
   20    6    8     -4.63      0.00
   21    6    8      2.28      0.00
  -14    7    8    -10.61      0.00
  -13    7    8     -5.46      0.00
  -12    7    8      2.58      0.00
  -11    7    8      1.43      0.00
  -10    7    8      3.02      0.00
   -9    7    8      4.54      0.00
   -8    7    8      2.14      0.00
   -7    7    8      4.76      0.00
   -6    7    8      6.56      0.00
   -5    7    8      3.14      0.00
   -4    7    8      0.48      0.00
   -3    7    8     -1.20      0.00
   -2    7    8     -9.78      0.00
   -1    7    8     -6.61      0.00
    0    7    8     -7.29      0.00
    1    7    8     -8.90      0.00
    2    7    8     -7.88      0.00
    3    7    8     -7.12      0.00
    4    7    8     -2.05      0.00
    5    7    8      1.42      0.00
    6    7    8     -3.19      0.00
    7    7    8     -0.48      0.00
    8    7    8      3.85      0.00
    9    7    8      1.78      0.00
   10    7    8     -7.48      0.00
   11    7    8     -1.40      0.00
   12    7    8      9.07      0.00
   13    7    8      6.97      0.00
   14    7    8      5.96      0.00
   15    7    8      4.83      0.00
   16    7    8      0.26      0.00
   17    7    8     -1.75      0.00
   18    7    8     -4.25      0.00
   19    7    8     -1.66      0.00
   20    7    8      5.18      0.00
   21    7    8     -3.04      0.00
  -14    8    8      3.83      0.00
  -13    8    8      4.57      0.00
  -12    8    8     -1.64      0.00
  -11    8    8     -0.73      0.00
  -10    8    8     -1.57      0.00
   -9    8    8     -0.19      0.00
   -8    8    8      4.20      0.00
   -7    8    8      4.41      0.00
   -6    8    8      1.87      0.00
   -5    8    8      3.51      0.00
   -4    8    8      3.65      0.00
   -3    8    8     -0.41      0.00
   -2    8    8      2.62      0.00
   -1    8    8      2.45      0.00
    0    8    8      0.02      0.00
    1    8    8      2.24      0.00
    2    8    8      5.04      0.00
    3    8    8      3.27      0.00
    4    8    8     -0.22      0.00
    5    8    8      2.52      0.00
    6    8    8      5.33      0.00
    7    8    8      2.09      0.00
    8    8    8     -0.87      0.00
    9    8    8     -5.69      0.00
   10    8    8      3.11      0.00
   11    8    8      3.95      0.00
   12    8    8     -5.03      0.00
   13    8    8     -2.65      0.00
   14    8    8      0.69      0.00
   15    8    8     -1.86      0.00
   16    8    8     -1.54      0.00
   17    8    8     -3.96      0.00
   18    8    8     -4.58      0.00
   19    8    8     -2.28      0.00
   20    8    8     -5.55      0.00
   21    8    8      1.68      0.00
  -13    9    8     -1.72      0.00
  -12    9    8     -0.01      0.00
  -11    9    8     -1.97      0.00
  -10    9    8     -1.46      0.00
   -9    9    8     -0.45      0.00
   -8    9    8     -3.32      0.00
   -7    9    8     -2.09      0.00
   -6    9    8     -0.01      0.00
   -5    9    8     -2.53      0.00
   -4    9    8     -4.60      0.00
   -3    9    8      0.81      0.00
   -2    9    8      3.54      0.00
   -1    9    8     -2.38      0.00
    0    9    8     -4.73      0.00
    1    9    8     -2.51      0.00
    2    9    8     -1.31      0.00
    3    9    8      1.76      0.00
    4    9    8      6.15      0.00
    5    9    8      1.43      0.00
    6    9    8     -0.39      0.00
    7    9    8      3.83      0.00
    8    9    8      1.36      0.00
    9    9    8      4.49      0.00
   10    9    8      0.42      0.00
   11    9    8     -4.04      0.00
   12    9    8      2.57      0.00
   13    9    8      4.66      0.00
   14    9    8      2.04      0.00
   15    9    8      3.90      0.00
   16    9    8     -1.02      0.00
   17    9    8     -3.53      0.00
   18    9    8     -1.21      0.00
   19    9    8     -5.39      0.00
   20    9    8     -3.27      0.00
   21    9    8     -3.06      0.00
  -12   10    8      0.33      0.00
  -11   10    8      1.02      0.00
  -10   10    8      3.78      0.00
   -9   10    8      2.01      0.00
   -8   10    8      5.48      0.00
   -7   10    8      2.45      0.00
   -6   10    8      0.04      0.00
   -5   10    8      2.18      0.00
   -4   10    8      3.99      0.00
   -3   10    8      0.82      0.00
   -2   10    8     -4.00      0.00
   -1   10    8      0.95      0.00
    0   10    8      4.56      0.00
    1   10    8     -0.50      0.00
    2   10    8     -1.55      0.00
    3   10    8      1.48      0.00
    4   10    8     -1.53      0.00
    5   10    8      1.23      0.00
    6   10    8      5.32      0.00
    7   10    8      0.60      0.00
    8   10    8      0.92      0.00
    9   10    8     -0.25      0.00
   10   10    8     -2.20      0.00
   11   10    8      2.93      0.00
   12   10    8      3.72      0.00
   13   10    8      0.17      0.00
   14   10    8      0.62      0.00
   15   10    8     -3.31      0.00
   16   10    8     -3.45      0.00
   17   10    8     -3.01      0.00
   18   10    8     -7.93      0.00
   19   10    8     -3.78      0.00
   20   10    8     -1.05      0.00
   21   10    8      0.19      0.00
   22   10    8      7.85      0.00
  -11   11    8     -0.43      0.00
  -10   11    8     -6.19      0.00
   -9   11    8     -2.18      0.00
   -8   11    8     -5.46      0.00
   -7   11    8     -3.41      0.00
   -6   11    8     -1.66      0.00
   -5   11    8     -5.93      0.00
   -4   11    8     -6.85      0.00
   -3   11    8     -3.47      0.00
   -2   11    8      0.72      0.00
   -1   11    8     -2.86      0.00
    0   11    8     -6.68      0.00
    1   11    8     -1.21      0.00
    2   11    8     -0.09      0.00
    3   11    8     -7.64      0.00
    4   11    8     -3.19      0.00
    5   11    8      4.76      0.00
    6   11    8      2.00      0.00
    7   11    8      2.50      0.00
    8   11    8      2.95      0.00
    9   11    8     -0.85      0.00
   10   11    8      2.66      0.00
   11   11    8      2.20      0.00
   12   11    8     -1.80      0.00
   13   11    8      1.90      0.00
   14   11    8      1.77      0.00
   15   11    8      1.96      0.00
   16   11    8      4.10      0.00
   17   11    8      5.76      0.00
   18   11    8      6.52      0.00
   19   11    8     -0.87      0.00
   20   11    8     -4.54      0.00
   21   11    8     -0.19      0.00
   22   11    8     -3.25      0.00
  -10   12    8      0.57      0.00
   -9   12    8     -2.53      0.00
   -8   12    8      3.21      0.00
   -7   12    8      3.61      0.00
   -6   12    8     -1.00      0.00
   -5   12    8      2.63      0.00
   -4   12    8      6.33      0.00
   -3   12    8      4.31      0.00
   -2   12    8      1.05      0.00
   -1   12    8      1.93      0.00
    0   12    8      4.43      0.00
    1   12    8      0.40      0.00
    2   12    8     -4.40      0.00
    3   12    8      0.30      0.00
    4   12    8      0.47      0.00
    5   12    8     -5.11      0.00
    6   12    8     -0.45      0.00
    7   12    8      2.61      0.00
    8   12    8      0.63      0.00
    9   12    8      4.31      0.00
   10   12    8     -0.44      0.00
   11   12    8     -4.79      0.00
   12   12    8      0.38      0.00
   13   12    8     -1.57      0.00
   14   12    8     -3.83      0.00
   15   12    8     -2.48      0.00
   16   12    8     -0.52      0.00
   17   12    8     -2.12      0.00
   18   12    8     -2.23      0.00
   19   12    8      2.83      0.00
   20   12    8      4.21      0.00
   21   12    8      0.10      0.00
   22   12    8     -0.21      0.00
   -9   13    8      1.90      0.00
   -8   13    8     -4.33      0.00
   -7   13    8     -5.71      0.00
   -6   13    8      1.40      0.00
   -5   13    8      4.29      0.00
   -4   13    8      1.39      0.00
   -3   13    8      0.79      0.00
   -2   13    8     -1.09      0.00
   -1   13    8     -2.39      0.00
    0   13    8     -2.05      0.00
    1   13    8     -1.78      0.00
    2   13    8      0.66      0.00
    3   13    8      2.22      0.00
    4   13    8      3.40      0.00
    5   13    8      5.92      0.00
    6   13    8      5.11      0.00
    7   13    8      8.68      0.00
    8   13    8     12.84      0.00
    9   13    8      7.04      0.00
   10   13    8      4.29      0.00
   11   13    8      4.09      0.00
   12   13    8     -1.01      0.00
   13   13    8     -1.38      0.00
   14   13    8     -2.33      0.00
   15   13    8     -1.51      0.00
   16   13    8     -1.60      0.00
   17   13    8      3.73      0.00
   18   13    8      3.43      0.00
   19   13    8     -5.93      0.00
   20   13    8     -6.79      0.00
   21   13    8     -3.52      0.00
   22   13    8     -3.00      0.00
   -8   14    8      6.92      0.00
   -7   14    8      4.29      0.00
   -6   14    8     -1.08      0.00
   -5   14    8     -3.61      0.00
   -4   14    8     -1.31      0.00
   -3   14    8     -1.91      0.00
   -2   14    8     -0.48      0.00
   -1   14    8      0.66      0.00
    0   14    8     -1.77      0.00
    1   14    8      0.49      0.00
    2   14    8      4.08      0.00
    3   14    8      2.90      0.00
    4   14    8      1.13      0.00
    5   14    8      2.64      0.00
    6   14    8      2.44      0.00
    7   14    8     -3.82      0.00
    8   14    8     -3.64      0.00
    9   14    8      1.25      0.00
   10   14    8      0.41      0.00
   11   14    8      0.17      0.00
   12   14    8      3.20      0.00
   13   14    8     -0.10      0.00
   14   14    8      2.42      0.00
   15   14    8      0.74      0.00
   16   14    8      4.49      0.00
   17   14    8      2.81      0.00
   18   14    8     -1.61      0.00
   19   14    8      5.45      0.00
   20   14    8      5.10      0.00
   21   14    8      2.84      0.00
   -7   15    8     -3.28      0.00
   -6   15    8     -2.49      0.00
   -5   15    8     -1.63      0.00
   -4   15    8      2.62      0.00
   -3   15    8      5.57      0.00
   -2   15    8      2.14      0.00
   -1   15    8     -1.76      0.00
    0   15    8      2.49      0.00
    1   15    8      4.05      0.00
    2   15    8      2.46      0.00
    3   15    8      2.03      0.00
    4   15    8      3.44      0.00
    5   15    8     -1.32      0.00
    6   15    8     -2.74      0.00
    7   15    8      6.28      0.00
    8   15    8      5.25      0.00
    9   15    8     -0.68      0.00
   10   15    8      1.03      0.00
   11   15    8      1.70      0.00
   12   15    8     -3.20      0.00
   13   15    8      1.61      0.00
   14   15    8     -2.57      0.00
   15   15    8     -0.75      0.00
   16   15    8     -2.47      0.00
   17   15    8     -3.59      0.00
   18   15    8      4.32      0.00
   19   15    8     -0.15      0.00
   20   15    8     -1.28      0.00
   -6   16    8      0.02      0.00
   -5   16    8      5.01      0.00
   -4   16    8     -0.32      0.00
   -3   16    8     -3.76      0.00
   -2   16    8     -0.19      0.00
   -1   16    8      3.60      0.00
    0   16    8      0.56      0.00
    1   16    8      0.30      0.00
    2   16    8     -0.31      0.00
    3   16    8      2.94      0.00
    4   16    8      1.21      0.00
    5   16    8      1.68      0.00
    6   16    8      3.54      0.00
    7   16    8     -2.56      0.00
    8   16    8     -1.89      0.00
    9   16    8      2.55      0.00
   10   16    8     -0.53      0.00
   11   16    8     -4.31      0.00
   12   16    8      5.39      0.00
   13   16    8      3.89      0.00
   14   16    8      2.66      0.00
   15   16    8     -0.49      0.00
   16   16    8      1.46      0.00
   17   16    8      9.63      0.00
   18   16    8      2.06      0.00
   19   16    8     -0.21      0.00
   20   16    8     -0.90      0.00
   21   16    8     -1.99      0.00
   -5   17    8     -4.51      0.00
   -4   17    8      0.03      0.00
   -3   17    8      3.46      0.00
   -2   17    8     -1.24      0.00
   -1   17    8     -2.92      0.00
    0   17    8      0.29      0.00
    1   17    8     -0.64      0.00
    2   17    8      4.83      0.00
    3   17    8      4.04      0.00
    4   17    8      3.60      0.00
    5   17    8      3.65      0.00
    6   17    8     -0.62      0.00
    7   17    8      1.91      0.00
    8   17    8      4.50      0.00
    9   17    8      2.10      0.00
   10   17    8      1.35      0.00
   11   17    8      8.69      0.00
   12   17    8      3.46      0.00
   13   17    8     -0.25      0.00
   14   17    8      1.61      0.00
   15   17    8      2.97      0.00
   16   17    8      6.35      0.00
   17   17    8      1.52      0.00
   18   17    8      5.61      0.00
   19   17    8      6.76      0.00
   20   17    8      5.27      0.00
   -3   18    8     -7.51      0.00
   -2   18    8     -1.33      0.00
   -1   18    8      0.01      0.00
    0   18    8     -2.68      0.00
    1   18    8     -0.92      0.00
    2   18    8     -5.11      0.00
    3   18    8     -3.35      0.00
    4   18    8      2.15      0.00
    5   18    8      1.55      0.00
    6   18    8      3.05      0.00
    7   18    8      0.93      0.00
    8   18    8     -2.84      0.00
    9   18    8     -4.26      0.00
   10   18    8     -0.08      0.00
   11   18    8      0.78      0.00
   12   18    8      5.32      0.00
   13   18    8      8.17      0.00
   14   18    8     -0.46      0.00
   15   18    8     -0.39      0.00
   16   18    8      0.38      0.00
   17   18    8      4.39      0.00
   18   18    8      1.69      0.00
   19   18    8     -1.96      0.00
   20   18    8     -3.12      0.00
   -1   19    8      0.65      0.00
    0   19    8     -0.73      0.00
    1   19    8     -3.13      0.00
    2   19    8      1.82      0.00
    3   19    8      5.23      0.00
    4   19    8     -1.02      0.00
    5   19    8     -4.33      0.00
    6   19    8     -4.96      0.00
    7   19    8     -0.72      0.00
    8   19    8     -1.32      0.00
    9   19    8     -2.07      0.00
   10   19    8     -0.63      0.00
   11   19    8      0.57      0.00
   12   19    8      0.78      0.00
   13   19    8     -1.82      0.00
   14   19    8      4.97      0.00
   15   19    8      5.95      0.00
   16   19    8      3.97      0.00
   17   19    8     -0.78      0.00
   18   19    8     -5.22      0.00
   19   19    8     -4.38      0.00
    0   20    8     -3.16      0.00
    1   20    8      0.97      0.00
    2   20    8      1.88      0.00
    3   20    8     -0.98      0.00
    4   20    8      1.61      0.00
    5   20    8      6.91      0.00
    8   20    8     -0.96      0.00
    9   20    8      5.67      0.00
   10   20    8      6.08      0.00
   11   20    8      7.65      0.00
   12   20    8      6.73      0.00
   13   20    8      5.62      0.00
   14   20    8      2.45      0.00
   15   20    8      0.16      0.00
   16   20    8     -0.36      0.00
   17   20    8     -0.82      0.00
   18   20    8      2.92      0.00
    3   21    8     -0.09      0.00
    4   21    8      3.67      0.00
    5   21    8      0.82      0.00
    6   21    8     -5.08      0.00
    7   21    8      2.27      0.00
   12   21    8      3.96      0.00
   13   21    8      4.23      0.00
   14   21    8      0.31      0.00
   15   21    8     -0.10      0.00
   16   21    8      1.07      0.00
   -9  -15    9      2.22      0.00
   -8  -15    9      0.74      0.00
   -7  -15    9      0.07      0.00
   -6  -15    9     -4.78      0.00
   -5  -15    9     -2.53      0.00
   -4  -15    9     -1.75      0.00
   -3  -15    9     -0.63      0.00
   -2  -15    9     -6.91      0.00
  -10  -14    9     -2.38      0.00
   -9  -14    9     -3.33      0.00
   -8  -14    9      1.77      0.00
   -7  -14    9      0.80      0.00
   -6  -14    9      4.12      0.00
   -5  -14    9      3.87      0.00
   -4  -14    9      3.07      0.00
   -3  -14    9      0.03      0.00
   -2  -14    9      3.89      0.00
   -1  -14    9      4.16      0.00
    0  -14    9      1.60      0.00
    1  -14    9     -0.57      0.00
  -10  -13    9      4.16      0.00
   -9  -13    9      1.29      0.00
   -8  -13    9     -8.92      0.00
   -7  -13    9     -9.53      0.00
   -6  -13    9     -9.13      0.00
   -5  -13    9     -5.91      0.00
   -4  -13    9     -4.65      0.00
   -3  -13    9     -5.12      0.00
   -2  -13    9     -5.05      0.00
   -1  -13    9      0.82      0.00
    0  -13    9      5.72      0.00
    1  -13    9      5.18      0.00
    2  -13    9      6.64      0.00
    3  -13    9      5.01      0.00
  -10  -12    9     -3.82      0.00
   -9  -12    9      1.18      0.00
   -8  -12    9      7.33      0.00
   -7  -12    9      6.37      0.00
   -6  -12    9      6.60      0.00
   -5  -12    9      3.97      0.00
   -4  -12    9      0.77      0.00
   -3  -12    9      1.67      0.00
   -2  -12    9      0.46      0.00
   -1  -12    9     -4.53      0.00
    0  -12    9     -6.74      0.00
    1  -12    9     -5.24      0.00
    2  -12    9     -7.70      0.00
    3  -12    9     -5.40      0.00
    4  -12    9     -6.61      0.00
    5  -12    9     -6.46      0.00
  -10  -11    9      1.75      0.00
   -9  -11    9     -3.63      0.00
   -8  -11    9     -5.70      0.00
   -7  -11    9     -3.56      0.00
   -6  -11    9     -3.73      0.00
   -5  -11    9     -0.78      0.00
   -4  -11    9      2.43      0.00
   -3  -11    9      0.15      0.00
   -2  -11    9      1.36      0.00
   -1  -11    9      5.94      0.00
    0  -11    9      5.34      0.00
    1  -11    9      2.09      0.00
    2  -11    9      5.71      0.00
    3  -11    9      5.98      0.00
    4  -11    9      7.12      0.00
    5  -11    9      8.49      0.00
    6  -11    9      1.15      0.00
    7  -11    9     -0.58      0.00
  -15  -10    9      5.12      0.00
  -14  -10    9     -1.63      0.00
  -13  -10    9     -2.57      0.00
  -12  -10    9      3.55      0.00
  -11  -10    9     -0.26      0.00
  -10  -10    9     -3.46      0.00
   -9  -10    9      3.48      0.00
   -8  -10    9      8.03      0.00
   -7  -10    9      6.61      0.00
   -6  -10    9      3.57      0.00
   -5  -10    9     -0.84      0.00
   -4  -10    9     -3.69      0.00
   -3  -10    9     -2.89      0.00
   -2  -10    9     -2.10      0.00
   -1  -10    9     -0.84      0.00
    0  -10    9      2.21      0.00
    1  -10    9      3.70      0.00
    2  -10    9      0.52      0.00
    3  -10    9      0.87      0.00
    4  -10    9      2.11      0.00
    5  -10    9     -3.36      0.00
    6  -10    9     -0.46      0.00
    7  -10    9      2.10      0.00
    8  -10    9      2.20      0.00
  -17   -9    9      6.22      0.00
  -16   -9    9      2.20      0.00
  -15   -9    9     -3.89      0.00
  -14   -9    9      1.04      0.00
  -13   -9    9      3.42      0.00
  -12   -9    9     -0.32      0.00
  -11   -9    9     -0.89      0.00
  -10   -9    9      1.72      0.00
   -9   -9    9      1.06      0.00
   -8   -9    9     -3.19      0.00
   -7   -9    9     -6.88      0.00
   -6   -9    9     -4.33      0.00
   -5   -9    9      0.10      0.00
   -4   -9    9      0.47      0.00
   -3   -9    9      0.54      0.00
   -2   -9    9      1.29      0.00
   -1   -9    9     -0.55      0.00
    0   -9    9     -2.19      0.00
    1   -9    9     -2.33      0.00
    2   -9    9      0.73      0.00
    3   -9    9      4.66      0.00
    4   -9    9      3.99      0.00
    5   -9    9      4.29      0.00
    6   -9    9      1.56      0.00
    7   -9    9     -0.43      0.00
    8   -9    9      0.21      0.00
    9   -9    9     -3.70      0.00
   10   -9    9      0.22      0.00
  -17   -8    9     -1.14      0.00
  -16   -8    9      1.88      0.00
  -15   -8    9      4.78      0.00
  -14   -8    9      0.67      0.00
  -13   -8    9      1.81      0.00
  -12   -8    9      2.28      0.00
  -11   -8    9      1.28      0.00
  -10   -8    9     -0.41      0.00
   -9   -8    9     -3.27      0.00
   -8   -8    9     -2.01      0.00
   -7   -8    9      1.87      0.00
   -6   -8    9      0.47      0.00
   -5   -8    9     -0.53      0.00
   -4   -8    9      1.84      0.00
   -3   -8    9      0.47      0.00
   -2   -8    9     -1.96      0.00
   -1   -8    9      0.89      0.00
    0   -8    9     -0.02      0.00
    1   -8    9     -0.18      0.00
    2   -8    9      2.66      0.00
    3   -8    9      2.05      0.00
    4   -8    9     -0.09      0.00
    5   -8    9      0.65      0.00
    6   -8    9      0.73      0.00
    7   -8    9     -0.84      0.00
    8   -8    9     -0.20      0.00
    9   -8    9      4.89      0.00
   10   -8    9     -1.58      0.00
   11   -8    9     -2.89      0.00
  -18   -7    9     -5.32      0.00
  -17   -7    9     -1.63      0.00
  -16   -7    9     -2.28      0.00
  -15   -7    9     -2.75      0.00
  -14   -7    9      2.17      0.00
  -13   -7    9      0.24      0.00
  -12   -7    9     -0.27      0.00
  -11   -7    9      0.50      0.00
  -10   -7    9      0.28      0.00
   -9   -7    9      1.80      0.00
   -8   -7    9     -0.85      0.00
   -7   -7    9     -6.19      0.00
   -6   -7    9     -4.69      0.00
   -5   -7    9     -1.06      0.00
   -4   -7    9     -1.25      0.00
   -3   -7    9     -0.51      0.00
   -2   -7    9      3.11      0.00
   -1   -7    9      1.46      0.00
    0   -7    9      4.31      0.00
    1   -7    9      4.71      0.00
    2   -7    9      0.13      0.00
    3   -7    9     -2.07      0.00
    4   -7    9      0.98      0.00
    5   -7    9      0.61      0.00
    6   -7    9     -0.76      0.00
    7   -7    9      2.86      0.00
    8   -7    9      2.83      0.00
    9   -7    9     -1.74      0.00
   10   -7    9      4.15      0.00
   11   -7    9      3.75      0.00
   12   -7    9     -2.83      0.00
  -18   -6    9      6.00      0.00
  -17   -6    9      5.81      0.00
  -16   -6    9      8.97      0.00
  -15   -6    9      9.36      0.00
  -14   -6    9      1.22      0.00
  -13   -6    9     -1.21      0.00
  -12   -6    9      0.13      0.00
  -11   -6    9     -0.76      0.00
  -10   -6    9     -1.89      0.00
   -9   -6    9     -2.69      0.00
   -8   -6    9     -1.65      0.00
   -7   -6    9      0.37      0.00
   -6   -6    9      0.08      0.00
   -5   -6    9     -3.47      0.00
   -4   -6    9     -3.58      0.00
   -3   -6    9      1.13      0.00
   -2   -6    9      0.72      0.00
   -1   -6    9     -0.42      0.00
    0   -6    9     -5.32      0.00
    1   -6    9     -5.19      0.00
    2   -6    9     -1.93      0.00
    3   -6    9     -0.74      0.00
    4   -6    9      0.26      0.00
    5   -6    9      0.28      0.00
    6   -6    9      1.96      0.00
    7   -6    9     -2.84      0.00
    8   -6    9     -4.01      0.00
    9   -6    9      1.68      0.00
   10   -6    9      2.43      0.00
   11   -6    9      3.99      0.00
   12   -6    9     11.33      0.00
   13   -6    9      7.31      0.00
  -18   -5    9     -2.68      0.00
  -17   -5    9      5.40      0.00
  -16   -5    9      4.01      0.00
  -15   -5    9     -5.89      0.00
  -14   -5    9     -4.67      0.00
  -13   -5    9      4.24      0.00
  -12   -5    9      7.21      0.00
  -11   -5    9      7.16      0.00
  -10   -5    9      6.15      0.00
   -9   -5    9      1.58      0.00
   -8   -5    9     -0.79      0.00
   -7   -5    9      1.16      0.00
   -6   -5    9      0.94      0.00
   -5   -5    9      3.10      0.00
   -4   -5    9      3.59      0.00
   -3   -5    9     -3.25      0.00
   -2   -5    9     -5.31      0.00
   -1   -5    9     -1.21      0.00
    0   -5    9      3.64      0.00
    1   -5    9     -1.40      0.00
    2   -5    9     -6.72      0.00
    3   -5    9     -0.50      0.00
    4   -5    9     -0.33      0.00
    5   -5    9      0.87      0.00
    6   -5    9     -3.90      0.00
    7   -5    9     -6.62      0.00
    8   -5    9     -3.76      0.00
    9   -5    9      0.87      0.00
   10   -5    9      1.53      0.00
   11   -5    9      1.15      0.00
   12   -5    9     -4.18      0.00
   13   -5    9     -0.15      0.00
   14   -5    9      2.45      0.00
  -18   -4    9      9.22      0.00
  -17   -4    9      2.36      0.00
  -16   -4    9     -7.20      0.00
  -15   -4    9     -6.45      0.00
  -14   -4    9     -2.93      0.00
  -13   -4    9     -2.41      0.00
  -12   -4    9      1.74      0.00
  -11   -4    9      2.92      0.00
  -10   -4    9     -2.36      0.00
   -9   -4    9     -0.10      0.00
   -8   -4    9      2.48      0.00
   -7   -4    9     -1.66      0.00
   -6   -4    9     -2.71      0.00
   -5   -4    9     -3.45      0.00
   -4   -4    9     -3.89      0.00
   -3   -4    9     -0.47      0.00
   -2   -4    9      1.48      0.00
   -1   -4    9     -2.17      0.00
    0   -4    9     -6.97      0.00
    1   -4    9     -2.14      0.00
    2   -4    9      5.07      0.00
    3   -4    9     -2.53      0.00
    4   -4    9      1.50      0.00
    5   -4    9      1.20      0.00
    6   -4    9     -1.78      0.00
    7   -4    9      2.70      0.00
    8   -4    9      6.56      0.00
    9   -4    9      2.40      0.00
   10   -4    9      2.74      0.00
   11   -4    9      4.00      0.00
   12   -4    9      8.20      0.00
   13   -4    9      6.60      0.00
   14   -4    9      3.33      0.00
   15   -4    9      2.37      0.00
  -18   -3    9     -4.55      0.00
  -17   -3    9     -5.36      0.00
  -16   -3    9     -1.75      0.00
  -15   -3    9      0.05      0.00
  -14   -3    9      1.69      0.00
  -13   -3    9      5.77      0.00
  -12   -3    9      4.45      0.00
  -11   -3    9     -0.64      0.00
  -10   -3    9      2.72      0.00
   -9   -3    9      0.71      0.00
   -8   -3    9     -1.47      0.00
   -7   -3    9      3.33      0.00
   -6   -3    9      6.01      0.00
   -5   -3    9      4.57      0.00
   -4   -3    9      1.94      0.00
   -3   -3    9      2.19      0.00
   -2   -3    9      1.76      0.00
   -1   -3    9      0.74      0.00
    0   -3    9      1.60      0.00
    1   -3    9     -3.87      0.00
    2   -3    9     -9.83      0.00
    3   -3    9      2.96      0.00
    4   -3    9      1.94      0.00
    5   -3    9     -5.08      0.00
    6   -3    9     -2.17      0.00
    7   -3    9     -3.85      0.00
    8   -3    9     -7.35      0.00
    9   -3    9     -3.28      0.00
   10   -3    9      1.23      0.00
   11   -3    9      4.55      0.00
   12   -3    9      3.60      0.00
   13   -3    9      0.03      0.00
   14   -3    9     -1.15      0.00
   15   -3    9     -5.18      0.00
   16   -3    9     -5.62      0.00
  -18   -2    9     10.35      0.00
  -17   -2    9     12.88      0.00
  -16   -2    9      8.64      0.00
  -15   -2    9      2.99      0.00
  -14   -2    9      3.04      0.00
  -13   -2    9      3.41      0.00
  -12   -2    9      0.19      0.00
  -11   -2    9     -0.33      0.00
  -10   -2    9     -4.64      0.00
   -9   -2    9     -1.22      0.00
   -8   -2    9      4.79      0.00
   -7   -2    9      2.29      0.00
   -6   -2    9     -0.84      0.00
   -5   -2    9      1.36      0.00
   -4   -2    9      6.39      0.00
   -3   -2    9      3.87      0.00
   -2   -2    9      3.43      0.00
   -1   -2    9      8.19      0.00
    0   -2    9      3.70      0.00
    1   -2    9      1.64      0.00
    2   -2    9      7.69      0.00
    3   -2    9      3.20      0.00
    4   -2    9      2.46      0.00
    5   -2    9      7.95      0.00
    6   -2    9      3.65      0.00
    7   -2    9      2.39      0.00
    8   -2    9      2.18      0.00
    9   -2    9      2.69      0.00
   10   -2    9      1.79      0.00
   11   -2    9      2.70      0.00
   12   -2    9      3.04      0.00
   13   -2    9      3.18      0.00
   14   -2    9     -1.18      0.00
   15   -2    9      2.11      0.00
   16   -2    9      5.30      0.00
   17   -2    9      0.79      0.00
  -17   -1    9     -3.38      0.00
  -16   -1    9     -5.06      0.00
  -15   -1    9     -1.15      0.00
  -14   -1    9     -1.02      0.00
  -13   -1    9     -5.07      0.00
  -12   -1    9     -4.74      0.00
  -11   -1    9     -3.92      0.00
  -10   -1    9     -0.58      0.00
   -9   -1    9     -0.40      0.00
   -8   -1    9     -4.94      0.00
   -7   -1    9     -1.37      0.00
   -6   -1    9      0.09      0.00
   -5   -1    9     -2.58      0.00
   -4   -1    9     -7.18      0.00
   -3   -1    9     -0.60      0.00
   -2   -1    9      4.33      0.00
   -1   -1    9     -3.42      0.00
    0   -1    9     -3.10      0.00
    1   -1    9      0.98      0.00
    2   -1    9      0.32      0.00
    3   -1    9      1.72      0.00
    4   -1    9      1.11      0.00
    5   -1    9     -4.06      0.00
    6   -1    9     -2.00      0.00
    7   -1    9     -2.97      0.00
    8   -1    9     -0.52      0.00
    9   -1    9     -3.59      0.00
   10   -1    9     -0.38      0.00
   11   -1    9      2.96      0.00
   12   -1    9      1.79      0.00
   13   -1    9     -3.52      0.00
   14   -1    9     -2.57      0.00
   15   -1    9     -4.40      0.00
   16   -1    9     -4.53      0.00
   17   -1    9      1.92      0.00
  -17    0    9      0.00      0.00
  -16    0    9     -0.21      0.00
  -15    0    9     -2.73      0.00
  -14    0    9     -1.65      0.00
  -13    0    9      1.55      0.00
  -12    0    9      0.03      0.00
  -11    0    9     -2.90      0.00
  -10    0    9     -2.80      0.00
   -9    0    9     -3.07      0.00
   -8    0    9      1.59      0.00
   -7    0    9     -3.72      0.00
   -6    0    9     -3.68      0.00
   -5    0    9     -2.00      0.00
   -4    0    9      2.11      0.00
   -3    0    9      0.77      0.00
   -2    0    9     -1.39      0.00
   -1    0    9      3.23      0.00
    0    0    9      0.50      0.00
    1    0    9     -2.98      0.00
    2    0    9     -0.90      0.00
    3    0    9     -0.49      0.00
    4    0    9     -1.22      0.00
    5    0    9     -2.36      0.00
    6    0    9     -5.99      0.00
    7    0    9     -1.96      0.00
    8    0    9     -6.00      0.00
    9    0    9     -2.48      0.00
   10    0    9     -0.49      0.00
   11    0    9     -1.63      0.00
   12    0    9     -0.21      0.00
   13    0    9      3.19      0.00
   14    0    9      0.56      0.00
   15    0    9      0.28      0.00
   16    0    9     -0.75      0.00
   17    0    9     -3.51      0.00
   18    0    9     -2.61      0.00
  -17    1    9     -0.34      0.00
  -16    1    9      1.52      0.00
  -15    1    9      4.70      0.00
  -14    1    9      1.72      0.00
  -13    1    9     -3.01      0.00
  -12    1    9     -2.06      0.00
  -11    1    9      1.27      0.00
  -10    1    9     -0.19      0.00
   -9    1    9      0.42      0.00
   -8    1    9     -4.65      0.00
   -7    1    9     -2.17      0.00
   -6    1    9     -6.97      0.00
   -5    1    9     -7.79      0.00
   -4    1    9     -2.16      0.00
   -3    1    9      2.59      0.00
   -2    1    9      5.40      0.00
   -1    1    9      4.12      0.00
    0    1    9      6.05      0.00
    1    1    9      4.65      0.00
    2    1    9      1.04      0.00
    3    1    9      3.74      0.00
    4    1    9     -0.15      0.00
    5    1    9     -5.47      0.00
    6    1    9     -1.76      0.00
    7    1    9     -2.99      0.00
    8    1    9      2.78      0.00
    9    1    9      3.48      0.00
   10    1    9      0.31      0.00
   11    1    9      2.19      0.00
   12    1    9      1.04      0.00
   13    1    9     -3.89      0.00
   14    1    9     -4.05      0.00
   15    1    9     -2.67      0.00
   16    1    9      3.45      0.00
   17    1    9      5.61      0.00
   18    1    9      2.98      0.00
  -16    2    9     -1.53      0.00
  -15    2    9     -4.59      0.00
  -14    2    9     -0.75      0.00
  -13    2    9      5.05      0.00
  -12    2    9      3.41      0.00
  -11    2    9      0.05      0.00
  -10    2    9     -1.14      0.00
   -9    2    9     -3.16      0.00
   -8    2    9     -0.47      0.00
   -7    2    9     -3.65      0.00
   -6    2    9     -0.22      0.00
   -5    2    9      4.81      0.00
   -4    2    9     -0.37      0.00
   -3    2    9      0.22      0.00
   -2    2    9      3.58      0.00
   -1    2    9      3.55      0.00
    0    2    9     -4.65      0.00
    1    2    9     -4.12      0.00
    2    2    9      1.12      0.00
    3    2    9     -9.42      0.00
    4    2    9    -12.32      0.00
    5    2    9     -3.97      0.00
    6    2    9     -6.28      0.00
    7    2    9     -5.00      0.00
    8    2    9     -3.93      0.00
    9    2    9     -5.46      0.00
   10    2    9     -1.27      0.00
   11    2    9     -1.00      0.00
   12    2    9     -0.80      0.00
   13    2    9      0.70      0.00
   14    2    9      1.04      0.00
   15    2    9      3.90      0.00
   16    2    9      0.24      0.00
   17    2    9     -2.58      0.00
   18    2    9      1.21      0.00
   19    2    9     -2.92      0.00
  -16    3    9      2.31      0.00
  -15    3    9      6.03      0.00
  -14    3    9      5.85      0.00
  -13    3    9      2.16      0.00
  -12    3    9      0.83      0.00
  -11    3    9     -4.42      0.00
  -10    3    9     -4.77      0.00
   -9    3    9     -1.46      0.00
   -8    3    9     -3.96      0.00
   -7    3    9     -4.12      0.00
   -6    3    9     -0.31      0.00
   -5    3    9     -0.03      0.00
   -4    3    9      7.13      0.00
   -3    3    9      5.00      0.00
   -2    3    9      1.10      0.00
   -1    3    9      3.08      0.00
    0    3    9     14.34      0.00
    1    3    9     10.16      0.00
    2    3    9     -5.20      0.00
    3    3    9      1.30      0.00
    4    3    9      4.50      0.00
    5    3    9    -11.16      0.00
    6    3    9     -8.09      0.00
    7    3    9     -0.99      0.00
    8    3    9     -6.01      0.00
    9    3    9     -4.70      0.00
   10    3    9     -3.15      0.00
   11    3    9     -1.26      0.00
   12    3    9     -0.62      0.00
   13    3    9      0.52      0.00
   14    3    9      4.07      0.00
   15    3    9      2.24      0.00
   16    3    9      2.46      0.00
   17    3    9      4.80      0.00
   18    3    9     -2.16      0.00
   19    3    9      3.00      0.00
  -16    4    9      1.79      0.00
  -15    4    9      2.71      0.00
  -14    4    9      4.25      0.00
  -13    4    9      3.15      0.00
  -12    4    9     -1.12      0.00
  -11    4    9      1.08      0.00
  -10    4    9      2.70      0.00
   -9    4    9      0.99      0.00
   -8    4    9      2.00      0.00
   -7    4    9      5.02      0.00
   -6    4    9      3.56      0.00
   -5    4    9      4.08      0.00
   -4    4    9     -1.17      0.00
   -3    4    9      1.81      0.00
   -2    4    9      8.04      0.00
   -1    4    9      7.43      0.00
    0    4    9     -6.43      0.00
    1    4    9     -6.30      0.00
    2    4    9     13.34      0.00
    3    4    9      9.16      0.00
    4    4    9     -3.58      0.00
    5    4    9     10.90      0.00
    6    4    9     10.17      0.00
    7    4    9     -2.91      0.00
    8    4    9      1.98      0.00
    9    4    9      4.50      0.00
   10    4    9      3.29      0.00
   11    4    9      4.41      0.00
   12    4    9      3.91      0.00
   13    4    9      1.41      0.00
   14    4    9     -2.12      0.00
   15    4    9      0.32      0.00
   16    4    9      1.28      0.00
   17    4    9     -2.49      0.00
   18    4    9      4.25      0.00
   19    4    9     -3.24      0.00
   20    4    9     -2.35      0.00
  -15    5    9     -5.39      0.00
  -14    5    9     -9.28      0.00
  -13    5    9     -5.26      0.00
  -12    5    9     -1.80      0.00
  -11    5    9      0.86      0.00
  -10    5    9      3.42      0.00
   -9    5    9      6.02      0.00
   -8    5    9      6.05      0.00
   -7    5    9      4.26      0.00
   -6    5    9      2.22      0.00
   -5    5    9     -0.13      0.00
   -4    5    9      0.49      0.00
   -3    5    9     -1.96      0.00
   -2    5    9     -8.04      0.00
   -1    5    9    -12.43      0.00
    0    5    9     -7.44      0.00
    1    5    9     -1.30      0.00
    2    5    9    -11.81      0.00
    3    5    9     -6.85      0.00
    4    5    9     13.35      0.00
    5    5    9      6.30      0.00
    6    5    9      4.40      0.00
    7    5    9     14.69      0.00
    8    5    9      7.04      0.00
    9    5    9      0.75      0.00
   10    5    9      4.67      0.00
   11    5    9      3.16      0.00
   12    5    9     -0.01      0.00
   13    5    9      0.30      0.00
   14    5    9      3.55      0.00
   15    5    9      1.43      0.00
   16    5    9      1.92      0.00
   17    5    9      6.63      0.00
   18    5    9     -0.20      0.00
   19    5    9      0.34      0.00
   20    5    9     -1.80      0.00
  -14    6    9      6.21      0.00
  -13    6    9      1.33      0.00
  -12    6    9      0.51      0.00
  -11    6    9     -2.08      0.00
  -10    6    9     -3.53      0.00
   -9    6    9     -1.06      0.00
   -8    6    9      2.34      0.00
   -7    6    9      2.66      0.00
   -6    6    9      5.89      0.00
   -5    6    9      5.08      0.00
   -4    6    9      2.87      0.00
   -3    6    9      2.02      0.00
   -2    6    9     -0.07      0.00
   -1    6    9     -6.71      0.00
    0    6    9     -8.63      0.00
    1    6    9    -12.03      0.00
    2    6    9     -2.73      0.00
    3    6    9      2.13      0.00
    4    6    9     -5.89      0.00
    5    6    9      5.78      0.00
    6    6    9     12.19      0.00
    7    6    9     -1.49      0.00
    8    6    9     -3.33      0.00
    9    6    9      4.55      0.00
   10    6    9      5.07      0.00
   11    6    9      4.14      0.00
   12    6    9      6.13      0.00
   13    6    9      5.47      0.00
   14    6    9     -1.41      0.00
   15    6    9     -2.79      0.00
   16    6    9     -2.98      0.00
   17    6    9     -2.30      0.00
   18    6    9      1.73      0.00
   19    6    9     -1.07      0.00
   20    6    9      0.36      0.00
   21    6    9      7.23      0.00
  -14    7    9     -3.41      0.00
  -13    7    9      2.91      0.00
  -12    7    9      1.98      0.00
  -11    7    9      0.36      0.00
  -10    7    9      1.32      0.00
   -9    7    9     -2.48      0.00
   -8    7    9     -4.81      0.00
   -7    7    9     -0.77      0.00
   -6    7    9     -2.38      0.00
   -5    7    9     -1.38      0.00
   -4    7    9      2.60      0.00
   -3    7    9      3.35      0.00
   -2    7    9      1.47      0.00
   -1    7    9      7.77      0.00
    0    7    9     10.17      0.00
    1    7    9     16.70      0.00
    2    7    9     16.12      0.00
    3    7    9     10.97      0.00
    4    7    9     13.40      0.00
    5    7    9      5.96      0.00
    6    7    9     -2.03      0.00
    7    7    9      3.95      0.00
    8    7    9      8.13      0.00
    9    7    9      2.03      0.00
   10    7    9     -4.63      0.00
   11    7    9     -2.00      0.00
   12    7    9     -2.60      0.00
   13    7    9     -4.76      0.00
   14    7    9     -0.82      0.00
   15    7    9     -2.00      0.00
   16    7    9     -1.83      0.00
   17    7    9     -0.47      0.00
   18    7    9     -0.08      0.00
   19    7    9      4.05      0.00
   20    7    9      5.16      0.00
   21    7    9     -1.25      0.00
  -13    8    9     -7.92      0.00
  -12    8    9     -6.54      0.00
  -11    8    9     -0.96      0.00
  -10    8    9     -2.40      0.00
   -9    8    9     -0.01      0.00
   -8    8    9      1.24      0.00
   -7    8    9     -4.38      0.00
   -6    8    9     -6.55      0.00
   -5    8    9     -5.78      0.00
   -4    8    9     -5.42      0.00
   -3    8    9     -5.32      0.00
   -2    8    9     -3.88      0.00
   -1    8    9     -6.24      0.00
    0    8    9     -2.84      0.00
    1    8    9     -2.59      0.00
    2    8    9     -5.84      0.00
    3    8    9     -5.49      0.00
    4    8    9     -3.47      0.00
    5    8    9      0.78      0.00
    6    8    9      2.29      0.00
    7    8    9      0.76      0.00
    8    8    9     -0.42      0.00
    9    8    9      0.90      0.00
   10    8    9      5.81      0.00
   11    8    9     -2.14      0.00
   12    8    9     -2.58      0.00
   13    8    9      5.80      0.00
   14    8    9      3.63      0.00
   15    8    9      1.06      0.00
   16    8    9      0.63      0.00
   17    8    9     -2.12      0.00
   18    8    9     -2.42      0.00
   19    8    9     -1.91      0.00
   20    8    9     -1.13      0.00
   21    8    9      4.72      0.00
  -13    9    9      5.35      0.00
  -12    9    9      8.01      0.00
  -11    9    9      5.81      0.00
  -10    9    9      8.59      0.00
   -9    9    9      7.10      0.00
   -8    9    9      3.29      0.00
   -7    9    9      1.50      0.00
   -6    9    9     -3.05      0.00
   -5    9    9     -4.56      0.00
   -4    9    9     -1.55      0.00
   -3    9    9      2.01      0.00
   -2    9    9      2.03      0.00
   -1    9    9      2.01      0.00
    0    9    9      3.04      0.00
    1    9    9      3.88      0.00
    2    9    9      5.21      0.00
    3    9    9      5.76      0.00
    4    9    9      1.16      0.00
    5    9    9     -5.72      0.00
    6    9    9     -4.21      0.00
    7    9    9     -1.66      0.00
    8    9    9     -0.97      0.00
    9    9    9      1.02      0.00
   10    9    9     -5.91      0.00
   11    9    9     -1.51      0.00
   12    9    9      2.46      0.00
   13    9    9     -4.97      0.00
   14    9    9     -6.69      0.00
   15    9    9     -3.81      0.00
   16    9    9     -5.31      0.00
   17    9    9     -2.14      0.00
   18    9    9     -2.73      0.00
   19    9    9     -6.39      0.00
   20    9    9     -3.47      0.00
   21    9    9     -8.31      0.00
  -12   10    9      0.44      0.00
  -11   10    9      1.22      0.00
  -10   10    9     -1.86      0.00
   -9   10    9     -1.23      0.00
   -8   10    9      2.35      0.00
   -7   10    9     -1.46      0.00
   -6   10    9      1.29      0.00
   -5   10    9      5.08      0.00
   -4   10    9      4.86      0.00
   -3   10    9      2.63      0.00
   -2   10    9      1.47      0.00
   -1   10    9      4.83      0.00
    0   10    9      3.00      0.00
    1   10    9     -0.32      0.00
    2   10    9      0.53      0.00
    3   10    9     -1.57      0.00
    4   10    9     -6.57      0.00
    5   10    9     -5.84      0.00
    6   10    9     -6.97      0.00
    7   10    9     -5.86      0.00
    8   10    9     -1.31      0.00
    9   10    9     -4.58      0.00
   10   10    9     -2.57      0.00
   11   10    9     -1.36      0.00
   12   10    9     -4.37      0.00
   13   10    9     -1.06      0.00
   14   10    9      5.94      0.00
   15   10    9      8.03      0.00
   16   10    9     12.45      0.00
   17   10    9      7.44      0.00
   18   10    9      3.49      0.00
   19   10    9      6.60      0.00
   20   10    9     -2.01      0.00
   21   10    9     -5.47      0.00
  -11   11    9     -2.59      0.00
  -10   11    9      2.65      0.00
   -9   11    9      7.69      0.00
   -8   11    9      2.91      0.00
   -7   11    9      6.56      0.00
   -6   11    9      2.37      0.00
   -5   11    9     -3.99      0.00
   -4   11    9     -1.64      0.00
   -3   11    9      0.77      0.00
   -2   11    9      1.08      0.00
   -1   11    9     -4.45      0.00
    0   11    9     -3.93      0.00
    1   11    9      1.38      0.00
    2   11    9     -0.15      0.00
    3   11    9     -2.95      0.00
    4   11    9      2.82      0.00
    5   11    9      4.07      0.00
    6   11    9      4.31      0.00
    7   11    9      5.57      0.00
    8   11    9      0.51      0.00
    9   11    9      1.00      0.00
   10   11    9      5.58      0.00
   11   11    9      2.57      0.00
   12   11    9      1.26      0.00
   13   11    9      3.31      0.00
   14   11    9     -1.77      0.00
   15   11    9     -3.94      0.00
   16   11    9     -6.69      0.00
   17   11    9     -1.58      0.00
   18   11    9      4.32      0.00
   19   11    9     -1.05      0.00
   20   11    9     -0.44      0.00
   21   11    9      1.39      0.00
   22   11    9     -0.29      0.00
  -10   12    9      4.99      0.00
   -9   12    9     -0.23      0.00
   -8   12    9      5.69      0.00
   -7   12    9     -0.52      0.00
   -6   12    9     -2.56      0.00
   -5   12    9      4.76      0.00
   -4   12    9      2.27      0.00
   -3   12    9     -0.88      0.00
   -2   12    9     -0.15      0.00
   -1   12    9      3.57      0.00
    0   12    9      2.84      0.00
    1   12    9     -1.09      0.00
    2   12    9      0.22      0.00
    3   12    9      4.39      0.00
    4   12    9     -0.73      0.00
    5   12    9     -1.25      0.00
    6   12    9      1.90      0.00
    7   12    9     -2.27      0.00
    8   12    9     -1.94      0.00
    9   12    9      1.86      0.00
   10   12    9     -2.32      0.00
   11   12    9     -0.65      0.00
   12   12    9      1.97      0.00
   13   12    9     -2.56      0.00
   14   12    9      0.35      0.00
   15   12    9      2.79      0.00
   16   12    9      3.70      0.00
   17   12    9      1.57      0.00
   18   12    9     -0.73      0.00
   19   12    9      1.65      0.00
   20   12    9      1.31      0.00
   21   12    9      0.39      0.00
   22   12    9      2.60      0.00
   -9   13    9      0.18      0.00
   -8   13    9     -4.25      0.00
   -7   13    9      3.32      0.00
   -6   13    9      8.63      0.00
   -5   13    9     -2.12      0.00
   -4   13    9     -5.53      0.00
   -3   13    9      0.12      0.00
   -2   13    9      1.60      0.00
   -1   13    9     -0.16      0.00
    0   13    9     -0.23      0.00
    1   13    9      2.36      0.00
    2   13    9      3.91      0.00
    3   13    9      1.51      0.00
    4   13    9      3.22      0.00
    5   13    9      3.29      0.00
    6   13    9      0.38      0.00
    7   13    9      0.87      0.00
    8   13    9     -2.30      0.00
    9   13    9     -7.44      0.00
   10   13    9     -3.81      0.00
   11   13    9     -3.78      0.00
   12   13    9     -4.99      0.00
   13   13    9      1.50      0.00
   14   13    9      3.72      0.00
   15   13    9      2.69      0.00
   16   13    9     -0.87      0.00
   17   13    9     -2.28      0.00
   18   13    9     -4.62      0.00
   19   13    9     -5.06      0.00
   20   13    9     -1.61      0.00
   21   13    9     -1.40      0.00
   -8   14    9     10.84      0.00
   -7   14    9      8.23      0.00
   -6   14    9      1.49      0.00
   -5   14    9      3.43      0.00
   -4   14    9      7.55      0.00
   -3   14    9      4.46      0.00
   -2   14    9      3.86      0.00
   -1   14    9      1.86      0.00
    0   14    9     -0.04      0.00
    1   14    9      0.15      0.00
    2   14    9      0.60      0.00
    3   14    9      1.77      0.00
    4   14    9      3.91      0.00
    5   14    9      6.49      0.00
    6   14    9      2.97      0.00
    7   14    9     -3.03      0.00
    8   14    9     -0.63      0.00
    9   14    9      1.97      0.00
   10   14    9     -1.04      0.00
   11   14    9     -0.71      0.00
   12   14    9     -0.07      0.00
   13   14    9     -2.06      0.00
   14   14    9     -1.53      0.00
   15   14    9     -4.87      0.00
   16   14    9     -2.90      0.00
   17   14    9     -2.87      0.00
   18   14    9      1.22      0.00
   19   14    9      4.16      0.00
   20   14    9     -2.76      0.00
   21   14    9     -2.51      0.00
   -7   15    9     -2.38      0.00
   -6   15    9     -3.88      0.00
   -5   15    9     -4.34      0.00
   -4   15    9     -5.72      0.00
   -3   15    9     -4.28      0.00
   -2   15    9     -5.94      0.00
   -1   15    9     -5.62      0.00
    0   15    9     -4.12      0.00
    1   15    9     -2.51      0.00
    2   15    9     -0.37      0.00
    3   15    9      1.27      0.00
    4   15    9      0.55      0.00
    5   15    9     -5.30      0.00
    6   15    9     -4.88      0.00
    7   15    9     -2.06      0.00
    8   15    9     -7.80      0.00
    9   15    9     -6.35      0.00
   10   15    9     -0.07      0.00
   11   15    9     -0.98      0.00
   12   15    9     -0.64      0.00
   13   15    9      4.79      0.00
   14   15    9      2.94      0.00
   15   15    9      6.36      0.00
   16   15    9      1.77      0.00
   17   15    9      3.40      0.00
   18   15    9      5.50      0.00
   19   15    9     -1.38      0.00
   20   15    9      2.47      0.00
   21   15    9      2.56      0.00
   -6   16    9     -3.17      0.00
   -5   16    9     -5.01      0.00
   -4   16    9     -6.55      0.00
   -3   16    9     -0.71      0.00
   -2   16    9      4.09      0.00
   -1   16    9      1.63      0.00
    0   16    9     -0.74      0.00
    1   16    9     -0.95      0.00
    2   16    9     -2.92      0.00
    3   16    9     -3.77      0.00
    4   16    9     -7.27      0.00
    5   16    9     -3.24      0.00
    6   16    9     -1.75      0.00
    7   16    9     -6.04      0.00
    8   16    9     -1.18      0.00
    9   16    9      0.29      0.00
   10   16    9     -2.08      0.00
   11   16    9      2.77      0.00
   12   16    9      8.66      0.00
   13   16    9      0.15      0.00
   14   16    9     -2.48      0.00
   15   16    9     -7.01      0.00
   16   16    9      1.27      0.00
   17   16    9      6.99      0.00
   18   16    9      0.42      0.00
   19   16    9      3.50      0.00
   20   16    9     -0.73      0.00
   21   16    9     -2.79      0.00
   -5   17    9     -6.74      0.00
   -4   17    9      0.29      0.00
   -3   17    9     -1.74      0.00
   -2   17    9     -3.52      0.00
   -1   17    9      0.76      0.00
    0   17    9      2.27      0.00
    1   17    9      0.53      0.00
    2   17    9      1.60      0.00
    3   17    9     -3.43      0.00
    4   17    9     -0.10      0.00
    5   17    9      0.87      0.00
    6   17    9     -1.74      0.00
    7   17    9      1.54      0.00
    8   17    9     -0.81      0.00
    9   17    9     -3.32      0.00
   10   17    9      0.00      0.00
   11   17    9      1.75      0.00
   12   17    9     -5.66      0.00
   13   17    9     -0.42      0.00
   14   17    9      2.94      0.00
   15   17    9      5.28      0.00
   16   17    9      1.71      0.00
   17   17    9     -5.72      0.00
   18   17    9      0.45      0.00
   19   17    9     -1.67      0.00
   20   17    9     -0.10      0.00
   -3   18    9     -1.48      0.00
   -2   18    9      1.42      0.00
   -1   18    9     -0.28      0.00
    0   18    9      2.87      0.00
    1   18    9      4.89      0.00
    2   18    9     -3.01      0.00
    3   18    9     -2.05      0.00
    4   18    9     -2.94      0.00
    5   18    9     -3.32      0.00
    6   18    9      2.56      0.00
    7   18    9      3.29      0.00
    8   18    9      5.67      0.00
    9   18    9      9.15      0.00
   10   18    9      6.87      0.00
   11   18    9      0.00      0.00
   12   18    9      3.01      0.00
   13   18    9      1.78      0.00
   14   18    9     -2.05      0.00
   15   18    9     -0.68      0.00
   16   18    9     -2.26      0.00
   17   18    9      3.05      0.00
   18   18    9      0.03      0.00
   19   18    9      2.27      0.00
   20   18    9      4.72      0.00
   -1   19    9      5.59      0.00
    0   19    9      5.07      0.00
    1   19    9      2.86      0.00
    2   19    9      5.95      0.00
    3   19    9      2.78      0.00
    4   19    9      1.26      0.00
    5   19    9      6.54      0.00
    6   19    9      7.11      0.00
    7   19    9      5.82      0.00
    8   19    9     -0.02      0.00
    9   19    9     -2.99      0.00
   10   19    9     -0.65      0.00
   11   19    9      3.29      0.00
   12   19    9      2.89      0.00
   13   19    9     -0.34      0.00
   14   19    9      1.56      0.00
   15   19    9     -2.95      0.00
   16   19    9     -1.23      0.00
   17   19    9     -4.49      0.00
   18   19    9     -3.55      0.00
   19   19    9     -0.31      0.00
    1   20    9      3.85      0.00
    2   20    9     -1.75      0.00
    3   20    9     -3.27      0.00
    4   20    9     -0.35      0.00
    5   20    9     -3.04      0.00
    6   20    9     -6.44      0.00
    7   20    9     -7.24      0.00
    8   20    9      0.68      0.00
    9   20    9      2.10      0.00
   10   20    9     -3.44      0.00
   11   20    9     -3.15      0.00
   12   20    9     -4.30      0.00
   13   20    9     -1.56      0.00
   14   20    9     -2.86      0.00
   15   20    9     -1.69      0.00
   16   20    9     -3.48      0.00
   17   20    9     -2.22      0.00
   18   20    9      0.41      0.00
    3   21    9      7.73      0.00
    4   21    9      4.14      0.00
    5   21    9      0.79      0.00
    6   21    9      2.92      0.00
   11   21    9     -0.24      0.00
   12   21    9      0.86      0.00
   13   21    9      1.99      0.00
   14   21    9      2.78      0.00
   15   21    9      4.68      0.00
   16   21    9      3.58      0.00
    6   22    9      2.48      0.00
    7   22    9     -4.08      0.00
   12   22    9     -0.51      0.00
  -10  -14   10     -4.25      0.00
   -8  -14   10      7.31      0.00
   -7  -14   10      6.02      0.00
   -6  -14   10      3.43      0.00
   -5  -14   10     -1.74      0.00
   -4  -14   10      1.31      0.00
   -3  -14   10      4.12      0.00
   -2  -14   10      5.67      0.00
   -1  -14   10     -1.76      0.00
  -10  -13   10     -1.47      0.00
   -9  -13   10     -5.27      0.00
   -8  -13   10     -5.55      0.00
   -7  -13   10     -0.09      0.00
   -6  -13   10      1.87      0.00
   -5  -13   10      6.31      0.00
   -4  -13   10      4.12      0.00
   -3  -13   10     -1.21      0.00
   -2  -13   10     -4.39      0.00
   -1  -13   10      0.23      0.00
    0  -13   10     -0.91      0.00
    1  -13   10     -2.27      0.00
    2  -13   10     -0.93      0.00
  -10  -12   10     -1.37      0.00
   -9  -12   10      5.72      0.00
   -8  -12   10      5.46      0.00
   -7  -12   10     -0.49      0.00
   -6  -12   10     -2.92      0.00
   -5  -12   10     -6.72      0.00
   -4  -12   10     -4.40      0.00
   -3  -12   10      1.89      0.00
   -2  -12   10      2.11      0.00
   -1  -12   10     -2.69      0.00
    0  -12   10      1.86      0.00
    1  -12   10      7.27      0.00
    2  -12   10      6.27      0.00
    3  -12   10      5.47      0.00
    4  -12   10      5.76      0.00
  -11  -11   10     12.70      0.00
  -10  -11   10      3.70      0.00
   -9  -11   10     -5.23      0.00
   -8  -11   10     -2.78      0.00
   -7  -11   10      2.36      0.00
   -6  -11   10      2.97      0.00
   -5  -11   10      3.54      0.00
   -4  -11   10      0.07      0.00
   -3  -11   10     -5.40      0.00
   -2  -11   10     -3.69      0.00
   -1  -11   10      2.40      0.00
    0  -11   10      1.51      0.00
    1  -11   10     -1.38      0.00
    2  -11   10     -1.73      0.00
    3  -11   10     -1.93      0.00
    4  -11   10      0.47      0.00
    5  -11   10     -2.49      0.00
  -12  -10   10      0.87      0.00
  -11  -10   10     -1.95      0.00
  -10  -10   10      3.71      0.00
   -9  -10   10      6.93      0.00
   -8  -10   10     -0.07      0.00
   -7  -10   10     -5.78      0.00
   -6  -10   10     -6.05      0.00
   -5  -10   10     -4.63      0.00
   -4  -10   10     -0.49      0.00
   -3  -10   10      3.04      0.00
   -2  -10   10      2.39      0.00
   -1  -10   10     -0.33      0.00
    0  -10   10      0.71      0.00
    1  -10   10      2.05      0.00
    2  -10   10      2.14      0.00
    3  -10   10      1.80      0.00
    4  -10   10     -2.87      0.00
    5  -10   10     -0.94      0.00
    6  -10   10      6.37      0.00
    7  -10   10      0.61      0.00
  -16   -9   10     -3.75      0.00
  -15   -9   10     -1.71      0.00
  -14   -9   10      0.99      0.00
  -13   -9   10     -1.67      0.00
  -12   -9   10     -4.01      0.00
  -11   -9   10      0.32      0.00
  -10   -9   10     -1.53      0.00
   -9   -9   10     -6.12      0.00
   -8   -9   10     -4.69      0.00
   -7   -9   10      0.13      0.00
   -6   -9   10      2.84      0.00
   -5   -9   10      2.21      0.00
   -4   -9   10      1.01      0.00
   -3   -9   10      1.51      0.00
   -2   -9   10     -1.91      0.00
   -1   -9   10     -3.58      0.00
    0   -9   10     -0.43      0.00
    1   -9   10      2.52      0.00
    2   -9   10      0.35      0.00
    3   -9   10     -5.53      0.00
    4   -9   10     -6.25      0.00
    5   -9   10     -6.46      0.00
    6   -9   10    -12.03      0.00
    7   -9   10     -6.80      0.00
    8   -9   10     -1.46      0.00
    9   -9   10     -1.48      0.00
  -16   -8   10      9.57      0.00
  -15   -8   10      4.91      0.00
  -14   -8   10     -2.25      0.00
  -13   -8   10     -2.27      0.00
  -12   -8   10      0.03      0.00
  -11   -8   10     -0.06      0.00
  -10   -8   10     -0.46      0.00
   -9   -8   10      1.58      0.00
   -8   -8   10      5.79      0.00
   -7   -8   10      4.32      0.00
   -6   -8   10     -0.89      0.00
   -5   -8   10     -0.50      0.00
   -4   -8   10      1.89      0.00
   -3   -8   10     -0.49      0.00
   -2   -8   10      3.10      0.00
   -1   -8   10      8.40      0.00
    0   -8   10      7.31      0.00
    1   -8   10      5.81      0.00
    2   -8   10      3.92      0.00
    3   -8   10      3.16      0.00
    4   -8   10      2.32      0.00
    5   -8   10      0.31      0.00
    6   -8   10     -0.23      0.00
    7   -8   10     -2.03      0.00
    8   -8   10     -1.87      0.00
    9   -8   10     -0.97      0.00
   10   -8   10     -4.94      0.00
  -17   -7   10     -1.05      0.00
  -16   -7   10     -7.98      0.00
  -14   -7   10     -1.20      0.00
  -13   -7   10     -2.65      0.00
  -12   -7   10     -1.70      0.00
  -11   -7   10     -0.65      0.00
  -10   -7   10      0.26      0.00
   -9   -7   10      1.10      0.00
   -8   -7   10     -2.10      0.00
   -7   -7   10     -3.04      0.00
   -6   -7   10      0.25      0.00
   -5   -7   10      0.06      0.00
   -4   -7   10     -2.28      0.00
   -3   -7   10      0.09      0.00
   -2   -7   10     -0.99      0.00
   -1   -7   10     -3.84      0.00
    0   -7   10     -0.42      0.00
    1   -7   10     -1.92      0.00
    2   -7   10     -0.83      0.00
    3   -7   10      3.67      0.00
    4   -7   10      4.19      0.00
    5   -7   10     -0.49      0.00
    6   -7   10     -1.38      0.00
    7   -7   10     -0.82      0.00
    8   -7   10     -3.34      0.00
    9   -7   10     -2.98      0.00
   10   -7   10      1.38      0.00
   11   -7   10     -5.23      0.00
  -17   -6   10     -9.69      0.00
  -16   -6   10     -3.56      0.00
  -15   -6   10      0.23      0.00
  -14   -6   10     -0.55      0.00
  -13   -6   10      1.96      0.00
  -12   -6   10      1.94      0.00
  -11   -6   10      0.09      0.00
  -10   -6   10      0.14      0.00
   -9   -6   10      0.97      0.00
   -8   -6   10      2.58      0.00
   -7   -6   10      2.53      0.00
   -6   -6   10     -0.45      0.00
   -5   -6   10     -2.16      0.00
   -4   -6   10      0.46      0.00
   -3   -6   10      0.11      0.00
   -2   -6   10     -2.64      0.00
   -1   -6   10     -2.50      0.00
    0   -6   10     -5.05      0.00
    1   -6   10      1.50      0.00
    2   -6   10      5.94      0.00
    3   -6   10      3.28      0.00
    4   -6   10     -0.67      0.00
    5   -6   10      0.42      0.00
    6   -6   10      1.77      0.00
    7   -6   10      2.11      0.00
    8   -6   10      5.05      0.00
    9   -6   10      1.49      0.00
   10   -6   10     -5.78      0.00
   11   -6   10     -0.16      0.00
   12   -6   10      2.67      0.00
   13   -6   10     -0.56      0.00
  -17   -5   10     -0.51      0.00
  -16   -5   10     -2.14      0.00
  -15   -5   10      0.57      0.00
  -14   -5   10      8.78      0.00
  -13   -5   10      8.63      0.00
  -12   -5   10      1.91      0.00
  -11   -5   10      0.96      0.00
  -10   -5   10      1.52      0.00
   -9   -5   10      0.31      0.00
   -8   -5   10      0.18      0.00
   -7   -5   10      0.38      0.00
   -6   -5   10      1.20      0.00
   -5   -5   10      4.06      0.00
   -4   -5   10      0.69      0.00
   -3   -5   10     -2.92      0.00
   -2   -5   10      1.71      0.00
   -1   -5   10      4.57      0.00
    0   -5   10      5.33      0.00
    1   -5   10     -1.44      0.00
    2   -5   10     -3.12      0.00
    3   -5   10     -0.41      0.00
    4   -5   10     -0.19      0.00
    5   -5   10      1.91      0.00
    6   -5   10      2.16      0.00
    7   -5   10      3.60      0.00
    8   -5   10      0.51      0.00
    9   -5   10     -2.30      0.00
   10   -5   10     -2.17      0.00
   11   -5   10     -5.20      0.00
   12   -5   10     -4.77      0.00
   13   -5   10      3.18      0.00
   14   -5   10      2.07      0.00
  -17   -4   10    -11.14      0.00
  -16   -4   10     -3.73      0.00
  -15   -4   10      5.97      0.00
  -14   -4   10      2.41      0.00
  -13   -4   10     -3.29      0.00
  -12   -4   10      1.36      0.00
  -11   -4   10      3.13      0.00
  -10   -4   10      2.02      0.00
   -9   -4   10      1.90      0.00
   -8   -4   10     -0.50      0.00
   -7   -4   10     -0.86      0.00
   -6   -4   10      0.50      0.00
   -5   -4   10     -2.94      0.00
   -4   -4   10     -1.93      0.00
   -3   -4   10      1.49      0.00
   -2   -4   10     -2.24      0.00
   -1   -4   10     -6.08      0.00
    0   -4   10     -4.07      0.00
    1   -4   10      5.18      0.00
    2   -4   10      4.51      0.00
    3   -4   10     -3.72      0.00
    4   -4   10     -1.49      0.00
    5   -4   10     -3.71      0.00
    6   -4   10     -0.72      0.00
    7   -4   10      1.59      0.00
    8   -4   10      0.19      0.00
    9   -4   10      0.42      0.00
   10   -4   10      3.01      0.00
   11   -4   10      3.35      0.00
   12   -4   10      4.22      0.00
   13   -4   10     -2.33      0.00
   14   -4   10     -2.23      0.00
  -17   -3   10      6.22      0.00
  -16   -3   10     11.33      0.00
  -15   -3   10      4.69      0.00
  -14   -3   10     -2.58      0.00
  -13   -3   10     -5.10      0.00
  -12   -3   10     -7.71      0.00
  -11   -3   10     -4.69      0.00
  -10   -3   10     -0.63      0.00
   -9   -3   10     -0.97      0.00
   -8   -3   10      2.77      0.00
   -7   -3   10      4.15      0.00
   -6   -3   10      1.03      0.00
   -5   -3   10      0.20      0.00
   -4   -3   10     -1.25      0.00
   -3   -3   10     -1.91      0.00
   -2   -3   10     -1.70      0.00
   -1   -3   10     -0.46      0.00
    0   -3   10      0.94      0.00
    1   -3   10     -2.59      0.00
    2   -3   10      0.35      0.00
    3   -3   10      9.11      0.00
    4   -3   10      1.24      0.00
    5   -3   10      1.76      0.00
    6   -3   10      1.27      0.00
    7   -3   10     -2.93      0.00
    8   -3   10      1.23      0.00
    9   -3   10      4.47      0.00
   10   -3   10     -0.78      0.00
   11   -3   10     -2.38      0.00
   12   -3   10     -5.04      0.00
   13   -3   10     -1.33      0.00
   14   -3   10     -0.11      0.00
   15   -3   10     -5.17      0.00
  -17   -2   10     -0.74      0.00
  -16   -2   10     -5.17      0.00
  -15   -2   10     -4.95      0.00
  -14   -2   10     -1.98      0.00
  -13   -2   10      0.48      0.00
  -12   -2   10      2.12      0.00
  -11   -2   10      0.46      0.00
  -10   -2   10     -1.88      0.00
   -9   -2   10      3.40      0.00
   -8   -2   10      1.73      0.00
   -7   -2   10     -2.89      0.00
   -6   -2   10     -4.00      0.00
   -5   -2   10     -2.95      0.00
   -4   -2   10     -1.56      0.00
   -3   -2   10     -5.46      0.00
   -2   -2   10     -5.16      0.00
   -1   -2   10     -1.58      0.00
    0   -2   10     -2.08      0.00
    1   -2   10      1.16      0.00
    2   -2   10      0.15      0.00
    3   -2   10     -7.69      0.00
    4   -2   10     -0.17      0.00
    5   -2   10      0.03      0.00
    6   -2   10     -4.04      0.00
    7   -2   10      0.53      0.00
    8   -2   10     -0.73      0.00
    9   -2   10     -5.92      0.00
   10   -2   10     -6.28      0.00
   11   -2   10     -5.13      0.00
   12   -2   10      1.58      0.00
   13   -2   10      3.95      0.00
   14   -2   10     -1.11      0.00
   15   -2   10      1.49      0.00
   16   -2   10      2.28      0.00
  -17   -1   10      2.86      0.00
  -16   -1   10      4.29      0.00
  -15   -1   10      1.66      0.00
  -14   -1   10     -1.71      0.00
  -13   -1   10     -1.09      0.00
  -12   -1   10      1.74      0.00
  -11   -1   10      1.86      0.00
  -10   -1   10      2.65      0.00
   -9   -1   10     -3.02      0.00
   -8   -1   10     -2.25      0.00
   -7   -1   10      2.56      0.00
   -6   -1   10      0.90      0.00
   -5   -1   10     -2.04      0.00
   -4   -1   10     -2.77      0.00
   -3   -1   10      3.58      0.00
   -2   -1   10      3.95      0.00
   -1   -1   10      0.22      0.00
    0   -1   10      4.95      0.00
    1   -1   10      2.52      0.00
    2   -1   10     -1.91      0.00
    3   -1   10      0.75      0.00
    4   -1   10     -2.13      0.00
    5   -1   10     -2.05      0.00
    6   -1   10      1.32      0.00
    7   -1   10     -0.95      0.00
    8   -1   10      0.90      0.00
    9   -1   10      1.96      0.00
   10   -1   10      2.01      0.00
   11   -1   10      0.39      0.00
   12   -1   10     -1.96      0.00
   13   -1   10     -3.29      0.00
   14   -1   10      1.45      0.00
   15   -1   10     -2.02      0.00
   16   -1   10     -7.84      0.00
   17   -1   10     -3.24      0.00
  -17    0   10     -2.80      0.00
  -16    0   10     -5.40      0.00
  -15    0   10     -4.12      0.00
  -14    0   10      2.79      0.00
  -13    0   10      5.31      0.00
  -12    0   10      0.72      0.00
  -11    0   10     -1.09      0.00
  -10    0   10     -1.20      0.00
   -9    0   10      4.11      0.00
   -8    0   10      5.61      0.00
   -7    0   10     -0.95      0.00
   -6    0   10      1.49      0.00
   -5    0   10      3.35      0.00
   -4    0   10      2.84      0.00
   -3    0   10     -2.20      0.00
   -2    0   10     -0.57      0.00
   -1    0   10      6.71      0.00
    0    0   10      2.90      0.00
    1    0   10      2.24      0.00
    2    0   10      2.75      0.00
    3    0   10      2.15      0.00
    4    0   10      4.18      0.00
    5    0   10      2.26      0.00
    6    0   10     -0.33      0.00
    7    0   10      2.79      0.00
    8    0   10      2.69      0.00
    9    0   10      6.05      0.00
   10    0   10      2.75      0.00
   11    0   10      2.01      0.00
   12    0   10      3.01      0.00
   13    0   10      4.77      0.00
   14    0   10      0.61      0.00
   15    0   10     -1.47      0.00
   16    0   10      3.70      0.00
   17    0   10      6.04      0.00
  -16    1   10      2.29      0.00
  -15    1   10      5.66      0.00
  -14    1   10      5.13      0.00
  -13    1   10      3.83      0.00
  -12    1   10      3.99      0.00
  -11    1   10      1.42      0.00
  -10    1   10      0.80      0.00
   -9    1   10      1.70      0.00
   -8    1   10      0.48      0.00
   -7    1   10      4.68      0.00
   -6    1   10     -0.08      0.00
   -5    1   10      1.16      0.00
   -4    1   10      3.74      0.00
   -3    1   10      3.23      0.00
   -2    1   10     -0.23      0.00
   -1    1   10     -4.05      0.00
    0    1   10     -0.12      0.00
    1    1   10     -3.65      0.00
    2    1   10     -5.33      0.00
    3    1   10     -2.77      0.00
    4    1   10     -4.17      0.00
    5    1   10     -1.25      0.00
    6    1   10      1.35      0.00
    7    1   10     -0.05      0.00
    8    1   10      4.70      0.00
    9    1   10      1.86      0.00
   10    1   10      3.91      0.00
   11    1   10      4.80      0.00
   12    1   10      3.81      0.00
   13    1   10      2.27      0.00
   14    1   10      3.69      0.00
   15    1   10      7.60      0.00
   16    1   10      7.49      0.00
   17    1   10      0.21      0.00
   18    1   10     -2.78      0.00
  -16    2   10     -3.15      0.00
  -15    2   10     -2.70      0.00
  -14    2   10     -0.62      0.00
  -13    2   10     -0.91      0.00
  -12    2   10     -4.25      0.00
  -11    2   10     -2.49      0.00
  -10    2   10      1.46      0.00
   -9    2   10      3.16      0.00
   -8    2   10      6.04      0.00
   -7    2   10      3.81      0.00
   -6    2   10      8.74      0.00
   -5    2   10      8.18      0.00
   -4    2   10      4.92      0.00
   -3    2   10      7.66      0.00
   -2    2   10      7.88      0.00
   -1    2   10      4.54      0.00
    0    2   10     -2.70      0.00
    1    2   10      0.49      0.00
    2    2   10      1.02      0.00
    3    2   10     -2.77      0.00
    4    2   10      6.12      0.00
    5    2   10      6.56      0.00
    6    2   10     -1.14      0.00
    7    2   10      0.59      0.00
    8    2   10      1.44      0.00
    9    2   10      6.16      0.00
   10    2   10      6.43      0.00
   11    2   10      2.74      0.00
   12    2   10      0.89      0.00
   13    2   10     -0.59      0.00
   14    2   10     -1.60      0.00
   15    2   10     -2.44      0.00
   16    2   10     -4.77      0.00
   17    2   10      1.51      0.00
   18    2   10      1.52      0.00
   19    2   10     -2.28      0.00
  -16    3   10      2.14      0.00
  -15    3   10      3.27      0.00
  -14    3   10      4.08      0.00
  -13    3   10      2.12      0.00
  -12    3   10      1.37      0.00
  -11    3   10     -0.94      0.00
  -10    3   10     -0.41      0.00
   -9    3   10      0.72      0.00
   -8    3   10      1.93      0.00
   -7    3   10      5.40      0.00
   -6    3   10      4.00      0.00
   -5    3   10      3.30      0.00
   -4    3   10      6.56      0.00
   -3    3   10     -0.11      0.00
   -2    3   10     -3.22      0.00
   -1    3   10      0.14      0.00
    0    3   10      5.20      0.00
    1    3   10     -3.25      0.00
    2    3   10     -4.46      0.00
    3    3   10     12.08      0.00
    4    3   10     11.90      0.00
    5    3   10      9.75      0.00
    6    3   10     17.90      0.00
    7    3   10     11.99      0.00
    8    3   10      4.26      0.00
    9    3   10      3.79      0.00
   10    3   10      3.04      0.00
   11    3   10      2.94      0.00
   12    3   10      0.41      0.00
   13    3   10     -0.50      0.00
   14    3   10      0.98      0.00
   15    3   10      1.24      0.00
   16    3   10      5.72      0.00
   17    3   10      1.87      0.00
   18    3   10      0.00      0.00
   19    3   10      7.49      0.00
  -15    4   10      0.56      0.00
  -14    4   10     -1.18      0.00
  -13    4   10     -0.28      0.00
  -12    4   10      2.30      0.00
  -11    4   10      4.32      0.00
  -10    4   10      0.82      0.00
   -9    4   10      3.13      0.00
   -8    4   10      6.29      0.00
   -7    4   10      5.51      0.00
   -6    4   10      2.81      0.00
   -5    4   10      3.73      0.00
   -4    4   10     -1.35      0.00
   -3    4   10     -0.42      0.00
   -2    4   10     -1.49      0.00
   -1    4   10     -4.88      0.00
    0    4   10     -8.17      0.00
    1    4   10      2.55      0.00
    2    4   10     11.69      0.00
    3    4   10      1.40      0.00
    4    4   10      5.42      0.00
    5    4   10     14.53      0.00
    6    4   10      2.32      0.00
    7    4   10      3.79      0.00
    8    4   10     13.95      0.00
    9    4   10      8.43      0.00
   10    4   10      3.22      0.00
   11    4   10      1.30      0.00
   12    4   10     -0.96      0.00
   13    4   10     -4.21      0.00
   14    4   10     -6.53      0.00
   15    4   10     -3.51      0.00
   16    4   10     -5.69      0.00
   17    4   10     -5.70      0.00
   18    4   10     -1.21      0.00
   19    4   10     -6.03      0.00
   20    4   10     -1.51      0.00
  -15    5   10     -5.07      0.00
  -14    5   10     -3.28      0.00
  -13    5   10      2.08      0.00
  -12    5   10      2.08      0.00
  -11    5   10     -0.05      0.00
  -10    5   10      0.50      0.00
   -9    5   10     -1.94      0.00
   -8    5   10     -1.99      0.00
   -7    5   10      0.01      0.00
   -6    5   10      4.18      0.00
   -5    5   10      3.56      0.00
   -4    5   10      3.62      0.00
   -3    5   10     -1.10      0.00
   -2    5   10     -1.34      0.00
   -1    5   10      4.16      0.00
    0    5   10     10.07      0.00
    1    5   10      3.73      0.00
    2    5   10     -5.71      0.00
    3    5   10      5.20      0.00
    4    5   10      7.39      0.00
    5    5   10     -5.64      0.00
    6    5   10      6.83      0.00
    7    5   10     13.11      0.00
    8    5   10      4.58      0.00
    9    5   10      6.44      0.00
   10    5   10      7.50      0.00
   11    5   10      1.65      0.00
   12    5   10      0.36      0.00
   13    5   10      2.33      0.00
   14    5   10      2.30      0.00
   15    5   10     -4.89      0.00
   16    5   10     -7.25      0.00
   17    5   10     -3.33      0.00
   18    5   10      0.70      0.00
   19    5   10     11.82      0.00
   20    5   10      8.30      0.00
  -14    6   10     -6.41      0.00
  -13    6   10    -13.28      0.00
  -12    6   10     -9.46      0.00
  -11    6   10     -5.90      0.00
  -10    6   10     -1.26      0.00
   -9    6   10      4.20      0.00
   -8    6   10      2.46      0.00
   -7    6   10     -1.11      0.00
   -6    6   10     -2.07      0.00
   -5    6   10     -2.25      0.00
   -4    6   10     -2.76      0.00
   -3    6   10     -0.41      0.00
   -2    6   10      1.66      0.00
   -1    6   10      1.41      0.00
    0    6   10     -0.14      0.00
    1    6   10      1.24      0.00
    2    6   10      9.31      0.00
    3    6   10      1.81      0.00
    4    6   10     -8.36      0.00
    5    6   10      1.26      0.00
    6    6   10     -5.54      0.00
    7    6   10    -11.02      0.00
    8    6   10     -4.55      0.00
    9    6   10     -3.04      0.00
   11    6   10      1.54      0.00
   12    6   10      4.64      0.00
   13    6   10      3.12      0.00
   14    6   10      1.91      0.00
   15    6   10      4.68      0.00
   16    6   10      0.98      0.00
   17    6   10     -4.68      0.00
   18    6   10     -5.41      0.00
   19    6   10     -8.12      0.00
   20    6   10     -5.68      0.00
  -14    7   10      4.58      0.00
  -13    7   10      9.84      0.00
  -12    7   10      3.56      0.00
  -11    7   10      0.90      0.00
  -10    7   10     -0.22      0.00
   -9    7   10     -2.73      0.00
   -8    7   10     -0.35      0.00
   -7    7   10      1.22      0.00
   -6    7   10     -2.44      0.00
   -5    7   10     -2.47      0.00
   -4    7   10     -2.76      0.00
   -3    7   10     -3.07      0.00
   -2    7   10     -0.45      0.00
   -1    7   10      2.24      0.00
    0    7   10      1.44      0.00
    1    7   10      5.34      0.00
    2    7   10      3.75      0.00
    3    7   10      4.36      0.00
    4    7   10      9.04      0.00
    5    7   10      0.60      0.00
    6    7   10      2.87      0.00
    7    7   10      5.10      0.00
    8    7   10     -2.36      0.00
    9    7   10     -9.85      0.00
   10    7   10     -5.64      0.00
   11    7   10     -2.79      0.00
   12    7   10     -6.44      0.00
   13    7   10     -6.10      0.00
   14    7   10     -1.66      0.00
   15    7   10     -3.92      0.00
   16    7   10     -1.96      0.00
   17    7   10      2.92      0.00
   18    7   10      7.50      0.00
   19    7   10      7.02      0.00
   20    7   10      1.30      0.00
   21    7   10      0.85      0.00
  -13    8   10     -2.28      0.00
  -12    8   10      0.20      0.00
  -11    8   10      1.37      0.00
  -10    8   10      1.48      0.00
   -9    8   10      4.77      0.00
   -8    8   10      0.73      0.00
   -7    8   10     -4.36      0.00
   -6    8   10     -3.17      0.00
   -5    8   10     -4.87      0.00
   -4    8   10     -4.74      0.00
   -3    8   10     -2.30      0.00
   -2    8   10     -1.93      0.00
   -1    8   10     -2.80      0.00
    0    8   10      1.75      0.00
    1    8   10      2.77      0.00
    2    8   10      4.70      0.00
    3    8   10      6.67      0.00
    4    8   10      4.56      0.00
    5    8   10      7.29      0.00
    6    8   10      3.52      0.00
    7    8   10     -2.98      0.00
    8    8   10     -5.32      0.00
    9    8   10      3.26      0.00
   10    8   10      5.73      0.00
   11    8   10     -1.37      0.00
   12    8   10      0.09      0.00
   13    8   10      0.56      0.00
   14    8   10     -5.11      0.00
   15    8   10     -1.41      0.00
   16    8   10      3.21      0.00
   17    8   10      7.28      0.00
   18    8   10      8.18      0.00
   19    8   10      6.71      0.00
   20    8   10      4.52      0.00
   21    8   10      1.18      0.00
  -12    9   10     -0.71      0.00
  -11    9   10     -1.70      0.00
  -10    9   10      0.24      0.00
   -9    9   10     -4.31      0.00
   -8    9   10     -3.34      0.00
   -7    9   10      1.94      0.00
   -6    9   10      3.13      0.00
   -5    9   10      5.10      0.00
   -4    9   10      4.36      0.00
   -3    9   10      2.83      0.00
   -2    9   10      1.33      0.00
   -1    9   10     -0.21      0.00
    0    9   10     -1.83      0.00
    1    9   10     -1.60      0.00
    2    9   10     -3.77      0.00
    3    9   10     -8.31      0.00
    4    9   10     -9.68      0.00
    5    9   10     -6.96      0.00
    6    9   10     -2.98      0.00
    7    9   10     -4.72      0.00
    8    9   10     -3.03      0.00
    9    9   10     -4.64      0.00
   10    9   10     -6.60      0.00
   11    9   10      0.72      0.00
   12    9   10     -1.63      0.00
   13    9   10     -5.62      0.00
   14    9   10     -0.24      0.00
   15    9   10      0.34      0.00
   16    9   10      0.33      0.00
   17    9   10      3.65      0.00
   18    9   10      3.57      0.00
   19    9   10      2.59      0.00
   20    9   10      1.70      0.00
   21    9   10     -1.75      0.00
  -12   10   10     -1.50      0.00
  -11   10   10      0.89      0.00
  -10   10   10     -1.46      0.00
   -9   10   10     -0.80      0.00
   -8   10   10     -3.26      0.00
   -7   10   10     -6.32      0.00
   -6   10   10     -1.09      0.00
   -5   10   10     -0.94      0.00
   -4   10   10     -1.95      0.00
   -3   10   10     -3.69      0.00
   -2   10   10     -4.98      0.00
   -1   10   10     -1.83      0.00
    0   10   10     -0.67      0.00
    1   10   10      0.04      0.00
    2   10   10      1.99      0.00
    3   10   10      3.37      0.00
    4   10   10      6.31      0.00
    5   10   10      6.97      0.00
    6   10   10      2.01      0.00
    7   10   10      3.10      0.00
    8   10   10      1.46      0.00
    9   10   10     -1.11      0.00
   10   10   10      2.97      0.00
   11   10   10      1.35      0.00
   12   10   10      0.68      0.00
   13   10   10      3.11      0.00
   14   10   10      1.38      0.00
   15   10   10     -0.52      0.00
   16   10   10     -1.31      0.00
   17   10   10     -7.06      0.00
   18   10   10     -4.01      0.00
   19   10   10     -0.84      0.00
   20   10   10     -2.64      0.00
   21   10   10      3.85      0.00
  -11   11   10      1.34      0.00
  -10   11   10      3.73      0.00
   -9   11   10     -1.09      0.00
   -8   11   10     -2.56      0.00
   -7   11   10      4.06      0.00
   -6   11   10     -1.83      0.00
   -5   11   10     -2.09      0.00
   -4   11   10      2.39      0.00
   -3   11   10      2.86      0.00
   -2   11   10      2.91      0.00
   -1   11   10     -0.79      0.00
    0   11   10      1.48      0.00
    1   11   10      3.62      0.00
    2   11   10      1.35      0.00
    3   11   10      2.00      0.00
    4   11   10      3.40      0.00
    5   11   10     -1.78      0.00
    6   11   10     -2.47      0.00
    7   11   10     -4.82      0.00
    8   11   10     -4.56      0.00
    9   11   10      2.00      0.00
   10   11   10      0.88      0.00
   11   11   10     -5.48      0.00
   12   11   10     -5.09      0.00
   13   11   10     -2.91      0.00
   14   11   10     -3.52      0.00
   15   11   10     -1.39      0.00
   16   11   10     -1.19      0.00
   17   11   10      4.74      0.00
   18   11   10      2.98      0.00
   19   11   10      1.61      0.00
   20   11   10      9.17      0.00
   21   11   10      4.36      0.00
  -10   12   10     -5.78      0.00
   -9   12   10     -0.09      0.00
   -8   12   10      5.29      0.00
   -7   12   10     -4.30      0.00
   -6   12   10      0.13      0.00
   -5   12   10      3.96      0.00
   -4   12   10     -3.13      0.00
   -3   12   10     -2.50      0.00
   -2   12   10     -1.33      0.00
   -1   12   10      1.54      0.00
    0   12   10     -0.63      0.00
    1   12   10     -3.05      0.00
    2   12   10     -0.05      0.00
    3   12   10      3.00      0.00
    4   12   10     -0.21      0.00
    5   12   10      1.93      0.00
    6   12   10     -0.59      0.00
    7   12   10     -1.45      0.00
    8   12   10      2.97      0.00
    9   12   10      0.78      0.00
   10   12   10     -3.00      0.00
   11   12   10      3.44      0.00
   12   12   10      3.40      0.00
   13   12   10     -1.88      0.00
   14   12   10      0.07      0.00
   15   12   10     -2.07      0.00
   16   12   10     -4.49      0.00
   17   12   10     -9.71      0.00
   18   12   10     -6.65      0.00
   19   12   10     -0.47      0.00
   20   12   10     -5.05      0.00
   21   12   10     -5.73      0.00
   -9   13   10      0.17      0.00
   -8   13   10     -5.18      0.00
   -7   13   10      4.34      0.00
   -6   13   10      0.65      0.00
   -5   13   10    -10.54      0.00
   -4   13   10     -4.36      0.00
   -3   13   10     -2.67      0.00
   -2   13   10     -3.44      0.00
   -1   13   10     -2.47      0.00
    0   13   10     -0.16      0.00
    1   13   10      0.98      0.00
    2   13   10      1.42      0.00
    3   13   10      0.51      0.00
    4   13   10      1.59      0.00
    5   13   10     -3.92      0.00
    6   13   10     -2.96      0.00
    7   13   10      0.64      0.00
    8   13   10     -2.75      0.00
    9   13   10     -3.76      0.00
   10   13   10      2.93      0.00
   11   13   10      1.91      0.00
   12   13   10      1.72      0.00
   13   13   10      5.16      0.00
   14   13   10      3.43      0.00
   15   13   10      3.92      0.00
   16   13   10      2.68      0.00
   17   13   10      1.49      0.00
   18   13   10     -3.11      0.00
   19   13   10     -7.72      0.00
   20   13   10     -5.12      0.00
   21   13   10     -0.62      0.00
   -8   14   10      1.77      0.00
   -7   14   10     -7.89      0.00
   -6   14   10     -8.16      0.00
   -5   14   10      3.58      0.00
   -4   14   10      0.82      0.00
   -3   14   10     -3.55      0.00
   -2   14   10      0.19      0.00
   -1   14   10      2.19      0.00
    0   14   10      2.89      0.00
    1   14   10      4.37      0.00
    2   14   10      4.63      0.00
    3   14   10      2.54      0.00
    4   14   10     -1.49      0.00
    5   14   10     -0.68      0.00
    6   14   10     -3.73      0.00
    7   14   10     -6.24      0.00
    8   14   10     -5.60      0.00
    9   14   10     -5.76      0.00
   10   14   10     -6.69      0.00
   11   14   10     -2.81      0.00
   12   14   10     -2.12      0.00
   13   14   10     -4.23      0.00
   14   14   10     -4.15      0.00
   15   14   10     -3.98      0.00
   16   14   10     -0.89      0.00
   17   14   10     -2.28      0.00
   18   14   10     -2.61      0.00
   19   14   10     -2.98      0.00
   20   14   10     -3.61      0.00
   21   14   10     -1.16      0.00
   -7   15   10      3.56      0.00
   -6   15   10      5.51      0.00
   -5   15   10      0.89      0.00
   -4   15   10     -2.61      0.00
   -3   15   10     -1.32      0.00
   -2   15   10     -2.65      0.00
   -1   15   10      0.60      0.00
    0   15   10      3.61      0.00
    1   15   10      3.66      0.00
    2   15   10     -0.23      0.00
    3   15   10     -1.97      0.00
    4   15   10     -2.27      0.00
    5   15   10     -4.62      0.00
    6   15   10      0.96      0.00
    7   15   10      3.01      0.00
    8   15   10      0.96      0.00
    9   15   10      3.90      0.00
   10   15   10      4.11      0.00
   11   15   10     -0.39      0.00
   12   15   10     -1.32      0.00
   13   15   10     -0.55      0.00
   14   15   10      1.20      0.00
   15   15   10      4.70      0.00
   16   15   10     -2.13      0.00
   17   15   10     -2.87      0.00
   18   15   10     -3.50      0.00
   19   15   10     -3.32      0.00
   20   15   10      1.11      0.00
   21   15   10     -1.87      0.00
   -6   16   10     11.20      0.00
   -5   16   10      8.26      0.00
   -4   16   10      4.71      0.00
   -3   16   10      0.42      0.00
   -2   16   10     -0.85      0.00
   -1   16   10     -0.83      0.00
    0   16   10     -0.28      0.00
    1   16   10     -3.04      0.00
    2   16   10     -0.94      0.00
    3   16   10      0.70      0.00
    4   16   10     -1.82      0.00
    5   16   10      2.35      0.00
    6   16   10      0.59      0.00
    7   16   10     -0.72      0.00
    8   16   10      2.91      0.00
    9   16   10     -0.89      0.00
   10   16   10     -2.28      0.00
   11   16   10      0.56      0.00
   12   16   10     -0.36      0.00
   13   16   10     -2.51      0.00
   14   16   10      1.00      0.00
   15   16   10     -1.77      0.00
   16   16   10      3.53      0.00
   17   16   10     -0.89      0.00
   18   16   10     -5.54      0.00
   19   16   10     -1.55      0.00
   20   16   10     -3.91      0.00
   21   16   10      2.22      0.00
   -4   17   10      2.24      0.00
   -3   17   10     -0.62      0.00
   -2   17   10      2.22      0.00
   -1   17   10      1.35      0.00
    0   17   10     -4.54      0.00
    1   17   10     -1.43      0.00
    2   17   10      2.44      0.00
    3   17   10      1.28      0.00
    4   17   10      6.13      0.00
    5   17   10      2.15      0.00
    6   17   10      0.46      0.00
    7   17   10      2.25      0.00
    8   17   10     -3.93      0.00
    9   17   10     -3.41      0.00
   10   17   10      0.43      0.00
   11   17   10     -0.82      0.00
   12   17   10     -4.29      0.00
   13   17   10     -0.13      0.00
   14   17   10     -1.96      0.00
   15   17   10      1.81      0.00
   16   17   10     -3.80      0.00
   17   17   10     -6.91      0.00
   18   17   10     -3.97      0.00
   19   17   10     -9.80      0.00
   20   17   10     -4.96      0.00
   -3   18   10      2.09      0.00
   -2   18   10     -0.49      0.00
   -1   18   10     -2.80      0.00
    0   18   10      2.51      0.00
    1   18   10      2.26      0.00
    2   18   10     -1.30      0.00
    3   18   10      1.62      0.00
    4   18   10     -5.35      0.00
    5   18   10     -5.81      0.00
    6   18   10     -2.67      0.00
    7   18   10     -5.91      0.00
    8   18   10     -2.47      0.00
    9   18   10     -1.20      0.00
   10   18   10     -5.65      0.00
   11   18   10     -8.20      0.00
   12   18   10     -3.94      0.00
   13   18   10     -6.06      0.00
   14   18   10     -3.43      0.00
   15   18   10     -4.56      0.00
   16   18   10     -5.83      0.00
   17   18   10     -2.51      0.00
   18   18   10     -7.03      0.00
   19   18   10     -2.68      0.00
   20   18   10     -4.21      0.00
   -1   19   10      3.28      0.00
    0   19   10     -2.22      0.00
    1   19   10     -2.10      0.00
    2   19   10      1.20      0.00
    3   19   10     -3.58      0.00
    4   19   10      0.73      0.00
    5   19   10      5.61      0.00
    6   19   10      2.00      0.00
    7   19   10     -0.40      0.00
    8   19   10     -3.54      0.00
    9   19   10     -0.34      0.00
   10   19   10      5.41      0.00
   11   19   10      6.10      0.00
   12   19   10      1.32      0.00
   13   19   10      0.15      0.00
   14   19   10      0.32      0.00
   15   19   10     -1.14      0.00
   16   19   10      4.29      0.00
   17   19   10      2.46      0.00
   18   19   10      7.07      0.00
   19   19   10      5.22      0.00
    1   20   10     -6.16      0.00
    2   20   10     -6.59      0.00
    3   20   10      0.38      0.00
    4   20   10      4.23      0.00
    5   20   10      1.21      0.00
    6   20   10      1.19      0.00
    7   20   10      3.79      0.00
    8   20   10      7.06      0.00
    9   20   10      0.80      0.00
   10   20   10     -4.94      0.00
   11   20   10     -3.01      0.00
   12   20   10     -3.23      0.00
   13   20   10     -2.22      0.00
   14   20   10     -5.61      0.00
   15   20   10     -2.16      0.00
   16   20   10     -2.25      0.00
   17   20   10      3.03      0.00
   18   20   10      2.01      0.00
    3   21   10     -6.79      0.00
    4   21   10     -9.86      0.00
    5   21   10     -5.71      0.00
   11   21   10    -12.12      0.00
   12   21   10     -6.61      0.00
   13   21   10     -5.31      0.00
   14   21   10     -1.85      0.00
   15   21   10     -2.30      0.00
   16   21   10     -2.68      0.00
    6   22   10     -0.32      0.00
   12   22   10     -5.47      0.00
   13   22   10     -8.10      0.00
   14   22   10     -6.81      0.00
   -6  -14   11     -7.18      0.00
   -5  -14   11     -3.18      0.00
  -11  -13   11      2.51      0.00
  -10  -13   11      2.30      0.00
   -9  -13   11     -5.03      0.00
   -8  -13   11     -1.23      0.00
   -7  -13   11      6.50      0.00
   -6  -13   11     10.26      0.00
   -5  -13   11      6.48      0.00
   -4  -13   11     -4.42      0.00
   -3  -13   11     -3.75      0.00
   -2  -13   11      4.48      0.00
   -1  -13   11      7.17      0.00
    0  -13   11     -1.86      0.00
  -11  -12   11     10.02      0.00
  -10  -12   11      8.87      0.00
   -9  -12   11      6.89      0.00
   -8  -12   11      0.33      0.00
   -7  -12   11     -3.02      0.00
   -6  -12   11     -4.29      0.00
   -5  -12   11     -5.56      0.00
   -4  -12   11      1.90      0.00
   -3  -12   11      5.41      0.00
   -2  -12   11     -2.42      0.00
   -1  -12   11     -6.64      0.00
    0  -12   11      1.03      0.00
    1  -12   11      0.91      0.00
    2  -12   11     -3.95      0.00
    3  -12   11     -5.03      0.00
  -11  -11   11     -9.30      0.00
  -10  -11   11    -14.51      0.00
   -9  -11   11     -7.74      0.00
   -8  -11   11      2.86      0.00
   -7  -11   11      3.92      0.00
   -6  -11   11      1.42      0.00
   -5  -11   11      1.79      0.00
   -4  -11   11     -1.45      0.00
   -3  -11   11     -4.11      0.00
   -2  -11   11      1.76      0.00
   -1  -11   11      4.03      0.00
    0  -11   11     -3.54      0.00
    1  -11   11     -3.51      0.00
    2  -11   11      2.03      0.00
    3  -11   11      4.52      0.00
    4  -11   11     -0.13      0.00
    5  -11   11     -5.66      0.00
  -11  -10   11      0.03      0.00
  -10  -10   11      8.92      0.00
   -9  -10   11      5.08      0.00
   -8  -10   11     -3.04      0.00
   -7  -10   11     -0.49      0.00
   -6  -10   11      5.57      0.00
   -5  -10   11      7.04      0.00
   -4  -10   11      4.79      0.00
   -3  -10   11      2.22      0.00
   -2  -10   11     -2.29      0.00
   -1  -10   11     -5.31      0.00
    0  -10   11     -2.27      0.00
    1  -10   11     -1.43      0.00
    2  -10   11     -2.08      0.00
    3  -10   11     -4.72      0.00
    4  -10   11     -3.75      0.00
    5  -10   11      5.29      0.00
    6  -10   11      6.33      0.00
  -13   -9   11      4.85      0.00
  -12   -9   11      4.50      0.00
  -11   -9   11      6.06      0.00
  -10   -9   11     -1.30      0.00
   -9   -9   11     -4.15      0.00
   -8   -9   11     -2.39      0.00
   -7   -9   11     -3.33      0.00
   -6   -9   11     -5.68      0.00
   -5   -9   11     -6.81      0.00
   -4   -9   11     -3.72      0.00
   -3   -9   11     -0.29      0.00
   -2   -9   11     -0.79      0.00
   -1   -9   11     -0.88      0.00
    0   -9   11     -2.87      0.00
    1   -9   11     -2.40      0.00
    2   -9   11     -0.56      0.00
    3   -9   11      2.96      0.00
    4   -9   11      4.77      0.00
    5   -9   11     -2.44      0.00
    6   -9   11     -4.04      0.00
    7   -9   11      4.68      0.00
    8   -9   11      2.06      0.00
  -16   -8   11     -6.18      0.00
  -15   -8   11     -8.89      0.00
  -14   -8   11     -4.76      0.00
  -13   -8   11      0.61      0.00
  -12   -8   11      3.30      0.00
  -11   -8   11      0.59      0.00
  -10   -8   11      1.92      0.00
   -9   -8   11      2.67      0.00
   -8   -8   11      1.38      0.00
   -7   -8   11     -0.41      0.00
   -6   -8   11      0.43      0.00
   -5   -8   11      1.15      0.00
   -4   -8   11     -2.66      0.00
   -3   -8   11     -4.14      0.00
   -2   -8   11      2.25      0.00
   -1   -8   11      1.56      0.00
    0   -8   11     -1.10      0.00
    1   -8   11     -2.02      0.00
    2   -8   11     -4.48      0.00
    3   -8   11     -7.25      0.00
    4   -8   11     -8.90      0.00
    5   -8   11     -3.24      0.00
    6   -8   11      2.07      0.00
    7   -8   11     -0.30      0.00
    8   -8   11      1.50      0.00
    9   -8   11      0.64      0.00
  -16   -7   11      0.46      0.00
  -15   -7   11      5.27      0.00
  -14   -7   11      1.39      0.00
  -13   -7   11     -3.14      0.00
  -12   -7   11     -3.68      0.00
  -11   -7   11     -0.96      0.00
  -10   -7   11      0.08      0.00
   -9   -7   11      0.38      0.00
   -8   -7   11      0.55      0.00
   -7   -7   11      3.74      0.00
   -6   -7   11      3.07      0.00
   -5   -7   11     -2.27      0.00
   -4   -7   11     -2.85      0.00
   -3   -7   11      0.50      0.00
   -2   -7   11     -2.80      0.00
   -1   -7   11     -0.65      0.00
    0   -7   11      2.12      0.00
    1   -7   11     -1.22      0.00
    2   -7   11     -1.04      0.00
    3   -7   11     -2.51      0.00
    4   -7   11     -3.94      0.00
    5   -7   11     -2.29      0.00
    6   -7   11      2.17      0.00
    7   -7   11      4.17      0.00
    8   -7   11      2.73      0.00
    9   -7   11      4.59      0.00
   10   -7   11      4.69      0.00
   11   -7   11     -0.81      0.00
  -16   -6   11      7.69      0.00
  -15   -6   11     -0.97      0.00
  -14   -6   11     -1.99      0.00
  -13   -6   11      1.67      0.00
  -12   -6   11      1.42      0.00
  -11   -6   11     -0.68      0.00
  -10   -6   11      0.25      0.00
   -9   -6   11     -0.21      0.00
   -8   -6   11     -0.11      0.00
   -7   -6   11     -0.38      0.00
   -6   -6   11     -0.25      0.00
   -5   -6   11      2.91      0.00
   -4   -6   11      5.38      0.00
   -3   -6   11      1.34      0.00
   -2   -6   11      0.27      0.00
   -1   -6   11     -1.53      0.00
    0   -6   11     -2.43      0.00
    1   -6   11      3.60      0.00
    2   -6   11     -0.34      0.00
    3   -6   11     -4.39      0.00
    4   -6   11     -1.75      0.00
    5   -6   11      0.68      0.00
    6   -6   11     -2.39      0.00
    7   -6   11     -1.81      0.00
    8   -6   11     -0.48      0.00
    9   -6   11     -5.70      0.00
   10   -6   11     -7.51      0.00
   11   -6   11     -1.60      0.00
   12   -6   11     -2.62      0.00
  -16   -5   11    -10.31      0.00
  -15   -5   11     -6.42      0.00
  -14   -5   11     -0.56      0.00
  -13   -5   11     -3.06      0.00
  -12   -5   11     -6.02      0.00
  -11   -5   11     -2.37      0.00
  -10   -5   11     -2.00      0.00
   -9   -5   11     -0.65      0.00
   -8   -5   11      1.19      0.00
   -7   -5   11      0.48      0.00
   -6   -5   11      1.31      0.00
   -5   -5   11      2.09      0.00
   -4   -5   11     -1.51      0.00
   -3   -5   11      1.09      0.00
   -2   -5   11      4.66      0.00
   -1   -5   11      4.31      0.00
    0   -5   11      3.45      0.00
    1   -5   11     -3.27      0.00
    2   -5   11     -0.11      0.00
    3   -5   11      4.83      0.00
    4   -5   11      1.91      0.00
    5   -5   11     -3.92      0.00
    6   -5   11     -4.28      0.00
    7   -5   11     -1.62      0.00
    8   -5   11     -0.56      0.00
    9   -5   11      2.11      0.00
   10   -5   11      2.23      0.00
   11   -5   11     -0.62      0.00
   12   -5   11      2.05      0.00
   13   -5   11      0.70      0.00
  -16   -4   11      4.03      0.00
  -15   -4   11      5.55      0.00
  -14   -4   11      0.13      0.00
  -13   -4   11     -3.12      0.00
  -12   -4   11     -3.89      0.00
  -11   -4   11    -10.66      0.00
  -10   -4   11     -9.31      0.00
   -9   -4   11     -4.86      0.00
   -8   -4   11     -2.62      0.00
   -7   -4   11      0.07      0.00
   -6   -4   11     -0.65      0.00
   -5   -4   11     -2.92      0.00
   -4   -4   11      3.20      0.00
   -3   -4   11      5.34      0.00
   -2   -4   11      2.81      0.00
   -1   -4   11      3.83      0.00
    0   -4   11      4.20      0.00
    1   -4   11      6.75      0.00
    2   -4   11      2.57      0.00
    3   -4   11     -2.00      0.00
    4   -4   11     -2.17      0.00
    5   -4   11     -2.05      0.00
    6   -4   11      2.42      0.00
    7   -4   11      2.11      0.00
    8   -4   11     -0.69      0.00
    9   -4   11     -3.89      0.00
   10   -4   11     -7.53      0.00
   11   -4   11     -9.45      0.00
   14   -4   11     -4.02      0.00
  -16   -3   11      1.51      0.00
  -15   -3   11     -0.89      0.00
  -14   -3   11      2.47      0.00
  -13   -3   11      4.85      0.00
  -12   -3   11      1.32      0.00
  -11   -3   11      2.99      0.00
  -10   -3   11      1.34      0.00
   -9   -3   11     -0.81      0.00
   -8   -3   11     -0.89      0.00
   -7   -3   11     -2.07      0.00
   -6   -3   11     -0.84      0.00
   -5   -3   11      2.16      0.00
   -4   -3   11     -0.52      0.00
   -3   -3   11     -0.03      0.00
   -2   -3   11      2.43      0.00
   -1   -3   11      2.51      0.00
    0   -3   11      2.69      0.00
    1   -3   11      2.66      0.00
    2   -3   11      6.28      0.00
    3   -3   11      4.36      0.00
    4   -3   11     -3.09      0.00
    5   -3   11      0.25      0.00
    6   -3   11     -1.49      0.00
    7   -3   11      0.11      0.00
    8   -3   11      3.54      0.00
    9   -3   11      0.56      0.00
   10   -3   11      1.00      0.00
   11   -3   11      4.79      0.00
   12   -3   11      4.45      0.00
   13   -3   11      5.71      0.00
   14   -3   11     -0.05      0.00
   15   -3   11     -3.16      0.00
  -16   -2   11     -8.00      0.00
  -15   -2   11      0.23      0.00
  -14   -2   11      5.08      0.00
  -13   -2   11      2.68      0.00
  -12   -2   11     -0.43      0.00
  -11   -2   11     -2.95      0.00
  -10   -2   11     -0.22      0.00
   -9   -2   11      0.77      0.00
   -8   -2   11     -3.65      0.00
   -7   -2   11     -4.81      0.00
   -6   -2   11     -4.33      0.00
   -5   -2   11     -2.75      0.00
   -4   -2   11      0.77      0.00
   -3   -2   11     -0.26      0.00
   -2   -2   11      1.56      0.00
   -1   -2   11      2.88      0.00
    0   -2   11      2.48      0.00
    1   -2   11      2.93      0.00
    2   -2   11     -2.38      0.00
    3   -2   11     -4.84      0.00
    4   -2   11      0.63      0.00
    5   -2   11     -4.55      0.00
    6   -2   11     -1.49      0.00
    7   -2   11      0.37      0.00
    8   -2   11     -4.58      0.00
    9   -2   11     -0.65      0.00
   10   -2   11      1.38      0.00
   11   -2   11     -4.79      0.00
   12   -2   11     -5.25      0.00
   13   -2   11     -7.04      0.00
   14   -2   11     -2.04      0.00
   15   -2   11      7.84      0.00
   16   -2   11      5.67      0.00
  -16   -1   11     -0.67      0.00
  -15   -1   11      0.95      0.00
  -14   -1   11      1.20      0.00
  -13   -1   11     -0.36      0.00
  -12   -1   11      0.33      0.00
  -11   -1   11      3.09      0.00
  -10   -1   11      1.85      0.00
   -9   -1   11     -1.41      0.00
   -8   -1   11      2.28      0.00
   -7   -1   11      1.98      0.00
   -6   -1   11     -0.56      0.00
   -5   -1   11     -0.57      0.00
   -4   -1   11      0.40      0.00
   -3   -1   11      4.59      0.00
   -2   -1   11     -0.31      0.00
   -1   -1   11     -4.00      0.00
    0   -1   11     -1.10      0.00
    1   -1   11     -0.89      0.00
    2   -1   11      2.91      0.00
    3   -1   11      3.28      0.00
    4   -1   11     -3.43      0.00
    5   -1   11      0.43      0.00
    6   -1   11     -1.17      0.00
    7   -1   11     -3.98      0.00
    8   -1   11      2.30      0.00
    9   -1   11      2.34      0.00
   10   -1   11     -1.25      0.00
   11   -1   11     -0.73      0.00
   12   -1   11     -2.47      0.00
   13   -1   11      0.48      0.00
   14   -1   11      4.55      0.00
   15   -1   11     -2.62      0.00
   16   -1   11     -3.34      0.00
  -16    0   11      3.98      0.00
  -15    0   11      3.35      0.00
  -14    0   11     -1.74      0.00
  -13    0   11     -4.52      0.00
  -12    0   11     -4.64      0.00
  -11    0   11     -5.39      0.00
  -10    0   11     -4.83      0.00
   -9    0   11     -0.43      0.00
   -8    0   11     -4.15      0.00
   -7    0   11     -4.47      0.00
   -6    0   11      1.79      0.00
   -5    0   11      1.78      0.00
   -4    0   11      0.86      0.00
   -3    0   11     -2.60      0.00
   -2    0   11     -0.10      0.00
   -1    0   11      0.38      0.00
    0    0   11     -4.42      0.00
    1    0   11     -1.13      0.00
    2    0   11     -2.67      0.00
    3    0   11     -4.10      0.00
    4    0   11     -0.79      0.00
    5    0   11     -2.17      0.00
    6    0   11     -0.03      0.00
    7    0   11      2.88      0.00
    8    0   11      0.46      0.00
    9    0   11      1.43      0.00
   10    0   11      2.84      0.00
   11    0   11      2.69      0.00
   12    0   11      2.08      0.00
   13    0   11      2.91      0.00
   14    0   11      0.93      0.00
   15    0   11      7.86      0.00
   16    0   11     14.48      0.00
   17    0   11      5.20      0.00
  -16    1   11      2.73      0.00
  -15    1   11      3.44      0.00
  -14    1   11      1.82      0.00
  -13    1   11      1.06      0.00
  -12    1   11      0.10      0.00
  -11    1   11      1.52      0.00
  -10    1   11      3.25      0.00
   -9    1   11     -1.12      0.00
   -8    1   11     -0.44      0.00
   -7    1   11      2.14      0.00
   -6    1   11     -2.71      0.00
   -5    1   11      1.87      0.00
   -4    1   11      4.54      0.00
   -3    1   11      3.93      0.00
   -2    1   11     -0.42      0.00
   -1    1   11     -2.29      0.00
    0    1   11      1.61      0.00
    1    1   11     -2.70      0.00
    2    1   11     -1.91      0.00
    3    1   11     -3.18      0.00
    4    1   11     -6.15      0.00
    5    1   11     -2.24      0.00
    6    1   11     -1.26      0.00
    7    1   11     -2.65      0.00
    8    1   11     -2.91      0.00
    9    1   11     -4.56      0.00
   10    1   11     -2.87      0.00
   11    1   11     -5.68      0.00
   12    1   11     -5.68      0.00
   13    1   11     -6.04      0.00
   14    1   11     -1.95      0.00
   15    1   11     -1.04      0.00
   16    1   11    -11.69      0.00
   17    1   11    -12.57      0.00
   18    1   11     -6.89      0.00
  -16    2   11     -2.47      0.00
  -15    2   11     -7.32      0.00
  -14    2   11     -6.09      0.00
  -13    2   11     -2.56      0.00
  -12    2   11      3.39      0.00
  -11    2   11      5.70      0.00
  -10    2   11      0.97      0.00
   -9    2   11     -2.02      0.00
   -8    2   11     -2.76      0.00
   -7    2   11     -3.89      0.00
   -6    2   11      3.06      0.00
   -5    2   11      0.49      0.00
   -4    2   11     -1.47      0.00
   -3    2   11      0.01      0.00
   -2    2   11     -1.75      0.00
   -1    2   11     -5.25      0.00
    0    2   11     -6.18      0.00
    1    2   11      3.92      0.00
    2    2   11      3.37      0.00
    3    2   11      1.21      0.00
    4    2   11      4.91      0.00
    5    2   11      1.59      0.00
    6    2   11      1.51      0.00
    7    2   11      3.33      0.00
    8    2   11      2.42      0.00
    9    2   11      1.77      0.00
   10    2   11     -3.89      0.00
   11    2   11     -2.25      0.00
   12    2   11     -0.22      0.00
   13    2   11      1.53      0.00
   14    2   11      1.63      0.00
   15    2   11     -2.43      0.00
   16    2   11      1.40      0.00
   17    2   11      6.15      0.00
   18    2   11      0.50      0.00
  -15    3   11      4.79      0.00
  -14    3   11      0.71      0.00
  -13    3   11     -2.75      0.00
  -12    3   11     -3.56      0.00
  -11    3   11     -2.81      0.00
  -10    3   11      1.15      0.00
   -9    3   11      2.59      0.00
   -8    3   11      1.19      0.00
   -7    3   11      1.68      0.00
   -6    3   11     -2.31      0.00
   -5    3   11     -2.10      0.00
   -4    3   11     -1.33      0.00
   -3    3   11     -6.27      0.00
   -2    3   11     -6.90      0.00
   -1    3   11     -4.06      0.00
    0    3   11     -1.83      0.00
    1    3   11     -7.86      0.00
    2    3   11     -5.11      0.00
    3    3   11     -1.24      0.00
    4    3   11     -7.54      0.00
    5    3   11     -1.13      0.00
    6    3   11      1.66      0.00
    7    3   11     -5.14      0.00
    8    3   11     -5.95      0.00
    9    3   11     -2.72      0.00
   10    3   11      2.17      0.00
   11    3   11      2.13      0.00
   12    3   11      0.34      0.00
   13    3   11      1.61      0.00
   14    3   11     -0.64      0.00
   15    3   11     -3.16      0.00
   16    3   11     -5.31      0.00
   17    3   11    -10.46      0.00
   18    3   11     -3.69      0.00
   19    3   11      0.18      0.00
  -15    4   11     -3.19      0.00
  -14    4   11     -9.33      0.00
  -13    4   11     -8.53      0.00
  -12    4   11     -5.50      0.00
  -11    4   11     -1.03      0.00
  -10    4   11      0.83      0.00
   -9    4   11      2.01      0.00
   -8    4   11     -0.04      0.00
   -7    4   11     -2.59      0.00
   -6    4   11     -2.88      0.00
   -5    4   11     -1.07      0.00
   -4    4   11     -2.50      0.00
   -3    4   11      0.25      0.00
   -2    4   11     -2.50      0.00
   -1    4   11     -7.10      0.00
    0    4   11     -8.00      0.00
    1    4   11     -2.47      0.00
    2    4   11     -6.86      0.00
    3    4   11    -15.21      0.00
    4    4   11     -4.60      0.00
    5    4   11     -6.02      0.00
    6    4   11    -11.60      0.00
    7    4   11     -2.55      0.00
    8    4   11      0.46      0.00
    9    4   11     -3.97      0.00
   10    4   11     -5.01      0.00
   11    4   11     -5.57      0.00
   12    4   11     -2.67      0.00
   13    4   11     -1.75      0.00
   14    4   11      0.12      0.00
   15    4   11      2.70      0.00
   16    4   11      0.37      0.00
   17    4   11      3.14      0.00
   18    4   11      0.60      0.00
   19    4   11     -3.64      0.00
  -14    5   11      9.88      0.00
  -13    5   11      8.59      0.00
  -12    5   11      4.23      0.00
  -11    5   11      2.37      0.00
  -10    5   11      0.24      0.00
   -9    5   11     -4.17      0.00
   -8    5   11     -2.55      0.00
   -7    5   11     -1.88      0.00
   -6    5   11     -1.41      0.00
   -5    5   11     -4.37      0.00
   -4    5   11     -1.56      0.00
   -3    5   11     -2.41      0.00
   -2    5   11     -1.48      0.00
   -1    5   11      0.94      0.00
    0    5   11      2.44      0.00
    1    5   11     -2.04      0.00
    2    5   11     -2.52      0.00
    3    5   11      5.43      0.00
    4    5   11     -4.14      0.00
    5    5   11     -7.96      0.00
    6    5   11     -0.67      0.00
    7    5   11     -8.35      0.00
    8    5   11     -9.30      0.00
    9    5   11     -1.89      0.00
   10    5   11     -3.73      0.00
   11    5   11     -3.19      0.00
   12    5   11     -0.79      0.00
   13    5   11     -0.88      0.00
   14    5   11     -3.64      0.00
   15    5   11     -4.64      0.00
   16    5   11      3.58      0.00
   17    5   11      6.73      0.00
   18    5   11      2.97      0.00
   19    5   11      1.73      0.00
   20    5   11     -4.06      0.00
  -14    6   11     -3.07      0.00
  -13    6   11     -0.56      0.00
  -12    6   11      6.39      0.00
  -11    6   11      5.69      0.00
  -10    6   11      4.71      0.00
   -9    6   11      3.82      0.00
   -8    6   11     -2.92      0.00
   -7    6   11     -4.84      0.00
   -6    6   11     -5.49      0.00
   -5    6   11     -2.33      0.00
   -4    6   11     -1.39      0.00
   -3    6   11     -0.17      0.00
   -2    6   11      0.20      0.00
   -1    6   11      3.78      0.00
    0    6   11      7.55      0.00
    1    6   11     10.71      0.00
    2    6   11     11.68      0.00
    3    6   11      3.66      0.00
    4    6   11      6.86      0.00
    5    6   11      8.90      0.00
    6    6   11     -6.83      0.00
    7    6   11     -5.91      0.00
    8    6   11     -3.27      0.00
    9    6   11     -7.08      0.00
   10    6   11     -5.03      0.00
   11    6   11     -2.64      0.00
   12    6   11     -7.23      0.00
   13    6   11    -10.96      0.00
   14    6   11     -7.55      0.00
   15    6   11      0.46      0.00
   16    6   11      0.90      0.00
   17    6   11     -1.71      0.00
   18    6   11     -0.22      0.00
   19    6   11      1.02      0.00
   20    6   11      5.92      0.00
  -13    7   11      3.67      0.00
  -12    7   11     -2.74      0.00
  -11    7   11     -0.07      0.00
  -10    7   11      0.08      0.00
   -9    7   11     -1.03      0.00
   -8    7   11      2.48      0.00
   -7    7   11      0.00      0.00
   -6    7   11     -1.95      0.00
   -5    7   11     -1.50      0.00
   -4    7   11     -3.34      0.00
   -3    7   11     -4.94      0.00
   -2    7   11     -2.40      0.00
   -1    7   11     -1.69      0.00
    0    7   11     -1.90      0.00
    1    7   11     -1.97      0.00
    2    7   11     -5.43      0.00
    3    7   11     -3.12      0.00
    4    7   11     -6.10      0.00
    5    7   11    -15.72      0.00
    6    7   11     -6.26      0.00
    7    7   11     -2.03      0.00
    8    7   11     -0.46      0.00
    9    7   11      1.75      0.00
   10    7   11      4.73      0.00
   11    7   11      1.75      0.00
   12    7   11      1.67      0.00
   13    7   11      5.29      0.00
   14    7   11      6.15      0.00
   15    7   11      2.83      0.00
   16    7   11      3.40      0.00
   17    7   11      1.62      0.00
   18    7   11     -3.55      0.00
   19    7   11     -6.72      0.00
   20    7   11     -6.70      0.00
  -12    8   11      5.34      0.00
  -11    8   11      5.67      0.00
  -10    8   11      4.76      0.00
   -9    8   11      4.96      0.00
   -8    8   11      0.46      0.00
   -7    8   11      2.84      0.00
   -6    8   11      7.16      0.00
   -5    8   11      6.02      0.00
   -4    8   11      6.12      0.00
   -3    8   11      4.45      0.00
   -2    8   11      1.02      0.00
   -1    8   11      2.34      0.00
    0    8   11      2.15      0.00
    1    8   11     -4.78      0.00
    2    8   11     -7.42      0.00
    3    8   11     -7.78      0.00
    4    8   11     -7.56      0.00
    5    8   11     -1.37      0.00
    6    8   11     -3.40      0.00
    7    8   11     -2.23      0.00
    8    8   11     -0.46      0.00
    9    8   11      3.14      0.00
   10    8   11     -1.57      0.00
   11    8   11      0.02      0.00
   12    8   11      3.32      0.00
   13    8   11     -2.45      0.00
   14    8   11     -6.23      0.00
   15    8   11      0.23      0.00
   16    8   11      1.24      0.00
   17    8   11      0.32      0.00
   18    8   11     -0.42      0.00
   19    8   11      0.81      0.00
   20    8   11     -1.64      0.00
  -12    9   11     -0.05      0.00
  -11    9   11     -3.74      0.00
  -10    9   11     -3.41      0.00
   -9    9   11     -3.91      0.00
   -8    9   11      1.96      0.00
   -7    9   11      3.24      0.00
   -6    9   11      1.36      0.00
   -5    9   11      4.05      0.00
   -4    9   11      3.29      0.00
   -3    9   11      3.39      0.00
   -2    9   11      4.61      0.00
   -1    9   11      1.11      0.00
    0    9   11     -4.46      0.00
    1    9   11     -4.70      0.00
    2    9   11     -1.25      0.00
    3    9   11      2.61      0.00
    4    9   11      4.85      0.00
    5    9   11      3.25      0.00
    6    9   11      1.24      0.00
    7    9   11     -2.55      0.00
    8    9   11     -1.82      0.00
    9    9   11     -4.26      0.00
   10    9   11      3.30      0.00
   11    9   11      7.88      0.00
   12    9   11      2.81      0.00
   13    9   11      4.00      0.00
   14    9   11      8.37      0.00
   15    9   11      4.45      0.00
   16    9   11      4.23      0.00
   17    9   11      3.62      0.00
   18    9   11      2.25      0.00
   19    9   11      1.46      0.00
   20    9   11      3.45      0.00
   21    9   11      5.96      0.00
  -11   10   11      0.21      0.00
  -10   10   11     -2.11      0.00
   -9   10   11     -0.46      0.00
   -8   10   11     -3.46      0.00
   -7   10   11     -3.18      0.00
   -6   10   11      2.63      0.00
   -5   10   11      1.01      0.00
   -4   10   11     -0.03      0.00
   -3   10   11     -1.54      0.00
   -2   10   11     -0.20      0.00
   -1   10   11      2.40      0.00
    0   10   11      0.98      0.00
    1   10   11     -0.37      0.00
    2   10   11     -1.68      0.00
    3   10   11     -4.65      0.00
    4   10   11     -5.19      0.00
    5   10   11     -5.66      0.00
    6   10   11     -3.06      0.00
    7   10   11      3.22      0.00
    8   10   11      0.94      0.00
    9   10   11      2.67      0.00
   10   10   11      3.02      0.00
   11   10   11      0.81      0.00
   12   10   11      2.44      0.00
   13   10   11      2.09      0.00
   14   10   11     -1.16      0.00
   15   10   11     -1.12      0.00
   16   10   11     -3.92      0.00
   17   10   11     -5.50      0.00
   18   10   11     -1.67      0.00
   19   10   11     -1.36      0.00
   20   10   11     -0.51      0.00
   21   10   11      2.34      0.00
  -11   11   11     -0.75      0.00
  -10   11   11     -0.47      0.00
   -9   11   11     -3.10      0.00
   -8   11   11     -1.48      0.00
   -7   11   11     -0.16      0.00
   -6   11   11     -6.01      0.00
   -5   11   11     -1.42      0.00
   -4   11   11      0.45      0.00
   -3   11   11      0.58      0.00
   -2   11   11      0.24      0.00
   -1   11   11     -1.39      0.00
    0   11   11      2.29      0.00
    1   11   11      0.72      0.00
    2   11   11     -4.55      0.00
    3   11   11     -3.25      0.00
    4   11   11     -0.34      0.00
    5   11   11      3.51      0.00
    6   11   11      5.99      0.00
    7   11   11     -1.43      0.00
    8   11   11     -2.06      0.00
    9   11   11      0.34      0.00
   10   11   11     -0.27      0.00
   11   11   11      0.62      0.00
   12   11   11      3.91      0.00
   13   11   11      2.46      0.00
   14   11   11     -1.48      0.00
   15   11   11     -2.34      0.00
   16   11   11     -1.02      0.00
   17   11   11     -0.57      0.00
   18   11   11     -7.79      0.00
   19   11   11     -5.19      0.00
   20   11   11     -1.29      0.00
   21   11   11     -5.73      0.00
  -10   12   11      0.94      0.00
   -9   12   11      4.23      0.00
   -8   12   11      0.52      0.00
   -7   12   11     -3.05      0.00
   -6   12   11      8.58      0.00
   -5   12   11      6.22      0.00
   -4   12   11     -0.17      0.00
   -3   12   11     -0.36      0.00
   -2   12   11     -2.70      0.00
   -1   12   11     -1.32      0.00
    0   12   11     -4.37      0.00
    1   12   11     -2.79      0.00
    2   12   11      3.92      0.00
    3   12   11      4.41      0.00
    4   12   11      1.03      0.00
    5   12   11     -0.11      0.00
    6   12   11     -6.52      0.00
    7   12   11     -3.57      0.00
    8   12   11      0.04      0.00
    9   12   11     -1.94      0.00
   10   12   11     -2.00      0.00
   11   12   11      0.48      0.00
   12   12   11     -4.20      0.00
   13   12   11     -3.72      0.00
   14   12   11      3.45      0.00
   15   12   11      5.02      0.00
   16   12   11      5.40      0.00
   17   12   11      3.92      0.00
   18   12   11      9.26      0.00
   19   12   11      6.22      0.00
   20   12   11      0.17      0.00
   21   12   11      4.45      0.00
   -9   13   11     -5.54      0.00
   -8   13   11     -3.34      0.00
   -7   13   11      4.10      0.00
   -6   13   11     -4.29      0.00
   -5   13   11     -2.15      0.00
   -4   13   11      9.18      0.00
   -3   13   11      5.41      0.00
   -2   13   11      3.84      0.00
   -1   13   11      0.19      0.00
    0   13   11      0.56      0.00
    1   13   11      0.81      0.00
    2   13   11     -2.82      0.00
    3   13   11     -5.11      0.00
    4   13   11     -2.31      0.00
    5   13   11     -3.52      0.00
    6   13   11      2.17      0.00
    7   13   11      2.63      0.00
    8   13   11      0.85      0.00
    9   13   11      2.58      0.00
   10   13   11      2.98      0.00
   11   13   11     -3.35      0.00
   12   13   11     -1.35      0.00
   13   13   11      0.45      0.00
   14   13   11     -3.56      0.00
   15   13   11     -3.21      0.00
   16   13   11     -2.65      0.00
   17   13   11      1.56      0.00
   18   13   11      2.63      0.00
   19   13   11      7.59      0.00
   20   13   11     13.36      0.00
   21   13   11      7.46      0.00
   -8   14   11     -5.31      0.00
   -7   14   11    -11.71      0.00
   -6   14   11     -2.56      0.00
   -5   14   11      4.90      0.00
   -4   14   11     -2.48      0.00
   -3   14   11      1.30      0.00
   -2   14   11     -0.47      0.00
   -1   14   11     -5.48      0.00
    0   14   11     -7.78      0.00
    1   14   11     -8.45      0.00
    2   14   11     -8.94      0.00
    3   14   11     -7.55      0.00
    4   14   11     -6.41      0.00
    5   14   11     -3.30      0.00
    6   14   11     -7.16      0.00
    7   14   11     -3.83      0.00
    8   14   11      2.72      0.00
    9   14   11      6.43      0.00
   10   14   11      5.33      0.00
   11   14   11      7.97      0.00
   12   14   11      7.05      0.00
   13   14   11      4.82      0.00
   14   14   11      3.45      0.00
   15   14   11      2.11      0.00
   16   14   11      4.65      0.00
   17   14   11      4.60      0.00
   18   14   11      6.25      0.00
   19   14   11      5.64      0.00
   20   14   11      1.37      0.00
   -7   15   11     -5.25      0.00
   -6   15   11     -7.73      0.00
   -5   15   11     -5.62      0.00
   -4   15   11      6.61      0.00
   -3   15   11      5.69      0.00
   -2   15   11      0.31      0.00
   -1   15   11      2.54      0.00
    0   15   11      3.43      0.00
    1   15   11     -0.11      0.00
    2   15   11     -3.55      0.00
    3   15   11     -1.63      0.00
    4   15   11     -0.45      0.00
    5   15   11     -2.24      0.00
    6   15   11      2.06      0.00
    7   15   11      0.53      0.00
    8   15   11      0.98      0.00
    9   15   11      0.73      0.00
   10   15   11     -0.57      0.00
   11   15   11     -1.49      0.00
   12   15   11      0.23      0.00
   13   15   11     -0.43      0.00
   14   15   11     -1.36      0.00
   15   15   11     -2.93      0.00
   16   15   11     -6.74      0.00
   17   15   11     -1.95      0.00
   18   15   11      1.27      0.00
   19   15   11      2.65      0.00
   20   15   11      2.02      0.00
   21   15   11     -1.65      0.00
   -5   16   11     -5.65      0.00
   -4   16   11     -7.21      0.00
   -3   16   11     -3.98      0.00
   -2   16   11      2.57      0.00
   -1   16   11      2.39      0.00
    0   16   11     -0.23      0.00
    1   16   11     -1.15      0.00
    2   16   11      2.58      0.00
    3   16   11      0.22      0.00
    4   16   11      0.16      0.00
    5   16   11      4.85      0.00
    6   16   11      1.14      0.00
    7   16   11      4.27      0.00
    8   16   11      5.05      0.00
    9   16   11      1.03      0.00
   10   16   11      1.52      0.00
   11   16   11      2.83      0.00
   12   16   11      0.28      0.00
   13   16   11     -2.52      0.00
   14   16   11     -4.08      0.00
   15   16   11     -3.67      0.00
   16   16   11      4.81      0.00
   17   16   11      2.04      0.00
   18   16   11      1.31      0.00
   19   16   11      2.52      0.00
   20   16   11      1.79      0.00
   -4   17   11     10.04      0.00
   -3   17   11      4.83      0.00
   -2   17   11     -1.15      0.00
   -1   17   11     -3.94      0.00
    0   17   11     -0.29      0.00
    1   17   11      4.07      0.00
    2   17   11     -2.34      0.00
    3   17   11     -2.17      0.00
    4   17   11      2.25      0.00
    5   17   11     -2.72      0.00
    6   17   11      1.27      0.00
    7   17   11      2.39      0.00
    8   17   11     -0.05      0.00
    9   17   11      5.30      0.00
   10   17   11      7.01      0.00
   11   17   11      4.01      0.00
   12   17   11      1.36      0.00
   13   17   11      2.46      0.00
   14   17   11      2.01      0.00
   15   17   11      4.80      0.00
   16   17   11     -4.05      0.00
   17   17   11     -2.14      0.00
   18   17   11      2.68      0.00
   19   17   11      4.09      0.00
   20   17   11      7.62      0.00
   -3   18   11      2.55      0.00
   -2   18   11     -1.03      0.00
   -1   18   11      3.25      0.00
    0   18   11      2.65      0.00
    1   18   11     -6.46      0.00
    2   18   11     -4.44      0.00
    4   18   11     -1.01      0.00
    5   18   11      6.60      0.00
    7   18   11      2.38      0.00
    8   18   11      4.35      0.00
    9   18   11     -1.60      0.00
   10   18   11     -6.01      0.00
   11   18   11     -3.87      0.00
   12   18   11      0.66      0.00
   13   18   11     -1.22      0.00
   14   18   11      0.23      0.00
   15   18   11     -4.30      0.00
   17   18   11      4.85      0.00
   18   18   11      2.53      0.00
   19   18   11      2.67      0.00
   -1   19   11     -3.25      0.00
    0   19   11     -7.23      0.00
    1   19   11     -1.70      0.00
    2   19   11      1.72      0.00
    3   19   11      0.38      0.00
    5   19   11     -0.34      0.00
    6   19   11     -6.76      0.00
    7   19   11     -4.27      0.00
    8   19   11     -3.75      0.00
    9   19   11      1.83      0.00
   10   19   11      3.74      0.00
   11   19   11      0.48      0.00
   12   19   11     -2.72      0.00
   13   19   11      0.80      0.00
   14   19   11      1.40      0.00
   15   19   11      3.23      0.00
   16   19   11      2.49      0.00
   17   19   11     -2.03      0.00
   18   19   11      1.38      0.00
   19   19   11     -1.04      0.00
    1   20   11     -1.50      0.00
    2   20   11     -1.37      0.00
    3   20   11      1.08      0.00
    4   20   11     -6.11      0.00
    7   20   11     -0.84      0.00
    8   20   11      1.08      0.00
    9   20   11     -1.38      0.00
   10   20   11      1.85      0.00
   11   20   11      5.39      0.00
   12   20   11      2.60      0.00
   13   20   11     -0.05      0.00
   14   20   11     -0.82      0.00
   15   20   11      3.48      0.00
   16   20   11      2.34      0.00
   17   20   11      5.14      0.00
   18   20   11      1.15      0.00
    3   21   11     -0.09      0.00
    4   21   11      3.22      0.00
    5   21   11      7.99      0.00
   11   21   11      0.80      0.00
   12   21   11      3.96      0.00
   13   21   11      2.32      0.00
   14   21   11      4.58      0.00
   15   21   11     -0.62      0.00
   16   21   11     -0.78      0.00
    6   22   11     -8.19      0.00
   12   22   11     -0.24      0.00
   13   22   11      4.23      0.00
   14   22   11      2.13      0.00
   -7  -13   12      1.01      0.00
   -6  -13   12     -2.11      0.00
   -5  -13   12     -5.38      0.00
   -4  -13   12     -2.77      0.00
   -3  -13   12      5.98      0.00
  -10  -12   12      4.52      0.00
   -9  -12   12      2.30      0.00
   -8  -12   12     -4.05      0.00
   -7  -12   12     -4.05      0.00
   -6  -12   12     -1.30      0.00
   -5  -12   12      3.56      0.00
   -4  -12   12      8.05      0.00
   -3  -12   12      1.30      0.00
   -2  -12   12     -4.33      0.00
   -1  -12   12      2.53      0.00
    0  -12   12      7.84      0.00
    1  -12   12      0.47      0.00
  -11  -11   12     -3.43      0.00
  -10  -11   12     -3.37      0.00
   -9  -11   12      0.87      0.00
   -8  -11   12      0.26      0.00
   -7  -11   12     -5.44      0.00
   -6  -11   12     -6.01      0.00
   -5  -11   12     -4.56      0.00
   -4  -11   12     -7.63      0.00
   -3  -11   12     -5.33      0.00
   -2  -11   12      2.24      0.00
   -1  -11   12     -0.78      0.00
    0  -11   12     -4.93      0.00
    1  -11   12      0.96      0.00
    2  -11   12      4.86      0.00
    3  -11   12      3.67      0.00
  -11  -10   12     -4.51      0.00
  -10  -10   12     -2.84      0.00
   -9  -10   12     -8.32      0.00
   -8  -10   12     -5.69      0.00
   -7  -10   12      3.11      0.00
   -6  -10   12      5.74      0.00
   -5  -10   12      4.42      0.00
   -4  -10   12      5.09      0.00
   -3  -10   12      7.12      0.00
   -2  -10   12      4.13      0.00
   -1  -10   12      4.58      0.00
    0  -10   12      4.72      0.00
    1  -10   12     -1.14      0.00
    2  -10   12     -3.75      0.00
    3  -10   12     -4.07      0.00
    4  -10   12      0.51      0.00
    5  -10   12      2.66      0.00
  -11   -9   12     -1.07      0.00
  -10   -9   12     -7.29      0.00
   -9   -9   12     -2.03      0.00
   -8   -9   12      1.95      0.00
   -7   -9   12     -0.09      0.00
   -6   -9   12     -0.53      0.00
   -5   -9   12      1.65      0.00
   -4   -9   12      4.67      0.00
   -3   -9   12      1.71      0.00
   -2   -9   12      0.63      0.00
   -1   -9   12      3.12      0.00
    0   -9   12      4.91      0.00
    1   -9   12      6.88      0.00
    2   -9   12      4.63      0.00
    3   -9   12      4.94      0.00
    4   -9   12      3.89      0.00
    5   -9   12      1.45      0.00
    6   -9   12      7.32      0.00
    7   -9   12      8.91      0.00
  -13   -8   12      3.36      0.00
  -11   -8   12     -1.36      0.00
  -10   -8   12      4.13      0.00
   -9   -8   12      4.49      0.00
   -8   -8   12      2.27      0.00
   -7   -8   12      1.90      0.00
   -6   -8   12      2.38      0.00
   -5   -8   12      0.62      0.00
   -4   -8   12     -3.92      0.00
   -3   -8   12     -1.65      0.00
   -2   -8   12      2.61      0.00
   -1   -8   12      0.42      0.00
    0   -8   12     -1.22      0.00
    2   -8   12     -3.30      0.00
    3   -8   12      0.90      0.00
    4   -8   12      3.68      0.00
    5   -8   12      5.47      0.00
    6   -8   12      0.37      0.00
    7   -8   12     -1.70      0.00
    8   -8   12      2.52      0.00
  -15   -7   12     -2.51      0.00
  -14   -7   12     -6.03      0.00
  -13   -7   12     -5.07      0.00
  -12   -7   12     -2.97      0.00
  -11   -7   12      0.29      0.00
  -10   -7   12     -2.59      0.00
   -9   -7   12     -3.27      0.00
   -8   -7   12     -3.09      0.00
   -7   -7   12     -2.46      0.00
   -6   -7   12     -2.05      0.00
   -5   -7   12      0.74      0.00
   -4   -7   12      4.07      0.00
   -3   -7   12      0.49      0.00
   -2   -7   12     -4.27      0.00
   -1   -7   12      0.20      0.00
    0   -7   12      0.00      0.00
    1   -7   12      0.94      0.00
    2   -7   12      4.45      0.00
    3   -7   12      2.15      0.00
    4   -7   12      0.42      0.00
    5   -7   12      1.02      0.00
    6   -7   12      3.78      0.00
    7   -7   12      1.40      0.00
    8   -7   12     -3.13      0.00
    9   -7   12     -0.17      0.00
   10   -7   12     -0.63      0.00
  -15   -6   12      1.78      0.00
  -14   -6   12      7.97      0.00
  -13   -6   12      6.91      0.00
  -12   -6   12      2.02      0.00
  -11   -6   12     -2.53      0.00
  -10   -6   12     -2.24      0.00
   -9   -6   12     -3.63      0.00
   -8   -6   12     -1.59      0.00
   -7   -6   12      0.49      0.00
   -6   -6   12      1.69      0.00
   -5   -6   12      1.81      0.00
   -4   -6   12      0.40      0.00
   -3   -6   12      1.35      0.00
   -2   -6   12      5.46      0.00
   -1   -6   12      1.04      0.00
    0   -6   12      0.82      0.00
    1   -6   12      3.38      0.00
    2   -6   12     -0.62      0.00
    3   -6   12      0.50      0.00
    4   -6   12      1.77      0.00
    5   -6   12     -0.11      0.00
    6   -6   12     -1.58      0.00
    7   -6   12      1.88      0.00
    8   -6   12      2.81      0.00
    9   -6   12      0.64      0.00
   10   -6   12      4.25      0.00
   11   -6   12      7.10      0.00
  -16   -5   12      4.09      0.00
  -15   -5   12      5.63      0.00
  -14   -5   12      0.28      0.00
  -13   -5   12     -3.03      0.00
  -12   -5   12      0.13      0.00
  -11   -5   12      2.45      0.00
  -10   -5   12     -2.42      0.00
   -9   -5   12     -1.07      0.00
   -8   -5   12     -1.78      0.00
   -7   -5   12     -3.61      0.00
   -6   -5   12     -2.45      0.00
   -5   -5   12     -3.96      0.00
   -4   -5   12     -6.17      0.00
   -3   -5   12     -3.71      0.00
   -2   -5   12     -5.25      0.00
   -1   -5   12     -3.05      0.00
    0   -5   12     -0.44      0.00
    1   -5   12     -2.27      0.00
    2   -5   12      1.42      0.00
    3   -5   12      0.07      0.00
    4   -5   12     -2.16      0.00
    5   -5   12      1.39      0.00
    6   -5   12      5.08      0.00
    7   -5   12      2.28      0.00
    8   -5   12      1.13      0.00
    9   -5   12      3.86      0.00
   10   -5   12      4.08      0.00
   11   -5   12      3.25      0.00
   12   -5   12      3.85      0.00
  -16   -4   12      9.45      0.00
  -15   -4   12      2.00      0.00
  -14   -4   12     -3.97      0.00
  -13   -4   12     -0.74      0.00
  -12   -4   12      1.12      0.00
  -11   -4   12     -2.00      0.00
  -10   -4   12      2.89      0.00
   -9   -4   12      1.83      0.00
   -8   -4   12      1.12      0.00
   -7   -4   12      2.31      0.00
   -6   -4   12     -1.13      0.00
   -5   -4   12     -1.35      0.00
   -4   -4   12      2.53      0.00
   -3   -4   12     -1.26      0.00
   -2   -4   12     -1.45      0.00
   -1   -4   12      0.11      0.00
    0   -4   12     -1.91      0.00
    1   -4   12     -1.02      0.00
    2   -4   12     -4.21      0.00
    3   -4   12     -3.59      0.00
    4   -4   12      1.01      0.00
    5   -4   12      2.01      0.00
    6   -4   12     -0.39      0.00
    7   -4   12     -3.57      0.00
    8   -4   12     -2.71      0.00
    9   -4   12      0.74      0.00
   10   -4   12      3.03      0.00
   11   -4   12      3.99      0.00
   12   -4   12      5.06      0.00
   13   -4   12      6.82      0.00
  -16   -3   12     -8.81      0.00
  -15   -3   12    -11.79      0.00
  -14   -3   12     -6.27      0.00
  -13   -3   12     -2.82      0.00
  -12   -3   12     -2.56      0.00
  -11   -3   12      2.47      0.00
  -10   -3   12     -0.01      0.00
   -9   -3   12      0.82      0.00
   -8   -3   12      0.81      0.00
   -7   -3   12     -2.31      0.00
   -6   -3   12     -2.61      0.00
   -5   -3   12     -3.33      0.00
   -4   -3   12     -7.03      0.00
   -3   -3   12     -3.73      0.00
   -2   -3   12     -3.03      0.00
   -1   -3   12     -4.85      0.00
    0   -3   12     -2.85      0.00
    1   -3   12     -2.42      0.00
    2   -3   12     -1.53      0.00
    3   -3   12     -1.94      0.00
    4   -3   12     -1.52      0.00
    5   -3   12      1.26      0.00
    6   -3   12      0.07      0.00
    7   -3   12      4.25      0.00
    8   -3   12      5.50      0.00
    9   -3   12      2.02      0.00
   10   -3   12      2.71      0.00
   11   -3   12      2.00      0.00
   12   -3   12     -2.20      0.00
   13   -3   12     -5.96      0.00
   14   -3   12     -5.21      0.00
  -16   -2   12      2.28      0.00
  -15   -2   12      1.17      0.00
  -14   -2   12     -0.75      0.00
  -13   -2   12     -1.08      0.00
  -12   -2   12      2.25      0.00
  -11   -2   12      1.03      0.00
  -10   -2   12      3.02      0.00
   -9   -2   12      2.07      0.00
   -8   -2   12      0.87      0.00
   -7   -2   12      1.54      0.00
   -6   -2   12      2.73      0.00
   -5   -2   12      3.91      0.00
   -4   -2   12      4.42      0.00
   -3   -2   12      0.23      0.00
   -2   -2   12      0.69      0.00
   -1   -2   12      1.56      0.00
    0   -2   12      0.29      0.00
    1   -2   12     -1.75      0.00
    2   -2   12     -2.67      0.00
    3   -2   12      1.05      0.00
    4   -2   12      2.98      0.00
    5   -2   12     -0.45      0.00
    6   -2   12      4.13      0.00
    7   -2   12      1.35      0.00
    8   -2   12     -0.92      0.00
    9   -2   12      3.63      0.00
   10   -2   12      1.86      0.00
   11   -2   12      3.03      0.00
   12   -2   12      8.31      0.00
   13   -2   12      9.23      0.00
   14   -2   12     10.76      0.00
   15   -2   12      6.46      0.00
  -16   -1   12      2.60      0.00
  -15   -1   12      6.88      0.00
  -14   -1   12      6.14      0.00
  -13   -1   12      3.24      0.00
  -12   -1   12      1.03      0.00
  -11   -1   12      1.66      0.00
  -10   -1   12      0.27      0.00
   -9   -1   12      0.61      0.00
   -8   -1   12      0.77      0.00
   -7   -1   12     -0.91      0.00
   -6   -1   12     -0.98      0.00
   -5   -1   12      0.52      0.00
   -4   -1   12      2.80      0.00
   -3   -1   12      5.89      0.00
   -2   -1   12      1.12      0.00
   -1   -1   12      0.22      0.00
    0   -1   12      0.38      0.00
    1   -1   12      0.80      0.00
    2   -1   12      2.40      0.00
    3   -1   12     -1.28      0.00
    4   -1   12     -3.50      0.00
    5   -1   12      1.89      0.00
    6   -1   12     -0.40      0.00
    7   -1   12      2.04      0.00
    8   -1   12      2.28      0.00
    9   -1   12     -5.36      0.00
   10   -1   12     -2.05      0.00
   11   -1   12      1.78      0.00
   12   -1   12     -3.55      0.00
   13   -1   12     -6.25      0.00
   14   -1   12     -9.80      0.00
   15   -1   12    -11.02      0.00
   16   -1   12     -0.55      0.00
  -16    0   12      4.86      0.00
  -15    0   12     -0.59      0.00
  -14    0   12     -0.89      0.00
  -13    0   12      2.32      0.00
  -12    0   12      0.23      0.00
  -11    0   12     -2.48      0.00
  -10    0   12      1.20      0.00
   -9    0   12      2.05      0.00
   -8    0   12     -1.88      0.00
   -7    0   12      0.21      0.00
   -6    0   12      2.38      0.00
   -5    0   12     -0.09      0.00
   -4    0   12     -2.39      0.00
   -3    0   12     -5.30      0.00
   -2    0   12     -0.56      0.00
   -1    0   12     -1.85      0.00
    0    0   12     -3.49      0.00
    1    0   12     -1.31      0.00
    2    0   12     -2.15      0.00
    3    0   12      1.01      0.00
    4    0   12      1.91      0.00
    5    0   12     -1.93      0.00
    6    0   12      1.72      0.00
    7    0   12      0.67      0.00
    8    0   12     -2.91      0.00
    9    0   12     -0.15      0.00
   10    0   12     -1.50      0.00
   11    0   12     -3.91      0.00
   12    0   12     -0.45      0.00
   13    0   12      1.27      0.00
   14    0   12      1.88      0.00
   15    0   12      8.44      0.00
   16    0   12      3.92      0.00
   17    0   12     -3.28      0.00
  -15    1   12     -4.91      0.00
  -14    1   12     -6.64      0.00
  -13    1   12    -12.40      0.00
  -12    1   12     -9.54      0.00
  -11    1   12      1.27      0.00
  -10    1   12      2.71      0.00
   -9    1   12     -0.05      0.00
   -8    1   12      2.98      0.00
   -7    1   12      0.88      0.00
   -6    1   12     -2.22      0.00
   -5    1   12      1.57      0.00
   -4    1   12     -0.35      0.00
   -3    1   12     -1.62      0.00
   -2    1   12     -4.38      0.00
   -1    1   12     -1.09      0.00
    0    1   12      1.14      0.00
    1    1   12     -2.27      0.00
    2    1   12      1.46      0.00
    3    1   12      1.00      0.00
    4    1   12      2.22      0.00
    5    1   12      6.54      0.00
    6    1   12      4.64      0.00
    7    1   12      2.83      0.00
    8    1   12      1.97      0.00
    9    1   12      0.47      0.00
   10    1   12      0.28      0.00
   11    1   12     -0.36      0.00
   12    1   12     -2.07      0.00
   13    1   12     -6.30      0.00
   14    1   12     -6.80      0.00
   15    1   12    -13.11      0.00
   16    1   12    -13.81      0.00
   17    1   12      0.17      0.00
  -15    2   12     -0.69      0.00
  -14    2   12     -2.05      0.00
  -13    2   12     -0.86      0.00
  -12    2   12      2.36      0.00
  -11    2   12     -1.79      0.00
  -10    2   12     -2.36      0.00
   -9    2   12      0.19      0.00
   -8    2   12     -2.54      0.00
   -7    2   12     -3.06      0.00
   -6    2   12     -0.13      0.00
   -5    2   12     -6.53      0.00
   -4    2   12     -6.33      0.00
   -3    2   12     -3.73      0.00
   -2    2   12     -1.20      0.00
   -1    2   12     -1.03      0.00
    0    2   12      0.86      0.00
    1    2   12      7.67      0.00
    2    2   12      4.77      0.00
    3    2   12      5.20      0.00
    4    2   12      2.42      0.00
    5    2   12     -4.06      0.00
    6    2   12     -1.94      0.00
    7    2   12      1.83      0.00
    8    2   12      1.75      0.00
    9    2   12     -3.94      0.00
   10    2   12     -7.18      0.00
   11    2   12     -2.63      0.00
   12    2   12     -1.48      0.00
   13    2   12      2.37      0.00
   14    2   12      3.19      0.00
   15    2   12      4.86      0.00
   16    2   12      9.89      0.00
   17    2   12     -0.22      0.00
   18    2   12     -5.48      0.00
  -15    3   12      1.06      0.00
  -14    3   12      1.21      0.00
  -13    3   12      1.41      0.00
  -12    3   12     -2.05      0.00
  -11    3   12      0.97      0.00
  -10    3   12      4.19      0.00
   -9    3   12      1.33      0.00
   -8    3   12     -2.07      0.00
   -7    3   12     -2.11      0.00
   -6    3   12     -4.69      0.00
   -5    3   12     -1.93      0.00
   -4    3   12     -4.48      0.00
   -3    3   12     -8.22      0.00
   -2    3   12     -4.81      0.00
   -1    3   12      0.52      0.00
    0    3   12      1.80      0.00
    1    3   12     -0.52      0.00
    2    3   12      5.10      0.00
    3    3   12      1.85      0.00
    4    3   12     -4.35      0.00
    5    3   12      0.60      0.00
    6    3   12      1.05      0.00
    7    3   12     -0.50      0.00
    8    3   12     -1.92      0.00
    9    3   12     -0.23      0.00
   10    3   12      1.06      0.00
   11    3   12     -3.17      0.00
   12    3   12     -0.93      0.00
   13    3   12      0.94      0.00
   14    3   12     -1.62      0.00
   15    3   12     -1.74      0.00
   16    3   12     -5.41      0.00
   17    3   12     -2.03      0.00
   18    3   12      5.63      0.00
  -14    4   12     -7.22      0.00
  -13    4   12     -4.47      0.00
  -12    4   12     -0.86      0.00
  -11    4   12      0.16      0.00
  -10    4   12     -1.31      0.00
   -9    4   12     -0.67      0.00
   -8    4   12      1.32      0.00
   -7    4   12     -0.40      0.00
   -6    4   12     -0.44      0.00
   -5    4   12     -1.92      0.00
   -4    4   12     -2.80      0.00
   -3    4   12      1.88      0.00
   -2    4   12      2.43      0.00
   -1    4   12      1.10      0.00
    0    4   12      2.64      0.00
    1    4   12      5.17      0.00
    2    4   12     -0.04      0.00
    3    4   12     -1.87      0.00
    4    4   12      1.88      0.00
    5    4   12     -6.41      0.00
    6    4   12     -4.70      0.00
    7    4   12     -0.07      0.00
    8    4   12     -0.56      0.00
    9    4   12     -1.83      0.00
   10    4   12     -1.37      0.00
   11    4   12      1.51      0.00
   12    4   12      2.32      0.00
   13    4   12     -0.95      0.00
   14    4   12      2.81      0.00
   15    4   12      4.92      0.00
   16    4   12      5.91      0.00
   17    4   12      7.36      0.00
   18    4   12      0.73      0.00
   19    4   12     -0.51      0.00
  -14    5   12      5.88      0.00
  -13    5   12     -2.44      0.00
  -12    5   12     -6.66      0.00
  -11    5   12     -7.84      0.00
  -10    5   12     -6.72      0.00
   -9    5   12     -3.84      0.00
   -8    5   12     -2.08      0.00
   -7    5   12     -1.17      0.00
   -6    5   12     -1.52      0.00
   -5    5   12     -4.35      0.00
   -4    5   12     -1.09      0.00
   -3    5   12      0.73      0.00
   -2    5   12      4.78      0.00
   -1    5   12      6.08      0.00
    0    5   12      2.01      0.00
    1    5   12     -1.30      0.00
    2    5   12      0.64      0.00
    3    5   12      0.64      0.00
    4    5   12     -8.30      0.00
    5    5   12      0.20      0.00
    6    5   12      2.09      0.00
    7    5   12     -4.51      0.00
    8    5   12     -4.56      0.00
    9    5   12     -4.37      0.00
   10    5   12     -5.57      0.00
   11    5   12     -3.15      0.00
   12    5   12     -3.53      0.00
   13    5   12      2.34      0.00
   14    5   12      4.84      0.00
   15    5   12      5.69      0.00
   16    5   12      7.29      0.00
   17    5   12      3.15      0.00
   18    5   12      1.59      0.00
   19    5   12      0.00      0.00
  -13    6   12      5.89      0.00
  -12    6   12      5.31      0.00
  -11    6   12      0.89      0.00
  -10    6   12      1.36      0.00
   -9    6   12     -0.27      0.00
   -8    6   12     -1.04      0.00
   -7    6   12      2.78      0.00
   -6    6   12      2.77      0.00
   -5    6   12      3.42      0.00
   -4    6   12     -0.21      0.00
   -3    6   12     -0.16      0.00
   -2    6   12     -0.63      0.00
   -1    6   12     -2.27      0.00
    0    6   12     -3.56      0.00
    1    6   12     -4.45      0.00
    2    6   12     -6.63      0.00
    3    6   12     -8.59      0.00
    4    6   12      3.98      0.00
    5    6   12      4.19      0.00
    6    6   12     -0.13      0.00
    7    6   12      2.36      0.00
    8    6   12     -0.77      0.00
    9    6   12      0.67      0.00
   10    6   12      6.48      0.00
   11    6   12      5.29      0.00
   12    6   12      6.23      0.00
   13    6   12      4.24      0.00
   14    6   12      1.87      0.00
   15    6   12     -0.14      0.00
   16    6   12     -1.24      0.00
   18    6   12      3.53      0.00
   19    6   12     -1.92      0.00
  -13    7   12      0.68      0.00
  -12    7   12     -0.91      0.00
  -11    7   12      3.47      0.00
  -10    7   12     -0.24      0.00
   -9    7   12     -0.44      0.00
   -8    7   12      1.71      0.00
   -7    7   12     -1.48      0.00
   -6    7   12      0.10      0.00
   -5    7   12      0.15      0.00
   -4    7   12      1.33      0.00
   -3    7   12      2.64      0.00
   -2    7   12      1.89      0.00
   -1    7   12     -1.12      0.00
    0    7   12     -0.17      0.00
    1    7   12     -0.37      0.00
    2    7   12     -4.03      0.00
    3    7   12     -3.26      0.00
    4    7   12     -7.84      0.00
    5    7   12     -5.89      0.00
    6    7   12      2.35      0.00
    7    7   12      0.88      0.00
    8    7   12      4.64      0.00
    9    7   12      6.26      0.00
   10    7   12      2.55      0.00
   11    7   12     -0.19      0.00
   12    7   12      1.11      0.00
   13    7   12      2.58      0.00
   14    7   12     -0.65      0.00
   15    7   12     -2.54      0.00
   16    7   12      0.36      0.00
   17    7   12      2.24      0.00
   18    7   12      1.31      0.00
   19    7   12      3.75      0.00
   20    7   12      5.11      0.00
  -12    8   12      3.61      0.00
  -11    8   12     -2.20      0.00
  -10    8   12     -4.90      0.00
   -9    8   12     -8.27      0.00
   -8    8   12    -10.49      0.00
   -7    8   12     -2.12      0.00
   -6    8   12      1.53      0.00
   -5    8   12      3.47      0.00
   -4    8   12      6.35      0.00
   -3    8   12      3.95      0.00
   -2    8   12      1.79      0.00
   -1    8   12      5.85      0.00
    0    8   12      4.40      0.00
    1    8   12     -0.07      0.00
    2    8   12     -1.34      0.00
    3    8   12     -3.23      0.00
    4    8   12     -2.18      0.00
    5    8   12     -1.68      0.00
    6    8   12     -7.32      0.00
    7    8   12     -3.52      0.00
    8    8   12     -0.60      0.00
    9    8   12     -0.83      0.00
   10    8   12     -5.68      0.00
   11    8   12     -2.63      0.00
   12    8   12     -1.84      0.00
   13    8   12     -2.41      0.00
   14    8   12      1.14      0.00
   15    8   12      1.79      0.00
   16    8   12     -4.21      0.00
   17    8   12     -7.85      0.00
   18    8   12     -9.46      0.00
   19    8   12    -11.15      0.00
   20    8   12    -10.65      0.00
  -11    9   12     -8.50      0.00
  -10    9   12     -3.56      0.00
   -9    9   12     -1.67      0.00
   -8    9   12      2.47      0.00
   -7    9   12     -2.36      0.00
   -6    9   12     -4.20      0.00
   -5    9   12     -2.71      0.00
   -4    9   12     -5.22      0.00
   -3    9   12     -3.37      0.00
   -2    9   12     -0.74      0.00
   -1    9   12     -2.64      0.00
    0    9   12      0.21      0.00
    1    9   12      5.09      0.00
    2    9   12      6.03      0.00
    3    9   12      4.65      0.00
    4    9   12      3.54      0.00
    5    9   12      1.82      0.00
    6    9   12      2.22      0.00
    7    9   12      2.70      0.00
    8    9   12      5.86      0.00
    9    9   12      5.76      0.00
   10    9   12      8.84      0.00
   11    9   12      1.46      0.00
   12    9   12     -1.29      0.00
   13    9   12      1.36      0.00
   14    9   12     -0.99      0.00
   15    9   12     -4.35      0.00
   16    9   12     -1.94      0.00
   17    9   12     -4.31      0.00
   18    9   12     -5.84      0.00
   19    9   12     -3.16      0.00
   20    9   12      2.33      0.00
  -11   10   12      3.44      0.00
  -10   10   12     -3.18      0.00
   -9   10   12     -2.46      0.00
   -8   10   12     -3.95      0.00
   -7   10   12      0.46      0.00
   -6   10   12      2.75      0.00
   -5   10   12     -1.85      0.00
   -4   10   12     -0.06      0.00
   -3   10   12      0.32      0.00
   -2   10   12      0.41      0.00
   -1   10   12      1.64      0.00
    0   10   12      0.53      0.00
    1   10   12     -1.72      0.00
    2   10   12     -3.70      0.00
    3   10   12     -2.40      0.00
    4   10   12      0.05      0.00
    5   10   12     -1.61      0.00
    6   10   12      0.94      0.00
    7   10   12      4.56      0.00
    8   10   12      2.07      0.00
    9   10   12      1.03      0.00
   10   10   12     -4.98      0.00
   11   10   12     -3.45      0.00
   12   10   12     -1.56      0.00
   13   10   12     -1.60      0.00
   14   10   12      0.00      0.00
   15   10   12      1.50      0.00
   16   10   12     -0.44      0.00
   17   10   12      3.17      0.00
   18   10   12      4.44      0.00
   19   10   12      0.19      0.00
   20   10   12     -1.72      0.00
  -10   11   12      1.70      0.00
   -9   11   12      1.54      0.00
   -8   11   12      4.63      0.00
   -7   11   12      2.21      0.00
   -6   11   12     -4.77      0.00
   -5   11   12     -0.68      0.00
   -4   11   12     -1.51      0.00
   -3   11   12     -1.72      0.00
   -2   11   12     -1.61      0.00
   -1   11   12      1.13      0.00
    0   11   12      3.88      0.00
    1   11   12      1.22      0.00
    2   11   12      1.52      0.00
    3   11   12      4.68      0.00
    4   11   12      1.08      0.00
    5   11   12      0.52      0.00
    6   11   12     -1.15      0.00
    7   11   12     -2.70      0.00
    8   11   12      2.96      0.00
    9   11   12      3.25      0.00
   10   11   12      1.41      0.00
   11   11   12     -0.69      0.00
   12   11   12      0.43      0.00
   13   11   12     -1.40      0.00
   14   11   12     -4.63      0.00
   15   11   12     -3.94      0.00
   16   11   12      0.31      0.00
   17   11   12      1.32      0.00
   18   11   12      0.56      0.00
   19   11   12      3.00      0.00
   20   11   12     -2.27      0.00
   21   11   12     -6.64      0.00
   -9   12   12     -4.24      0.00
   -8   12   12     -6.10      0.00
   -7   12   12     -6.18      0.00
   -6   12   12      1.14      0.00
   -5   12   12     -4.21      0.00
   -4   12   12     -3.24      0.00
   -3   12   12     -0.53      0.00
   -2   12   12      0.86      0.00
   -1   12   12      0.80      0.00
    0   12   12     -1.85      0.00
    1   12   12      3.56      0.00
    2   12   12      6.19      0.00
    3   12   12     -2.11      0.00
    4   12   12     -4.15      0.00
    5   12   12     -0.96      0.00
    6   12   12      3.66      0.00
    7   12   12     10.30      0.00
    8   12   12      5.39      0.00
    9   12   12     -1.36      0.00
   10   12   12     -1.03      0.00
   11   12   12      2.46      0.00
   12   12   12      0.73      0.00
   13   12   12      1.75      0.00
   14   12   12      2.32      0.00
   15   12   12     -0.80      0.00
   16   12   12     -0.06      0.00
   17   12   12      2.49      0.00
   18   12   12      2.82      0.00
   19   12   12     -6.93      0.00
   20   12   12     -5.91      0.00
   21   12   12      2.11      0.00
   -8   13   12      2.71      0.00
   -7   13   12      2.16      0.00
   -6   13   12     -5.81      0.00
   -5   13   12      1.27      0.00
   -4   13   12      3.83      0.00
   -3   13   12     -0.37      0.00
   -2   13   12      1.28      0.00
   -1   13   12      0.91      0.00
    0   13   12      5.38      0.00
    1   13   12      2.81      0.00
    2   13   12     -2.44      0.00
    3   13   12      0.94      0.00
    4   13   12      3.68      0.00
    5   13   12      2.41      0.00
    6   13   12      4.98      0.00
    7   13   12      0.05      0.00
    8   13   12     -2.43      0.00
    9   13   12     -0.46      0.00
   10   13   12      0.65      0.00
   11   13   12     -2.27      0.00
   12   13   12     -1.14      0.00
   13   13   12     -3.38      0.00
   14   13   12     -5.38      0.00
   15   13   12     -2.88      0.00
   16   13   12     -3.30      0.00
   17   13   12     -3.22      0.00
   18   13   12     -4.85      0.00
   19   13   12      1.84      0.00
   20   13   12      4.56      0.00
   21   13   12      0.77      0.00
   -6   14   12      6.74      0.00
   -5   14   12     -0.15      0.00
   -4   14   12     -7.14      0.00
   -3   14   12     -1.82      0.00
   -2   14   12     -4.01      0.00
   -1   14   12      0.80      0.00
    0   14   12      3.00      0.00
    1   14   12      4.82      0.00
    2   14   12      5.80      0.00
    3   14   12      1.78      0.00
    4   14   12     -0.82      0.00
    5   14   12      3.72      0.00
    6   14   12      3.23      0.00
    7   14   12      3.56      0.00
    8   14   12      0.64      0.00
    9   14   12     -0.62      0.00
   10   14   12     -2.59      0.00
   11   14   12     -0.84      0.00
   12   14   12     -1.87      0.00
   13   14   12     -0.53      0.00
   14   14   12     -0.12      0.00
   15   14   12     -1.09      0.00
   17   14   12     -0.66      0.00
   18   14   12     -0.07      0.00
   19   14   12     -1.56      0.00
   20   14   12     -0.81      0.00
   21   14   12      2.71      0.00
   -6   15   12      6.54      0.00
   -5   15   12      4.39      0.00
   -4   15   12      1.94      0.00
   -3   15   12     -7.23      0.00
   -2   15   12      0.02      0.00
   -1   15   12      3.90      0.00
    1   15   12     -1.31      0.00
    2   15   12     -1.12      0.00
    3   15   12      1.09      0.00
    4   15   12      2.00      0.00
    5   15   12      2.20      0.00
    6   15   12      3.55      0.00
    7   15   12      0.04      0.00
    8   15   12      3.44      0.00
    9   15   12      2.80      0.00
   10   15   12      2.55      0.00
   11   15   12      0.06      0.00
   12   15   12      0.37      0.00
   13   15   12     -0.04      0.00
   14   15   12      1.47      0.00
   15   15   12      1.32      0.00
   16   15   12     -1.43      0.00
   18   15   12      0.55      0.00
   19   15   12      0.65      0.00
   20   15   12      0.52      0.00
   -5   16   12     -7.08      0.00
   -4   16   12     -0.49      0.00
   -3   16   12     11.36      0.00
   -2   16   12      6.18      0.00
   -1   16   12     -6.20      0.00
    0   16   12     -7.55      0.00
    2   16   12      0.49      0.00
    3   16   12     -3.36      0.00
    4   16   12     -0.34      0.00
    5   16   12      2.37      0.00
    6   16   12      0.86      0.00
    7   16   12      4.71      0.00
    8   16   12     -1.46      0.00
    9   16   12     -2.92      0.00
   10   16   12     -0.73      0.00
   11   16   12      1.45      0.00
   12   16   12      0.81      0.00
   13   16   12      1.96      0.00
   14   16   12      1.30      0.00
   15   16   12      0.80      0.00
   16   16   12      3.17      0.00
   17   16   12     -1.64      0.00
   18   16   12     -2.33      0.00
   19   16   12     -2.66      0.00
   20   16   12     -1.51      0.00
   -4   17   12     -8.13      0.00
   -3   17   12    -11.87      0.00
   -2   17   12     -9.09      0.00
   -1   17   12     -0.71      0.00
    0   17   12      3.50      0.00
    1   17   12      2.12      0.00
    4   17   12      1.83      0.00
    5   17   12     -4.39      0.00
    6   17   12     -2.52      0.00
    7   17   12     -7.61      0.00
    8   17   12     -2.90      0.00
    9   17   12      4.11      0.00
   10   17   12      1.90      0.00
   11   17   12     -2.27      0.00
   12   17   12     -1.05      0.00
   14   17   12     -1.46      0.00
   15   17   12     -1.23      0.00
   16   17   12     -3.80      0.00
   17   17   12      3.66      0.00
   18   17   12      4.59      0.00
   19   17   12      4.63      0.00
   20   17   12      4.04      0.00
   -2   18   12      2.24      0.00
   -1   18   12      0.14      0.00
    0   18   12     -2.18      0.00
    1   18   12      0.80      0.00
    2   18   12      6.09      0.00
    6   18   12     -3.02      0.00
    7   18   12     -1.98      0.00
    8   18   12      1.11      0.00
    9   18   12     -4.01      0.00
   10   18   12     -2.66      0.00
   11   18   12      2.38      0.00
   12   18   12      4.17      0.00
   13   18   12      1.17      0.00
   14   18   12      3.35      0.00
   15   18   12      2.51      0.00
   16   18   12      7.19      0.00
   17   18   12      1.37      0.00
   18   18   12     -0.23      0.00
   19   18   12      1.87      0.00
   -1   19   12     -5.86      0.00
    0   19   12     -0.95      0.00
    1   19   12      1.13      0.00
    2   19   12     -4.10      0.00
    8   19   12      3.56      0.00
    9   19   12      6.10      0.00
   10   19   12      3.11      0.00
   11   19   12     -0.66      0.00
   12   19   12     -2.52      0.00
   13   19   12      0.52      0.00
   14   19   12     -1.21      0.00
   15   19   12      0.96      0.00
   16   19   12     -1.62      0.00
   17   19   12     -1.28      0.00
   18   19   12     -1.19      0.00
    1   20   12      4.00      0.00
    2   20   12      7.83      0.00
    3   20   12      7.08      0.00
    9   20   12     -2.28      0.00
   10   20   12     -0.17      0.00
   11   20   12     -0.67      0.00
   12   20   12     -2.52      0.00
   13   20   12     -3.85      0.00
   14   20   12     -0.08      0.00
   15   20   12      3.50      0.00
   16   20   12      0.92      0.00
   17   20   12     -2.99      0.00
    3   21   12      4.00      0.00
    4   21   12      8.02      0.00
   10   21   12     -0.73      0.00
   11   21   12      2.32      0.00
   12   21   12      7.13      0.00
   13   21   12      6.47      0.00
   14   21   12      5.62      0.00
   15   21   12     -1.50      0.00
   16   21   12     -0.38      0.00
   11   22   12      3.25      0.00
   12   22   12     -0.25      0.00
   14   22   12     -2.06      0.00
   -7  -12   13      0.38      0.00
   -6  -12   13     -1.85      0.00
   -5  -12   13     -3.51      0.00
   -4  -12   13     -2.98      0.00
   -3  -12   13     -4.66      0.00
   -2  -12   13     -2.81      0.00
  -10  -11   13     -1.34      0.00
   -9  -11   13      5.23      0.00
   -8  -11   13      4.60      0.00
   -7  -11   13      1.30      0.00
   -6  -11   13      1.90      0.00
   -5  -11   13      3.62      0.00
   -4  -11   13      3.37      0.00
   -3  -11   13      6.44      0.00
   -2  -11   13      5.30      0.00
   -1  -11   13     -1.07      0.00
    0  -11   13     -0.64      0.00
    1  -11   13      1.16      0.00
  -11  -10   13     11.29      0.00
  -10  -10   13     11.66      0.00
   -9  -10   13      5.79      0.00
   -8  -10   13      5.44      0.00
   -7  -10   13      3.72      0.00
   -6  -10   13     -0.84      0.00
   -5  -10   13     -5.26      0.00
   -4  -10   13     -7.93      0.00
   -3  -10   13    -10.91      0.00
   -2  -10   13    -11.63      0.00
   -1  -10   13     -5.07      0.00
    0  -10   13     -2.90      0.00
    1  -10   13     -1.49      0.00
    2  -10   13      1.04      0.00
    4  -10   13      3.49      0.00
  -11   -9   13     -4.01      0.00
  -10   -9   13     -6.07      0.00
   -9   -9   13      0.47      0.00
   -8   -9   13      0.32      0.00
   -7   -9   13     -0.94      0.00
   -6   -9   13     -0.82      0.00
   -5   -9   13     -0.09      0.00
   -4   -9   13      1.96      0.00
   -3   -9   13      1.51      0.00
   -2   -9   13      2.22      0.00
   -1   -9   13      0.05      0.00
    0   -9   13      0.30      0.00
    1   -9   13     -1.06      0.00
    2   -9   13     -5.19      0.00
    3   -9   13     -3.70      0.00
    4   -9   13     -5.47      0.00
    5   -9   13     -5.87      0.00
    6   -9   13     -1.64      0.00
  -11   -8   13     -4.94      0.00
  -10   -8   13      0.28      0.00
   -9   -8   13     -0.87      0.00
   -8   -8   13      2.74      0.00
   -7   -8   13      5.68      0.00
   -6   -8   13      3.17      0.00
   -5   -8   13      0.74      0.00
   -4   -8   13      1.63      0.00
   -3   -8   13      6.56      0.00
   -2   -8   13      3.52      0.00
   -1   -8   13     -2.28      0.00
    0   -8   13     -5.41      0.00
    1   -8   13     -5.78      0.00
    2   -8   13     -1.71      0.00
    3   -8   13     -3.28      0.00
    4   -8   13     -3.81      0.00
    5   -8   13     -0.97      0.00
    6   -8   13     -1.37      0.00
    7   -8   13      1.70      0.00
  -14   -7   13      5.97      0.00
  -13   -7   13      0.85      0.00
  -12   -7   13      1.55      0.00
  -11   -7   13      1.82      0.00
  -10   -7   13     -2.34      0.00
   -9   -7   13      0.90      0.00
   -8   -7   13      0.84      0.00
   -7   -7   13     -1.00      0.00
   -6   -7   13      1.17      0.00
   -5   -7   13      4.56      0.00
   -4   -7   13      3.21      0.00
   -3   -7   13     -4.03      0.00
   -2   -7   13     -5.02      0.00
   -1   -7   13     -1.71      0.00
    0   -7   13     -1.79      0.00
    1   -7   13      0.45      0.00
    2   -7   13     -0.91      0.00
    3   -7   13     -0.58      0.00
    4   -7   13      3.94      0.00
    5   -7   13      2.68      0.00
    6   -7   13     -2.50      0.00
    7   -7   13     -8.81      0.00
    8   -7   13     -6.07      0.00
    9   -7   13      0.15      0.00
  -14   -6   13     -4.83      0.00
  -13   -6   13     -4.27      0.00
  -12   -6   13     -2.86      0.00
  -11   -6   13     -0.59      0.00
  -10   -6   13      3.20      0.00
   -9   -6   13      1.01      0.00
   -8   -6   13      3.02      0.00
   -7   -6   13      4.58      0.00
   -6   -6   13      3.28      0.00
   -5   -6   13      1.56      0.00
   -4   -6   13      1.57      0.00
   -3   -6   13      2.80      0.00
   -2   -6   13     -0.52      0.00
   -1   -6   13     -6.12      0.00
    0   -6   13     -3.72      0.00
    1   -6   13     -4.11      0.00
    2   -6   13     -4.25      0.00
    3   -6   13      0.89      0.00
    4   -6   13      0.62      0.00
    5   -6   13     -0.74      0.00
    6   -6   13      0.54      0.00
    7   -6   13      2.66      0.00
    8   -6   13     -2.29      0.00
    9   -6   13     -5.61      0.00
   10   -6   13     -0.53      0.00
  -15   -5   13     -2.91      0.00
  -14   -5   13     -0.66      0.00
  -13   -5   13      0.22      0.00
  -12   -5   13      3.24      0.00
  -11   -5   13      4.77      0.00
  -10   -5   13      3.80      0.00
   -9   -5   13      6.77      0.00
   -8   -5   13      2.53      0.00
   -7   -5   13      0.76      0.00
   -6   -5   13      1.33      0.00
   -5   -5   13     -0.08      0.00
   -4   -5   13      1.07      0.00
   -3   -5   13      3.25      0.00
   -2   -5   13      3.07      0.00
   -1   -5   13      5.15      0.00
    0   -5   13      1.00      0.00
    1   -5   13     -2.88      0.00
    2   -5   13      0.39      0.00
    3   -5   13      0.91      0.00
    4   -5   13      2.56      0.00
    5   -5   13      4.07      0.00
    6   -5   13      2.26      0.00
    7   -5   13     -0.44      0.00
    8   -5   13      1.30      0.00
    9   -5   13      1.41      0.00
   10   -5   13     -1.10      0.00
   11   -5   13     -1.71      0.00
  -15   -4   13     -3.87      0.00
  -14   -4   13     -3.48      0.00
  -13   -4   13      2.43      0.00
  -12   -4   13      4.10      0.00
  -11   -4   13      5.15      0.00
  -10   -4   13      7.44      0.00
   -9   -4   13      1.16      0.00
   -8   -4   13      1.67      0.00
   -7   -4   13      0.45      0.00
   -6   -4   13     -2.52      0.00
   -5   -4   13      1.35      0.00
   -4   -4   13      2.18      0.00
   -3   -4   13     -1.96      0.00
   -2   -4   13     -0.39      0.00
   -1   -4   13     -2.01      0.00
    0   -4   13     -3.84      0.00
    1   -4   13     -1.10      0.00
    2   -4   13     -2.83      0.00
    3   -4   13     -3.62      0.00
    4   -4   13     -3.22      0.00
    5   -4   13     -2.04      0.00
    6   -4   13      1.12      0.00
    7   -4   13      1.19      0.00
    8   -4   13     -1.05      0.00
    9   -4   13     -0.90      0.00
   10   -4   13     -0.19      0.00
   11   -4   13      0.02      0.00
   12   -4   13      0.27      0.00
  -15   -3   13      9.95      0.00
  -14   -3   13     10.98      0.00
  -13   -3   13      1.84      0.00
  -12   -3   13     -0.22      0.00
  -11   -3   13      3.58      0.00
  -10   -3   13      0.84      0.00
   -9   -3   13      3.75      0.00
   -8   -3   13      2.08      0.00
   -7   -3   13      1.36      0.00
   -6   -3   13      4.36      0.00
   -5   -3   13      2.80      0.00
   -4   -3   13      2.13      0.00
   -3   -3   13      5.85      0.00
   -2   -3   13      2.61      0.00
   -1   -3   13      0.46      0.00
    0   -3   13      1.96      0.00
    1   -3   13     -0.80      0.00
    2   -3   13     -2.35      0.00
    3   -3   13     -2.36      0.00
    4   -3   13     -0.69      0.00
    5   -3   13      1.65      0.00
    6   -3   13     -0.56      0.00
    7   -3   13     -1.64      0.00
    8   -3   13     -5.57      0.00
    9   -3   13     -7.44      0.00
   10   -3   13     -2.85      0.00
   11   -3   13     -0.26      0.00
   12   -3   13     -0.58      0.00
   13   -3   13      1.89      0.00
  -15   -2   13     -8.46      0.00
  -14   -2   13    -14.12      0.00
  -13   -2   13    -10.37      0.00
  -12   -2   13     -5.71      0.00
  -11   -2   13     -6.83      0.00
  -10   -2   13     -1.65      0.00
   -9   -2   13      0.12      0.00
   -8   -2   13      2.59      0.00
   -7   -2   13      4.51      0.00
   -6   -2   13      3.90      0.00
   -5   -2   13      2.45      0.00
   -4   -2   13      0.12      0.00
   -3   -2   13     -3.94      0.00
   -2   -2   13     -2.22      0.00
   -1   -2   13     -0.80      0.00
    0   -2   13     -2.63      0.00
    1   -2   13     -3.88      0.00
    2   -2   13     -2.63      0.00
    3   -2   13      0.67      0.00
    4   -2   13      2.41      0.00
    5   -2   13      1.08      0.00
    6   -2   13      1.34      0.00
    7   -2   13     -4.61      0.00
    8   -2   13     -3.72      0.00
    9   -2   13      0.13      0.00
   10   -2   13     -1.55      0.00
   11   -2   13      1.38      0.00
   12   -2   13      4.42      0.00
   13   -2   13      1.88      0.00
   14   -2   13     -4.46      0.00
  -15   -1   13      4.67      0.00
  -14   -1   13     -1.16      0.00
  -13   -1   13     -4.07      0.00
  -12   -1   13     -2.63      0.00
  -11   -1   13      1.80      0.00
  -10   -1   13     -1.01      0.00
   -9   -1   13     -2.86      0.00
   -8   -1   13     -1.98      0.00
   -7   -1   13      0.10      0.00
   -6   -1   13      0.39      0.00
   -5   -1   13      0.66      0.00
   -4   -1   13      0.15      0.00
   -3   -1   13     -0.68      0.00
   -2   -1   13     -3.34      0.00
   -1   -1   13     -2.87      0.00
    0   -1   13     -4.53      0.00
    1   -1   13     -4.45      0.00
    2   -1   13     -3.20      0.00
    3   -1   13     -1.51      0.00
    4   -1   13      2.22      0.00
    5   -1   13      5.47      0.00
    6   -1   13      2.11      0.00
    7   -1   13      4.60      0.00
    8   -1   13      3.21      0.00
    9   -1   13      0.97      0.00
   10   -1   13      5.14      0.00
   11   -1   13      2.14      0.00
   12   -1   13      0.30      0.00
   13   -1   13      3.27      0.00
   14   -1   13      5.74      0.00
   15   -1   13      7.82      0.00
  -15    0   13     -8.93      0.00
  -14    0   13     -3.66      0.00
  -13    0   13      1.14      0.00
  -12    0   13      0.03      0.00
  -11    0   13     -1.75      0.00
  -10    0   13      0.14      0.00
   -9    0   13     -0.06      0.00
   -8    0   13     -0.24      0.00
   -7    0   13      0.80      0.00
   -6    0   13      1.41      0.00
   -5    0   13     -0.32      0.00
   -4    0   13     -0.69      0.00
   -3    0   13      1.67      0.00
   -2    0   13      5.95      0.00
   -1    0   13      2.62      0.00
    0    0   13      3.06      0.00
    1    0   13      2.33      0.00
    2    0   13     -0.21      0.00
    3    0   13     -1.26      0.00
    4    0   13     -3.08      0.00
    5    0   13     -3.78      0.00
    6    0   13      0.19      0.00
    7    0   13     -1.06      0.00
    8    0   13     -1.24      0.00
    9    0   13     -2.89      0.00
   10    0   13     -8.55      0.00
   11    0   13     -3.36      0.00
   12    0   13      2.15      0.00
   13    0   13     -0.38      0.00
   14    0   13     -3.26      0.00
   15    0   13     -4.80      0.00
   16    0   13    -11.64      0.00
  -15    1   13      3.27      0.00
  -14    1   13      1.87      0.00
  -13    1   13      1.97      0.00
  -12    1   13      8.37      0.00
  -11    1   13      8.07      0.00
  -10    1   13      0.22      0.00
   -9    1   13     -0.09      0.00
   -8    1   13      1.95      0.00
   -7    1   13      0.05      0.00
   -6    1   13     -0.33      0.00
   -5    1   13      1.42      0.00
   -4    1   13      0.27      0.00
   -3    1   13     -0.10      0.00
   -2    1   13     -1.06      0.00
   -1    1   13      4.44      0.00
    0    1   13      3.23      0.00
    1    1   13      0.74      0.00
    2    1   13      2.67      0.00
    3    1   13      3.29      0.00
    4    1   13      5.21      0.00
    5    1   13      3.20      0.00
    6    1   13     -2.33      0.00
    7    1   13     -2.98      0.00
    8    1   13     -1.75      0.00
    9    1   13      1.80      0.00
   10    1   13      6.31      0.00
   11    1   13      4.17      0.00
   12    1   13      1.94      0.00
   13    1   13      4.24      0.00
   14    1   13      7.00      0.00
   15    1   13      3.57      0.00
   16    1   13      8.94      0.00
   17    1   13     10.42      0.00
  -14    2   13      2.64      0.00
  -13    2   13      9.04      0.00
  -12    2   13      2.54      0.00
  -11    2   13     -6.93      0.00
  -10    2   13     -3.36      0.00
   -9    2   13     -0.43      0.00
   -8    2   13      0.92      0.00
   -7    2   13      2.92      0.00
   -6    2   13      0.22      0.00
   -5    2   13     -4.48      0.00
   -4    2   13     -0.84      0.00
   -3    2   13      1.24      0.00
   -2    2   13      1.66      0.00
   -1    2   13     -1.48      0.00
    0    2   13      0.50      0.00
    1    2   13      1.18      0.00
    2    2   13     -5.45      0.00
    3    2   13     -6.25      0.00
    4    2   13     -7.49      0.00
    5    2   13     -5.60      0.00
    6    2   13     -1.61      0.00
    7    2   13     -0.11      0.00
    8    2   13      0.48      0.00
    9    2   13      0.58      0.00
   10    2   13      4.00      0.00
   11    2   13      7.28      0.00
   12    2   13      4.09      0.00
   13    2   13      0.81      0.00
   14    2   13     -3.84      0.00
   15    2   13     -1.28      0.00
   16    2   13     -2.06      0.00
   17    2   13     -6.39      0.00
  -14    3   13      9.95      0.00
  -13    3   13      4.98      0.00
  -12    3   13     -0.21      0.00
  -11    3   13      1.57      0.00
  -10    3   13     -3.35      0.00
   -9    3   13     -5.43      0.00
   -8    3   13     -3.14      0.00
   -7    3   13     -0.22      0.00
   -6    3   13      0.78      0.00
   -5    3   13      3.51      0.00
   -4    3   13      0.49      0.00
   -3    3   13      1.31      0.00
   -2    3   13      6.50      0.00
   -1    3   13      9.92      0.00
    0    3   13      5.10      0.00
    1    3   13     -1.44      0.00
    2    3   13      0.19      0.00
    3    3   13      0.00      0.00
    4    3   13      4.82      0.00
    5    3   13      6.60      0.00
    6    3   13     -0.06      0.00
    7    3   13     -5.10      0.00
    8    3   13     -5.08      0.00
    9    3   13     -1.06      0.00
   10    3   13     -2.00      0.00
   11    3   13     -4.50      0.00
   12    3   13     -0.54      0.00
   13    3   13     -1.08      0.00
   14    3   13      1.08      0.00
   15    3   13      4.36      0.00
   16    3   13      4.42      0.00
   17    3   13      9.00      0.00
   18    3   13      3.19      0.00
  -14    4   13      6.87      0.00
  -13    4   13     11.03      0.00
  -12    4   13     12.94      0.00
  -11    4   13      4.80      0.00
  -10    4   13      0.74      0.00
   -9    4   13      1.47      0.00
   -8    4   13      2.39      0.00
   -7    4   13     -0.86      0.00
   -6    4   13      0.58      0.00
   -5    4   13      0.60      0.00
   -4    4   13      2.52      0.00
   -3    4   13      3.25      0.00
   -2    4   13      1.12      0.00
   -1    4   13      3.24      0.00
    0    4   13      7.84      0.00
    1    4   13      7.90      0.00
    2    4   13      5.07      0.00
    3    4   13      9.20      0.00
    4    4   13      8.31      0.00
    5    4   13      0.79      0.00
    6    4   13      3.28      0.00
    7    4   13      5.92      0.00
    8    4   13      5.86      0.00
    9    4   13      1.69      0.00
   10    4   13      0.20      0.00
   11    4   13      2.48      0.00
   12    4   13      0.28      0.00
   13    4   13      0.74      0.00
   14    4   13      3.01      0.00
   15    4   13     -1.71      0.00
   16    4   13     -2.37      0.00
   17    4   13     -4.14      0.00
   18    4   13     -4.59      0.00
  -13    5   13      0.17      0.00
  -12    5   13      2.71      0.00
  -11    5   13      4.23      0.00
  -10    5   13      2.91      0.00
   -9    5   13      0.03      0.00
   -8    5   13     -3.11      0.00
   -7    5   13      0.14      0.00
   -6    5   13     -0.16      0.00
   -5    5   13      0.34      0.00
   -4    5   13      0.44      0.00
   -3    5   13     -2.62      0.00
   -2    5   13     -1.23      0.00
   -1    5   13     -1.22      0.00
    0    5   13     -3.18      0.00
    1    5   13      1.34      0.00
    2    5   13      7.18      0.00
    3    5   13      6.24      0.00
    4    5   13      2.46      0.00
    5    5   13      7.78      0.00
    6    5   13      4.26      0.00
    7    5   13      4.99      0.00
    8    5   13      6.27      0.00
    9    5   13      5.90      0.00
   10    5   13      5.08      0.00
   11    5   13      1.88      0.00
   12    5   13     -1.25      0.00
   13    5   13     -0.13      0.00
   14    5   13     -4.10      0.00
   15    5   13     -1.90      0.00
   16    5   13     -1.74      0.00
   17    5   13     -4.02      0.00
   18    5   13     -1.09      0.00
   19    5   13     -0.60      0.00
  -13    6   13      1.95      0.00
  -12    6   13     -0.97      0.00
  -11    6   13      0.46      0.00
  -10    6   13      2.32      0.00
   -9    6   13     -0.94      0.00
   -8    6   13     -0.86      0.00
   -7    6   13     -1.89      0.00
   -6    6   13      0.49      0.00
   -5    6   13      2.37      0.00
   -4    6   13      0.36      0.00
   -3    6   13      2.54      0.00
   -2    6   13      3.09      0.00
   -1    6   13      2.47      0.00
    0    6   13      2.47      0.00
    1    6   13     -0.94      0.00
    2    6   13     -2.00      0.00
    3    6   13     -1.14      0.00
    4    6   13      1.87      0.00
    5    6   13     -5.73      0.00
    6    6   13      0.10      0.00
    7    6   13      5.04      0.00
    8    6   13      4.56      0.00
    9    6   13      4.14      0.00
   10    6   13      2.43      0.00
   11    6   13     -0.12      0.00
   12    6   13      1.96      0.00
   13    6   13     -0.22      0.00
   14    6   13      4.84      0.00
   15    6   13      2.78      0.00
   16    6   13     -5.56      0.00
   17    6   13    -10.78      0.00
   18    6   13    -10.92      0.00
   19    6   13     -5.54      0.00
  -12    7   13     -4.77      0.00
  -11    7   13     -3.55      0.00
  -10    7   13     -5.42      0.00
   -9    7   13      0.69      0.00
   -8    7   13      1.79      0.00
   -7    7   13      1.95      0.00
   -6    7   13      2.79      0.00
   -5    7   13      1.24      0.00
   -4    7   13      3.08      0.00
   -3    7   13      3.45      0.00
   -2    7   13      2.47      0.00
   -1    7   13      1.11      0.00
    0    7   13     -0.44      0.00
    1    7   13     -0.43      0.00
    2    7   13     -0.21      0.00
    3    7   13     -0.63      0.00
    4    7   13     -6.29      0.00
    5    7   13      0.84      0.00
    6    7   13      3.27      0.00
    7    7   13      0.63      0.00
    8    7   13      0.50      0.00
    9    7   13     -0.18      0.00
   10    7   13     -0.72      0.00
   11    7   13      0.58      0.00
   12    7   13      0.27      0.00
   13    7   13      4.68      0.00
   14    7   13      2.93      0.00
   15    7   13      1.05      0.00
   16    7   13     -0.31      0.00
   17    7   13      0.87      0.00
   18    7   13      2.84      0.00
   19    7   13      4.72      0.00
  -12    8   13      2.57      0.00
  -11    8   13     -2.63      0.00
  -10    8   13      1.86      0.00
   -9    8   13      1.78      0.00
   -8    8   13      3.69      0.00
   -7    8   13      4.49      0.00
   -6    8   13     -1.67      0.00
   -5    8   13     -2.92      0.00
   -4    8   13     -3.11      0.00
   -3    8   13     -3.13      0.00
   -2    8   13     -0.37      0.00
   -1    8   13     -0.47      0.00
    0    8   13     -5.03      0.00
    1    8   13     -3.00      0.00
    2    8   13      1.37      0.00
    3    8   13      2.30      0.00
    4    8   13      6.12      0.00
    5    8   13      5.94      0.00
    6    8   13      5.55      0.00
    7    8   13      7.24      0.00
    8    8   13      3.25      0.00
    9    8   13     -1.56      0.00
   10    8   13     -3.42      0.00
   11    8   13     -3.06      0.00
   12    8   13     -4.62      0.00
   13    8   13     -3.52      0.00
   14    8   13      1.04      0.00
   15    8   13     -0.10      0.00
   16    8   13      0.34      0.00
   17    8   13      3.30      0.00
   18    8   13      5.44      0.00
   19    8   13      2.66      0.00
   20    8   13      2.16      0.00
  -11    9   13      8.54      0.00
  -10    9   13      7.41      0.00
   -9    9   13      4.67      0.00
   -8    9   13      2.95      0.00
   -7    9   13     -1.25      0.00
   -6    9   13      1.99      0.00
   -5    9   13      0.39      0.00
   -4    9   13     -2.11      0.00
   -3    9   13      0.60      0.00
   -2    9   13     -2.86      0.00
   -1    9   13     -8.47      0.00
    0    9   13     -3.98      0.00
    1    9   13     -0.57      0.00
    2    9   13      0.62      0.00
    3    9   13      2.01      0.00
    4    9   13      4.76      0.00
    5    9   13      7.51      0.00
    6    9   13      7.80      0.00
    7    9   13      3.85      0.00
    8    9   13      1.60      0.00
    9    9   13      1.50      0.00
   10    9   13      0.62      0.00
   11    9   13     -5.20      0.00
   12    9   13     -1.48      0.00
   13    9   13     -0.25      0.00
   14    9   13     -2.87      0.00
   15    9   13     -1.18      0.00
   16    9   13     -1.42      0.00
   17    9   13     -4.11      0.00
   18    9   13     -2.19      0.00
   19    9   13      1.40      0.00
   20    9   13      0.25      0.00
  -10   10   13     -3.34      0.00
   -9   10   13      2.32      0.00
   -8   10   13      1.47      0.00
   -7   10   13      5.45      0.00
   -6   10   13      2.46      0.00
   -5   10   13      0.55      0.00
   -4   10   13      3.88      0.00
   -3   10   13     -0.17      0.00
   -2   10   13     -1.91      0.00
   -1   10   13      0.66      0.00
    0   10   13      0.65      0.00
    1   10   13      2.11      0.00
    2   10   13      2.20      0.00
    3   10   13      1.34      0.00
    4   10   13     -1.99      0.00
    5   10   13     -3.83      0.00
    6   10   13     -0.28      0.00
    7   10   13      0.31      0.00
    8   10   13     -0.95      0.00
    9   10   13     -0.75      0.00
   10   10   13     -1.60      0.00
   11   10   13      2.57      0.00
   12   10   13     -1.46      0.00
   13   10   13     -2.52      0.00
   14   10   13     -2.34      0.00
   15   10   13     -5.30      0.00
   16   10   13     -4.64      0.00
   17   10   13      0.67      0.00
   18   10   13     -0.08      0.00
   19   10   13     -1.65      0.00
   20   10   13      0.23      0.00
  -10   11   13      7.73      0.00
   -9   11   13      1.77      0.00
   -8   11   13      3.12      0.00
   -7   11   13     -0.06      0.00
   -6   11   13      1.37      0.00
   -5   11   13      7.99      0.00
   -4   11   13      2.62      0.00
   -3   11   13      0.51      0.00
   -2   11   13     -1.51      0.00
   -1   11   13     -3.26      0.00
    0   11   13     -4.31      0.00
    1   11   13     -4.79      0.00
    2   11   13     -1.97      0.00
    3   11   13     -0.60      0.00
    4   11   13     -0.96      0.00
    5   11   13      1.69      0.00
    6   11   13     -2.69      0.00
    7   11   13     -2.43      0.00
    8   11   13      1.49      0.00
    9   11   13      0.05      0.00
   10   11   13     -1.89      0.00
   11   11   13     -4.50      0.00
   12   11   13     -1.46      0.00
   13   11   13     -1.29      0.00
   14   11   13      1.98      0.00
   15   11   13      8.61      0.00
   16   11   13      8.73      0.00
   17   11   13      3.68      0.00
   18   11   13      4.58      0.00
   19   11   13      6.00      0.00
   20   11   13      0.82      0.00
   -9   12   13      6.67      0.00
   -8   12   13      5.38      0.00
   -7   12   13      6.86      0.00
   -6   12   13      7.69      0.00
   -5   12   13     -5.58      0.00
   -4   12   13     -4.88      0.00
   -3   12   13     -2.24      0.00
   -1   12   13     -0.79      0.00
    0   12   13     -0.16      0.00
    1   12   13      2.90      0.00
    2   12   13      0.57      0.00
    3   12   13     -2.22      0.00
    4   12   13      2.78      0.00
    5   12   13      0.53      0.00
    6   12   13     -0.15      0.00
    7   12   13     -0.07      0.00
    8   12   13     -1.54      0.00
    9   12   13      1.89      0.00
   10   12   13      6.00      0.00
   11   12   13      4.74      0.00
   12   12   13     -0.93      0.00
   13   12   13      0.75      0.00
   14   12   13      2.05      0.00
   15   12   13     -2.56      0.00
   16   12   13     -4.68      0.00
   17   12   13     -3.63      0.00
   18   12   13     -2.01      0.00
   19   12   13     -0.87      0.00
   20   12   13      5.41      0.00
   -8   13   13     -2.23      0.00
   -7   13   13      0.81      0.00
   -6   13   13     -5.14      0.00
   -5   13   13      1.67      0.00
   -4   13   13     -0.28      0.00
   -3   13   13     -2.08      0.00
   -2   13   13     -2.03      0.00
    0   13   13     -2.04      0.00
    1   13   13     -7.33      0.00
    2   13   13     -5.48      0.00
    3   13   13      1.80      0.00
    4   13   13     -3.10      0.00
    5   13   13     -6.75      0.00
    6   13   13     -5.46      0.00
    7   13   13     -4.52      0.00
    8   13   13     -1.14      0.00
    9   13   13      0.52      0.00
   10   13   13     -1.19      0.00
   11   13   13     -0.58      0.00
   12   13   13      5.71      0.00
   13   13   13      7.33      0.00
   14   13   13      5.54      0.00
   15   13   13      3.82      0.00
   16   13   13     -0.13      0.00
   17   13   13      0.10      0.00
   18   13   13      0.60      0.00
   19   13   13      0.73      0.00
   20   13   13     -7.37      0.00
   -7   14   13      3.76      0.00
   -6   14   13      9.37      0.00
   -5   14   13      4.08      0.00
   -4   14   13      2.72      0.00
   -3   14   13      2.74      0.00
   -2   14   13     -0.03      0.00
    1   14   13      2.63      0.00
    2   14   13      2.69      0.00
    3   14   13     -2.08      0.00
    4   14   13     -0.91      0.00
    5   14   13      0.59      0.00
    6   14   13     -1.57      0.00
    7   14   13     -0.20      0.00
    8   14   13      0.42      0.00
    9   14   13     -0.51      0.00
   10   14   13     -1.00      0.00
   11   14   13      2.92      0.00
   12   14   13      1.80      0.00
   13   14   13     -1.04      0.00
   14   14   13     -3.20      0.00
   15   14   13     -1.42      0.00
   16   14   13      3.39      0.00
   17   14   13      2.01      0.00
   18   14   13     -0.90      0.00
   19   14   13     -7.31      0.00
   20   14   13     -7.74      0.00
   -6   15   13     -1.26      0.00
   -5   15   13     -3.43      0.00
   -4   15   13     -5.68      0.00
   -3   15   13     -6.34      0.00
   -2   15   13      1.22      0.00
   -1   15   13     -2.57      0.00
    3   15   13      7.42      0.00
    4   15   13      4.84      0.00
    5   15   13      1.54      0.00
    6   15   13      1.05      0.00
    7   15   13      0.95      0.00
    8   15   13     -0.17      0.00
    9   15   13     -6.19      0.00
   10   15   13     -5.16      0.00
   11   15   13     -6.43      0.00
   12   15   13     -6.42      0.00
   13   15   13     -5.57      0.00
   14   15   13      0.14      0.00
   15   15   13      2.94      0.00
   16   15   13      2.33      0.00
   17   15   13      4.22      0.00
   18   15   13      0.28      0.00
   19   15   13     -4.65      0.00
   20   15   13     -7.29      0.00
   -5   16   13      9.86      0.00
   -4   16   13     10.26      0.00
   -3   16   13      6.12      0.00
   -2   16   13     -5.05      0.00
   -1   16   13      0.07      0.00
    0   16   13      6.06      0.00
    4   16   13      3.32      0.00
    5   16   13     -0.48      0.00
    6   16   13     -0.79      0.00
    7   16   13     -0.96      0.00
    8   16   13     -6.97      0.00
    9   16   13     -2.22      0.00
   10   16   13     -2.98      0.00
   11   16   13     -5.64      0.00
   12   16   13     -7.93      0.00
   13   16   13     -3.04      0.00
   14   16   13     -1.93      0.00
   15   16   13     -1.61      0.00
   16   16   13     -0.13      0.00
   17   16   13     -2.75      0.00
   18   16   13     -1.51      0.00
   19   16   13     -0.82      0.00
   20   16   13      0.71      0.00
   -3   17   13      1.80      0.00
   -2   17   13     13.60      0.00
   -1   17   13     14.01      0.00
    0   17   13      3.21      0.00
    6   17   13     -0.18      0.00
    7   17   13     -2.34      0.00
    8   17   13      2.98      0.00
    9   17   13     -2.00      0.00
   10   17   13     -6.23      0.00
   11   17   13     -4.16      0.00
   12   17   13      2.11      0.00
   13   17   13      0.73      0.00
   14   17   13     -0.07      0.00
   15   17   13      2.12      0.00
   16   17   13      1.42      0.00
   17   17   13      3.78      0.00
   18   17   13     -0.96      0.00
   19   17   13     -3.24      0.00
   -2   18   13     -0.40      0.00
   -1   18   13     -1.53      0.00
    0   18   13      0.43      0.00
    1   18   13      1.92      0.00
    7   18   13      0.77      0.00
    8   18   13      0.03      0.00
    9   18   13      0.80      0.00
   10   18   13      5.85      0.00
   11   18   13      5.65      0.00
   12   18   13      0.81      0.00
   13   18   13      1.61      0.00
   14   18   13      5.68      0.00
   15   18   13      2.02      0.00
   16   18   13      1.21      0.00
   17   18   13     -3.40      0.00
   18   18   13     -0.93      0.00
   19   18   13     -2.76      0.00
    0   19   13      4.20      0.00
    1   19   13      0.54      0.00
    2   19   13      0.30      0.00
    8   19   13     -8.76      0.00
    9   19   13     -5.44      0.00
   10   19   13     -6.98      0.00
   11   19   13     -5.29      0.00
   12   19   13     -0.44      0.00
   13   19   13      2.31      0.00
   14   19   13     -5.02      0.00
   15   19   13     -5.34      0.00
   16   19   13     -3.91      0.00
   17   19   13      2.37      0.00
   18   19   13     -0.08      0.00
    1   20   13      4.10      0.00
    2   20   13      1.65      0.00
    3   20   13     -7.17      0.00
    9   20   13     -4.45      0.00
   10   20   13     -4.42      0.00
   11   20   13     -2.84      0.00
   12   20   13      0.88      0.00
   13   20   13      0.49      0.00
   14   20   13      4.00      0.00
   16   20   13     -0.80      0.00
   17   20   13     -3.39      0.00
    4   21   13     -0.51      0.00
   10   21   13     -2.33      0.00
   11   21   13     -0.78      0.00
   12   21   13      0.24      0.00
   13   21   13      2.23      0.00
   14   21   13     -0.62      0.00
   15   21   13     -4.76      0.00
   16   21   13      0.53      0.00
   11   22   13     -7.60      0.00
   13   22   13     -4.08      0.00
   -7  -11   14      4.86      0.00
   -6  -11   14      8.43      0.00
   -5  -11   14      7.60      0.00
   -4  -11   14      3.22      0.00
   -3  -11   14      3.33      0.00
   -2  -11   14      2.20      0.00
   -9  -10   14     -3.50      0.00
   -8  -10   14     -0.04      0.00
   -7  -10   14     -1.23      0.00
   -6  -10   14     -4.02      0.00
   -5  -10   14     -8.60      0.00
   -4  -10   14     -8.14      0.00
   -3  -10   14     -4.07      0.00
   -2  -10   14      1.75      0.00
   -1  -10   14      2.81      0.00
    0  -10   14     -0.50      0.00
    1  -10   14      0.26      0.00
    2  -10   14     -1.04      0.00
  -11   -9   14      0.86      0.00
  -10   -9   14      2.90      0.00
   -9   -9   14      3.73      0.00
   -8   -9   14      0.26      0.00
   -7   -9   14      1.39      0.00
   -6   -9   14      1.91      0.00
   -5   -9   14      5.38      0.00
   -4   -9   14      8.08      0.00
   -3   -9   14      4.38      0.00
   -2   -9   14     -1.42      0.00
   -1   -9   14     -2.50      0.00
    0   -9   14      2.33      0.00
    1   -9   14      2.23      0.00
    2   -9   14      4.44      0.00
    3   -9   14      6.78      0.00
    4   -9   14      1.21      0.00
  -11   -8   14      0.46      0.00
  -10   -8   14      4.44      0.00
   -9   -8   14      3.06      0.00
   -8   -8   14      3.70      0.00
   -7   -8   14     -2.81      0.00
   -6   -8   14     -8.83      0.00
   -5   -8   14    -10.43      0.00
   -4   -8   14    -10.54      0.00
   -3   -8   14     -7.23      0.00
   -2   -8   14     -3.84      0.00
   -1   -8   14     -0.94      0.00
    0   -8   14     -1.48      0.00
    1   -8   14      2.11      0.00
    2   -8   14      3.71      0.00
    3   -8   14     -0.85      0.00
    4   -8   14      2.60      0.00
    5   -8   14      5.07      0.00
    6   -8   14      2.78      0.00
  -11   -7   14      9.27      0.00
  -10   -7   14      6.79      0.00
   -9   -7   14      4.64      0.00
   -8   -7   14     -5.61      0.00
   -7   -7   14     -8.23      0.00
   -6   -7   14     -4.95      0.00
   -5   -7   14     -7.22      0.00
   -4   -7   14     -9.43      0.00
   -3   -7   14     -4.92      0.00
   -2   -7   14      4.89      0.00
   -1   -7   14      8.97      0.00
    0   -7   14      9.79      0.00
    1   -7   14      6.67      0.00
    2   -7   14      0.09      0.00
    3   -7   14      0.21      0.00
    4   -7   14     -1.70      0.00
    5   -7   14     -6.22      0.00
    6   -7   14     -5.16      0.00
    7   -7   14     -3.08      0.00
    8   -7   14      1.40      0.00
  -13   -6   14      6.27      0.00
  -12   -6   14      0.14      0.00
  -11   -6   14      0.78      0.00
  -10   -6   14      1.03      0.00
   -9   -6   14     -1.07      0.00
   -8   -6   14      4.29      0.00
   -7   -6   14      3.24      0.00
   -6   -6   14     -3.25      0.00
   -5   -6   14     -3.89      0.00
   -4   -6   14     -0.95      0.00
   -3   -6   14     -1.35      0.00
   -2   -6   14     -5.35      0.00
   -1   -6   14     -4.54      0.00
    0   -6   14     -1.13      0.00
    1   -6   14      0.68      0.00
    2   -6   14      4.87      0.00
    3   -6   14      4.55      0.00
    4   -6   14      0.60      0.00
    5   -6   14      2.68      0.00
    6   -6   14      3.45      0.00
    7   -6   14      0.81      0.00
    8   -6   14     -2.32      0.00
    9   -6   14      2.10      0.00
  -14   -5   14     -1.03      0.00
  -13   -5   14    -10.93      0.00
  -12   -5   14     -9.30      0.00
  -11   -5   14     -9.29      0.00
  -10   -5   14     -6.34      0.00
   -9   -5   14     -0.49      0.00
   -8   -5   14     -2.97      0.00
   -7   -5   14     -1.92      0.00
   -6   -5   14     -0.65      0.00
   -5   -5   14     -1.81      0.00
   -4   -5   14     -1.35      0.00
   -3   -5   14     -0.65      0.00
   -2   -5   14      0.09      0.00
   -1   -5   14      1.36      0.00
    0   -5   14      1.50      0.00
    1   -5   14      1.90      0.00
    2   -5   14     -0.21      0.00
    3   -5   14     -3.49      0.00
    4   -5   14      0.08      0.00
    5   -5   14      1.39      0.00
    6   -5   14     -0.33      0.00
    7   -5   14      0.68      0.00
    8   -5   14      2.46      0.00
    9   -5   14     -3.41      0.00
   10   -5   14     -6.86      0.00
  -14   -4   14     -0.59      0.00
  -13   -4   14      7.77      0.00
  -12   -4   14      3.16      0.00
  -11   -4   14      2.60      0.00
  -10   -4   14      4.47      0.00
   -9   -4   14      1.21      0.00
   -8   -4   14      0.95      0.00
   -7   -4   14     -3.92      0.00
   -6   -4   14     -3.02      0.00
   -5   -4   14      1.68      0.00
   -4   -4   14     -0.28      0.00
   -3   -4   14     -0.90      0.00
   -2   -4   14      3.12      0.00
   -1   -4   14      2.71      0.00
    0   -4   14      0.00      0.00
    1   -4   14     -1.90      0.00
    2   -4   14     -3.76      0.00
    3   -4   14      1.11      0.00
    4   -4   14      3.85      0.00
    5   -4   14      1.16      0.00
    6   -4   14     -2.02      0.00
    7   -4   14     -4.85      0.00
    8   -4   14     -4.05      0.00
    9   -4   14     -0.18      0.00
   10   -4   14     -1.31      0.00
   11   -4   14     -3.00      0.00
   12   -4   14     -2.30      0.00
  -14   -3   14      1.00      0.00
  -13   -3   14     -4.90      0.00
  -12   -3   14      0.26      0.00
  -11   -3   14      1.82      0.00
  -10   -3   14     -3.32      0.00
   -9   -3   14     -4.15      0.00
   -8   -3   14     -5.85      0.00
   -7   -3   14     -0.61      0.00
   -6   -3   14      1.44      0.00
   -5   -3   14     -2.29      0.00
   -4   -3   14     -0.13      0.00
   -3   -3   14      3.21      0.00
   -2   -3   14      1.98      0.00
   -1   -3   14      3.15      0.00
    0   -3   14      4.95      0.00
    1   -3   14      3.09      0.00
    2   -3   14      4.88      0.00
    3   -3   14      5.16      0.00
    4   -3   14      2.73      0.00
    5   -3   14      0.97      0.00
    6   -3   14     -0.70      0.00
    7   -3   14      1.91      0.00
    8   -3   14      1.09      0.00
    9   -3   14     -0.32      0.00
   10   -3   14      1.14      0.00
   11   -3   14      0.68      0.00
   12   -3   14     -0.52      0.00
   13   -3   14      1.22      0.00
  -14   -2   14     12.51      0.00
  -13   -2   14     17.55      0.00
  -12   -2   14      9.04      0.00
  -11   -2   14      0.01      0.00
  -10   -2   14     -0.12      0.00
   -9   -2   14     -2.40      0.00
   -8   -2   14     -1.16      0.00
   -7   -2   14     -0.35      0.00
   -6   -2   14     -0.33      0.00
   -5   -2   14      0.61      0.00
   -4   -2   14     -0.36      0.00
   -3   -2   14     -1.48      0.00
   -2   -2   14      0.29      0.00
   -1   -2   14      1.77      0.00
    0   -2   14      1.54      0.00
    1   -2   14      2.88      0.00
    2   -2   14      3.51      0.00
    3   -2   14      3.33      0.00
    4   -2   14      1.50      0.00
    5   -2   14     -2.22      0.00
    6   -2   14     -2.63      0.00
    7   -2   14     -4.68      0.00
    8   -2   14     -0.09      0.00
    9   -2   14      1.02      0.00
   10   -2   14     -2.06      0.00
   11   -2   14     -2.05      0.00
   12   -2   14     -2.77      0.00
   13   -2   14     -5.71      0.00
   14   -2   14     -5.56      0.00
  -14   -1   14     -8.42      0.00
  -13   -1   14     -8.72      0.00
  -12   -1   14     -1.96      0.00
  -11   -1   14      4.04      0.00
  -10   -1   14      0.71      0.00
   -9   -1   14     -0.06      0.00
   -8   -1   14      0.76      0.00
   -7   -1   14     -0.61      0.00
   -6   -1   14     -2.77      0.00
   -5   -1   14     -2.82      0.00
   -4   -1   14     -2.95      0.00
   -3   -1   14     -2.47      0.00
   -2   -1   14     -0.84      0.00
   -1   -1   14      0.08      0.00
    0   -1   14     -0.05      0.00
    1   -1   14      1.10      0.00
    2   -1   14      1.22      0.00
    3   -1   14      0.60      0.00
    4   -1   14      1.42      0.00
    5   -1   14      3.58      0.00
    6   -1   14      2.26      0.00
    7   -1   14      4.94      0.00
    8   -1   14      2.29      0.00
    9   -1   14      2.34      0.00
   10   -1   14      2.89      0.00
   11   -1   14     -2.40      0.00
   12   -1   14     -1.79      0.00
   13   -1   14      3.17      0.00
   14   -1   14      6.06      0.00
  -14    0   14      6.45      0.00
  -13    0   14      7.46      0.00
  -12    0   14      3.41      0.00
  -11    0   14      1.11      0.00
  -10    0   14      3.43      0.00
   -9    0   14      4.19      0.00
   -8    0   14      3.03      0.00
   -7    0   14      2.26      0.00
   -6    0   14      1.74      0.00
   -5    0   14     -0.91      0.00
   -4    0   14     -0.86      0.00
   -3    0   14      0.07      0.00
   -2    0   14     -1.37      0.00
   -1    0   14     -1.93      0.00
    0    0   14      2.52      0.00
    1    0   14      2.81      0.00
    2    0   14      2.29      0.00
    3    0   14      3.86      0.00
    4    0   14      5.21      0.00
    5    0   14      2.41      0.00
    6    0   14     -0.11      0.00
    7    0   14     -4.70      0.00
    8    0   14     -3.10      0.00
    9    0   14     -1.49      0.00
   10    0   14     -0.15      0.00
   11    0   14      3.22      0.00
   12    0   14     -2.73      0.00
   13    0   14     -7.55      0.00
   14    0   14     -6.52      0.00
   15    0   14     -2.43      0.00
  -14    1   14     -0.36      0.00
  -13    1   14      1.15      0.00
  -12    1   14      5.77      0.00
  -11    1   14      1.98      0.00
  -10    1   14     -3.33      0.00
   -9    1   14     -4.56      0.00
   -8    1   14     -5.87      0.00
   -7    1   14     -6.15      0.00
   -6    1   14     -5.19      0.00
   -5    1   14     -2.80      0.00
   -4    1   14     -2.77      0.00
   -3    1   14     -3.11      0.00
   -2    1   14     -0.55      0.00
   -1    1   14      2.78      0.00
    0    1   14     -1.32      0.00
    1    1   14     -1.87      0.00
    2    1   14     -0.11      0.00
    3    1   14     -0.52      0.00
    4    1   14     -3.02      0.00
    5    1   14     -3.49      0.00
    6    1   14     -2.71      0.00
    7    1   14     -0.31      0.00
    8    1   14      1.90      0.00
    9    1   14      4.11      0.00
   10    1   14      0.21      0.00
   11    1   14     -6.48      0.00
   12    1   14     -1.24      0.00
   13    1   14      4.10      0.00
   14    1   14      3.25      0.00
   15    1   14      0.19      0.00
   16    1   14      3.31      0.00
  -14    2   14      5.75      0.00
  -13    2   14      3.48      0.00
  -12    2   14     -3.52      0.00
  -11    2   14     -0.52      0.00
  -10    2   14      3.63      0.00
   -9    2   14      1.10      0.00
   -8    2   14      1.65      0.00
   -7    2   14      2.14      0.00
   -6    2   14      2.50      0.00
   -5    2   14      3.88      0.00
   -4    2   14      5.58      0.00
   -3    2   14      3.93      0.00
   -2    2   14      0.10      0.00
   -1    2   14     -2.58      0.00
    0    2   14      0.97      0.00
    1    2   14     -0.29      0.00
    2    2   14     -3.85      0.00
    3    2   14     -2.54      0.00
    4    2   14      0.75      0.00
    5    2   14      3.50      0.00
    6    2   14      3.34      0.00
    7    2   14      3.30      0.00
    8    2   14      0.90      0.00
    9    2   14     -3.77      0.00
   10    2   14     -2.37      0.00
   11    2   14      1.72      0.00
   12    2   14     -0.27      0.00
   13    2   14      0.25      0.00
   14    2   14      2.37      0.00
   15    2   14      5.83      0.00
   16    2   14      0.52      0.00
   17    2   14      0.94      0.00
  -14    3   14    -11.68      0.00
  -13    3   14    -11.69      0.00
  -12    3   14     -2.70      0.00
  -11    3   14      0.29      0.00
  -10    3   14     -2.73      0.00
   -9    3   14      0.46      0.00
   -8    3   14      1.78      0.00
   -7    3   14      4.22      0.00
   -6    3   14      5.25      0.00
   -5    3   14      3.90      0.00
   -4    3   14      1.22      0.00
   -3    3   14      2.67      0.00
   -2    3   14      4.81      0.00
   -1    3   14      1.07      0.00
    0    3   14     -6.20      0.00
    1    3   14     -4.50      0.00
    2    3   14      2.08      0.00
    3    3   14      2.27      0.00
    4    3   14      2.25      0.00
    5    3   14      0.65      0.00
    6    3   14      0.17      0.00
    7    3   14     -1.33      0.00
    8    3   14      0.24      0.00
    9    3   14      5.03      0.00
   10    3   14      5.58      0.00
   11    3   14      3.66      0.00
   12    3   14      3.05      0.00
   13    3   14     -2.96      0.00
   14    3   14     -4.30      0.00
   15    3   14     -6.19      0.00
   16    3   14     -4.69      0.00
   17    3   14     -2.22      0.00
  -13    4   14     -1.40      0.00
  -12    4   14     -2.76      0.00
  -11    4   14     -2.05      0.00
  -10    4   14      3.20      0.00
   -9    4   14      0.91      0.00
   -8    4   14     -2.02      0.00
   -7    4   14     -4.11      0.00
   -6    4   14     -1.22      0.00
   -5    4   14      0.51      0.00
   -4    4   14      3.98      0.00
   -3    4   14      4.16      0.00
   -2    4   14     -0.22      0.00
   -1    4   14     -0.95      0.00
    0    4   14      0.15      0.00
    1    4   14     -3.78      0.00
    2    4   14     -9.24      0.00
    3    4   14     -8.57      0.00
    4    4   14     -7.86      0.00
    5    4   14     -4.38      0.00
    6    4   14     -1.82      0.00
    7    4   14     -2.49      0.00
    8    4   14     -3.46      0.00
    9    4   14     -4.22      0.00
   10    4   14     -2.86      0.00
   11    4   14     -0.17      0.00
   12    4   14     -0.24      0.00
   13    4   14      3.75      0.00
   14    4   14      1.64      0.00
   15    4   14     -0.53      0.00
   16    4   14      2.58      0.00
   17    4   14      0.83      0.00
   18    4   14      0.48      0.00
  -13    5   14     -0.77      0.00
  -12    5   14     -0.35      0.00
  -11    5   14      1.05      0.00
  -10    5   14     -0.89      0.00
   -9    5   14      0.73      0.00
   -8    5   14      4.12      0.00
   -7    5   14      7.63      0.00
   -6    5   14      3.71      0.00
   -5    5   14      5.18      0.00
   -4    5   14      4.86      0.00
   -3    5   14      2.34      0.00
   -2    5   14      0.29      0.00
   -1    5   14     -4.61      0.00
    0    5   14     -6.02      0.00
    1    5   14     -2.95      0.00
    2    5   14     -4.46      0.00
    3    5   14     -7.23      0.00
    4    5   14     -3.90      0.00
    5    5   14      0.06      0.00
    6    5   14     -1.79      0.00
    7    5   14      0.66      0.00
    8    5   14      1.21      0.00
    9    5   14      0.53      0.00
   10    5   14     -0.12      0.00
   11    5   14     -2.09      0.00
   12    5   14     -0.51      0.00
   13    5   14     -1.07      0.00
   14    5   14     -1.54      0.00
   15    5   14      1.20      0.00
   16    5   14     -3.51      0.00
   17    5   14     -4.05      0.00
   18    5   14     -0.49      0.00
  -12    6   14     -1.98      0.00
  -11    6   14      0.22      0.00
  -10    6   14      2.27      0.00
   -9    6   14      2.56      0.00
   -8    6   14      3.05      0.00
   -7    6   14     -0.77      0.00
   -6    6   14      1.45      0.00
   -5    6   14     -0.93      0.00
   -4    6   14      0.05      0.00
   -3    6   14      1.13      0.00
   -2    6   14     -2.03      0.00
   -1    6   14     -2.14      0.00
    0    6   14     -1.29      0.00
    1    6   14     -4.83      0.00
    2    6   14     -2.73      0.00
    3    6   14      0.40      0.00
    4    6   14      1.26      0.00
    5    6   14     -2.69      0.00
    6    6   14      0.59      0.00
    7    6   14     -2.61      0.00
    8    6   14     -2.12      0.00
    9    6   14      0.77      0.00
   10    6   14      2.81      0.00
   11    6   14      4.88      0.00
   12    6   14      3.04      0.00
   13    6   14     -2.95      0.00
   14    6   14     -3.64      0.00
   15    6   14     -7.21      0.00
   16    6   14     -1.96      0.00
   17    6   14      4.52      0.00
   18    6   14      6.04      0.00
   19    6   14      7.64      0.00
  -12    7   14     -0.39      0.00
  -11    7   14     -0.68      0.00
  -10    7   14     -0.63      0.00
   -9    7   14      2.18      0.00
   -8    7   14     -1.53      0.00
   -7    7   14     -1.70      0.00
   -6    7   14     -4.57      0.00
   -5    7   14     -0.71      0.00
   -4    7   14      0.98      0.00
   -3    7   14     -1.35      0.00
   -2    7   14     -0.97      0.00
   -1    7   14      2.43      0.00
    0    7   14      3.86      0.00
    1    7   14      5.74      0.00
    2    7   14      4.48      0.00
    3    7   14      6.10      0.00
    4    7   14      6.45      0.00
    5    7   14      8.09      0.00
    6    7   14     -1.69      0.00
    7    7   14     -3.28      0.00
    8    7   14     -2.89      0.00
    9    7   14     -5.36      0.00
   10    7   14     -8.42      0.00
   11    7   14     -7.20      0.00
   12    7   14     -6.34      0.00
   13    7   14     -5.39      0.00
   14    7   14     -9.20      0.00
   15    7   14     -2.38      0.00
   16    7   14      0.72      0.00
   17    7   14     -1.84      0.00
   18    7   14     -5.81      0.00
   19    7   14     -5.95      0.00
  -11    8   14     -4.98      0.00
  -10    8   14     -0.55      0.00
   -9    8   14     -2.58      0.00
   -8    8   14      0.68      0.00
   -7    8   14      0.16      0.00
   -6    8   14      1.60      0.00
   -5    8   14     -0.29      0.00
   -4    8   14     -5.89      0.00
   -3    8   14     -7.21      0.00
   -2    8   14     -3.00      0.00
   -1    8   14     -2.06      0.00
    0    8   14     -2.77      0.00
    1    8   14     -2.70      0.00
    2    8   14     -1.38      0.00
    3    8   14     -0.46      0.00
    4    8   14      0.50      0.00
    5    8   14     -3.05      0.00
    6    8   14      2.30      0.00
    7    8   14      4.54      0.00
    8    8   14     -0.56      0.00
    9    8   14     -3.11      0.00
   10    8   14      4.82      0.00
   11    8   14      9.49      0.00
   12    8   14      7.92      0.00
   13    8   14      5.37      0.00
   14    8   14      7.31      0.00
   15    8   14      4.39      0.00
   16    8   14      4.90      0.00
   17    8   14      3.44      0.00
   18    8   14      2.78      0.00
   19    8   14      1.29      0.00
  -10    9   14     -0.51      0.00
   -9    9   14      2.94      0.00
   -8    9   14      3.70      0.00
   -7    9   14      3.19      0.00
   -6    9   14      0.81      0.00
   -5    9   14     -4.55      0.00
   -4    9   14     -2.34      0.00
   -3    9   14      1.29      0.00
   -2    9   14     -1.30      0.00
   -1    9   14     -0.77      0.00
    0    9   14      1.01      0.00
    1    9   14     -2.21      0.00
    2    9   14     -1.91      0.00
    3    9   14     -1.40      0.00
    4    9   14     -2.65      0.00
    5    9   14     -2.77      0.00
    6    9   14     -3.84      0.00
    7    9   14     -4.92      0.00
    8    9   14     -1.59      0.00
    9    9   14      3.53      0.00
   10    9   14      1.12      0.00
   11    9   14     -1.48      0.00
   12    9   14     -0.16      0.00
   13    9   14     -3.03      0.00
   14    9   14     -1.70      0.00
   15    9   14      4.52      0.00
   16    9   14      2.40      0.00
   17    9   14      2.08      0.00
   18    9   14      4.81      0.00
   19    9   14      8.16      0.00
  -10   10   14      5.10      0.00
   -9   10   14      4.48      0.00
   -8   10   14      0.54      0.00
   -7   10   14      0.59      0.00
   -6   10   14     -2.74      0.00
   -5   10   14      0.11      0.00
   -4   10   14     -0.33      0.00
   -2   10   14      3.12      0.00
   -1   10   14      5.38      0.00
    0   10   14      1.21      0.00
    1   10   14      1.42      0.00
    2   10   14     -0.22      0.00
    3   10   14     -0.96      0.00
    4   10   14     -2.45      0.00
    5   10   14     -1.07      0.00
    6   10   14     -0.73      0.00
    7   10   14     -3.24      0.00
    8   10   14     -5.09      0.00
    9   10   14     -6.77      0.00
   10   10   14     -3.53      0.00
   11   10   14      1.66      0.00
   12   10   14      0.84      0.00
   13   10   14      6.36      0.00
   14   10   14      5.51      0.00
   15   10   14      0.87      0.00
   16   10   14      2.57      0.00
   17   10   14      1.68      0.00
   18   10   14     -1.38      0.00
   19   10   14     -0.45      0.00
   20   10   14      2.65      0.00
   -9   11   14     -7.08      0.00
   -8   11   14     -2.80      0.00
   -7   11   14     -5.41      0.00
   -6   11   14     -0.75      0.00
   -5   11   14     -0.75      0.00
   -4   11   14     -4.70      0.00
   -3   11   14      0.77      0.00
   -1   11   14      2.36      0.00
    0   11   14      2.57      0.00
    1   11   14      0.45      0.00
    2   11   14      1.86      0.00
    3   11   14      2.28      0.00
    4   11   14      3.51      0.00
    5   11   14      3.08      0.00
    6   11   14      0.83      0.00
    7   11   14      2.70      0.00
    8   11   14     -0.75      0.00
    9   11   14     -3.86      0.00
   10   11   14     -1.50      0.00
   11   11   14      1.20      0.00
   12   11   14      5.35      0.00
   13   11   14      1.38      0.00
   14   11   14      2.74      0.00
   15   11   14      4.53      0.00
   16   11   14     -0.52      0.00
   17   11   14     -3.24      0.00
   18   11   14     -3.15      0.00
   19   11   14     -5.08      0.00
   20   11   14     -3.82      0.00
   -8   12   14     -0.70      0.00
   -7   12   14      2.57      0.00
   -6   12   14     -0.62      0.00
   -5   12   14     -5.34      0.00
   -4   12   14      4.82      0.00
   -3   12   14      4.91      0.00
    0   12   14      1.10      0.00
    1   12   14      3.87      0.00
    2   12   14      2.44      0.00
    3   12   14      0.87      0.00
    4   12   14      1.62      0.00
    5   12   14      0.14      0.00
    6   12   14      1.73      0.00
    7   12   14     -4.13      0.00
    8   12   14     -6.72      0.00
    9   12   14     -3.84      0.00
   10   12   14     -3.89      0.00
   11   12   14     -6.99      0.00
   12   12   14     -9.26      0.00
   13   12   14     -4.49      0.00
   14   12   14     -2.56      0.00
   15   12   14     -0.81      0.00
   16   12   14      4.18      0.00
   17   12   14      1.79      0.00
   18   12   14     -1.79      0.00
   19   12   14      1.73      0.00
   20   12   14      5.95      0.00
   -8   13   14      4.07      0.00
   -7   13   14     -0.03      0.00
   -6   13   14     -2.61      0.00
   -5   13   14      7.61      0.00
   -4   13   14      0.49      0.00
   -3   13   14     -1.30      0.00
   -2   13   14     -1.05      0.00
    1   13   14     -3.32      0.00
    2   13   14     -2.98      0.00
    3   13   14     -0.48      0.00
    4   13   14     -0.70      0.00
    5   13   14      4.73      0.00
    6   13   14      2.63      0.00
    7   13   14      0.01      0.00
    8   13   14     -0.54      0.00
    9   13   14     -1.40      0.00
   10   13   14     -2.76      0.00
   11   13   14     -0.93      0.00
   12   13   14      0.08      0.00
   13   13   14     -3.12      0.00
   14   13   14     -3.02      0.00
   15   13   14      0.87      0.00
   16   13   14     -0.22      0.00
   17   13   14      0.36      0.00
   18   13   14      0.40      0.00
   19   13   14      1.04      0.00
   20   13   14      0.44      0.00
   -7   14   14     -1.06      0.00
   -6   14   14      5.85      0.00
   -5   14   14     -4.74      0.00
   -4   14   14     -3.36      0.00
   -3   14   14     -0.52      0.00
   -2   14   14      2.57      0.00
    3   14   14     -0.83      0.00
    4   14   14      5.59      0.00
    5   14   14      3.03      0.00
    6   14   14     -0.07      0.00
    7   14   14     -0.11      0.00
    8   14   14      1.22      0.00
    9   14   14      1.09      0.00
   10   14   14      1.67      0.00
   11   14   14     -1.18      0.00
   12   14   14     -5.82      0.00
   13   14   14     -3.88      0.00
   14   14   14      2.54      0.00
   15   14   14      5.30      0.00
   16   14   14      4.54      0.00
   17   14   14     -0.58      0.00
   18   14   14      1.06      0.00
   19   14   14      4.64      0.00
   20   14   14      7.21      0.00
   -6   15   14    -15.24      0.00
   -5   15   14     -6.71      0.00
   -4   15   14      1.49      0.00
   -3   15   14      7.10      0.00
   -2   15   14      7.84      0.00
   -1   15   14      0.48      0.00
    4   15   14     -5.52      0.00
    5   15   14     -2.33      0.00
    6   15   14     -1.97      0.00
    7   15   14     -0.07      0.00
    8   15   14      2.05      0.00
    9   15   14      4.92      0.00
   10   15   14      5.94      0.00
   11   15   14      3.71      0.00
   12   15   14      5.80      0.00
   13   15   14      5.92      0.00
   14   15   14      3.03      0.00
   15   15   14     -2.32      0.00
   16   15   14     -5.45      0.00
   17   15   14     -2.44      0.00
   18   15   14     -1.17      0.00
   19   15   14      1.89      0.00
   20   15   14      3.17      0.00
   -4   16   14     -3.68      0.00
   -3   16   14     -6.95      0.00
   -2   16   14     -9.99      0.00
   -1   16   14     -2.92      0.00
    5   16   14     -1.96      0.00
    6   16   14     -1.94      0.00
    7   16   14     -4.52      0.00
    8   16   14     -2.91      0.00
    9   16   14      2.25      0.00
   10   16   14      0.47      0.00
   11   16   14      2.65      0.00
   12   16   14      3.02      0.00
   13   16   14      3.92      0.00
   14   16   14      0.11      0.00
   15   16   14      0.48      0.00
   16   16   14      1.40      0.00
   17   16   14     -0.43      0.00
   18   16   14      2.88      0.00
   19   16   14      4.52      0.00
   -3   17   14     -4.70      0.00
   -2   17   14     -1.51      0.00
   -1   17   14     -4.51      0.00
    0   17   14     -0.61      0.00
    6   17   14      4.61      0.00
    7   17   14      4.97      0.00
    8   17   14      6.45      0.00
    9   17   14     -0.43      0.00
   10   17   14      1.37      0.00
   11   17   14      1.07      0.00
   12   17   14     -1.83      0.00
   13   17   14     -8.67      0.00
   14   17   14     -4.71      0.00
   15   17   14     -2.35      0.00
   16   17   14     -5.03      0.00
   17   17   14     -4.09      0.00
   18   17   14     -2.79      0.00
   19   17   14      1.75      0.00
   -2   18   14     -8.81      0.00
   -1   18   14     -5.17      0.00
    0   18   14     -0.89      0.00
    1   18   14     -2.44      0.00
    7   18   14      4.11      0.00
    8   18   14      0.14      0.00
    9   18   14     -0.05      0.00
   10   18   14     -2.55      0.00
   11   18   14     -3.10      0.00
   12   18   14     -1.08      0.00
   13   18   14      5.97      0.00
   14   18   14      4.38      0.00
   15   18   14     -1.90      0.00
   16   18   14     -2.30      0.00
   17   18   14     -2.17      0.00
   18   18   14      1.67      0.00
   19   18   14     -1.09      0.00
    0   19   14     -3.45      0.00
    1   19   14     -2.03      0.00
    2   19   14      1.77      0.00
    8   19   14      4.76      0.00
    9   19   14      8.93      0.00
   10   19   14      8.20      0.00
   11   19   14      6.19      0.00
   12   19   14      3.04      0.00
   13   19   14     -1.89      0.00
   14   19   14     -4.60      0.00
   15   19   14      0.60      0.00
   16   19   14      1.29      0.00
   17   19   14      2.08      0.00
   18   19   14     -1.34      0.00
    2   20   14     -6.34      0.00
    3   20   14     -4.61      0.00
    9   20   14     -4.86      0.00
   10   20   14     -2.67      0.00
   11   20   14     -2.12      0.00
   12   20   14     -2.68      0.00
   14   20   14      2.13      0.00
   15   20   14     -1.87      0.00
   16   20   14     -5.18      0.00
   17   20   14     -3.74      0.00
   10   21   14      0.58      0.00
   11   21   14     -0.77      0.00
   12   21   14     -2.44      0.00
   13   21   14     -0.20      0.00
   14   21   14     -4.47      0.00
   15   21   14     -3.17      0.00
   11   22   14      3.98      0.00
   12   22   14      3.52      0.00
   -6  -10   15      1.03      0.00
   -5  -10   15      2.22      0.00
   -4  -10   15      3.64      0.00
   -3  -10   15      2.22      0.00
   -2  -10   15      1.02      0.00
   -9   -9   15     -3.32      0.00
   -8   -9   15     -0.33      0.00
   -7   -9   15      3.24      0.00
   -6   -9   15      1.95      0.00
   -5   -9   15      4.15      0.00
   -4   -9   15      1.67      0.00
   -3   -9   15     -3.36      0.00
   -2   -9   15     -2.47      0.00
   -1   -9   15      3.81      0.00
    0   -9   15      2.06      0.00
    1   -9   15     -4.17      0.00
    2   -9   15     -2.86      0.00
  -10   -8   15      1.40      0.00
   -9   -8   15     -0.53      0.00
   -8   -8   15     -5.44      0.00
   -7   -8   15    -10.08      0.00
   -6   -8   15     -2.65      0.00
   -5   -8   15      5.01      0.00
   -4   -8   15      8.32      0.00
   -3   -8   15     11.11      0.00
   -2   -8   15      8.39      0.00
   -1   -8   15     -1.07      0.00
    0   -8   15     -3.96      0.00
    1   -8   15      2.39      0.00
    2   -8   15      2.83      0.00
    3   -8   15      3.18      0.00
    4   -8   15      6.88      0.00
  -10   -7   15     -3.67      0.00
   -9   -7   15     -3.81      0.00
   -8   -7   15     -1.00      0.00
   -7   -7   15     11.96      0.00
   -6   -7   15     15.59      0.00
   -5   -7   15      7.61      0.00
   -4   -7   15      2.58      0.00
   -3   -7   15     -0.46      0.00
   -2   -7   15     -2.75      0.00
   -1   -7   15      0.05      0.00
    0   -7   15      2.81      0.00
    1   -7   15     -2.68      0.00
    2   -7   15     -3.51      0.00
    3   -7   15      0.93      0.00
    4   -7   15     -1.90      0.00
    5   -7   15     -1.23      0.00
    6   -7   15      1.25      0.00
  -11   -6   15      3.43      0.00
  -10   -6   15     -0.89      0.00
   -9   -6   15     -0.36      0.00
   -8   -6   15      1.63      0.00
   -7   -6   15     -8.08      0.00
   -6   -6   15    -12.36      0.00
   -5   -6   15     -4.10      0.00
   -4   -6   15     -0.09      0.00
   -3   -6   15     -0.67      0.00
   -2   -6   15      2.66      0.00
   -1   -6   15      5.08      0.00
    0   -6   15      2.23      0.00
    1   -6   15      3.97      0.00
    2   -6   15      4.82      0.00
    3   -6   15     -2.47      0.00
    4   -6   15     -5.45      0.00
    5   -6   15     -3.45      0.00
    6   -6   15     -3.24      0.00
    7   -6   15     -0.88      0.00
    8   -6   15      1.69      0.00
  -13   -5   15      3.03      0.00
  -12   -5   15      9.77      0.00
  -11   -5   15     -0.52      0.00
  -10   -5   15     -3.02      0.00
   -9   -5   15     -6.58      0.00
   -8   -5   15    -10.76      0.00
   -7   -5   15     -4.09      0.00
   -6   -5   15      0.12      0.00
   -5   -5   15     -0.67      0.00
   -4   -5   15      2.08      0.00
   -3   -5   15      4.93      0.00
   -2   -5   15      2.08      0.00
   -1   -5   15     -1.43      0.00
    0   -5   15     -0.50      0.00
    1   -5   15     -1.66      0.00
    2   -5   15     -3.04      0.00
    3   -5   15      0.10      0.00
    4   -5   15      3.53      0.00
    5   -5   15     -0.75      0.00
    6   -5   15     -3.00      0.00
    7   -5   15     -3.01      0.00
    8   -5   15     -5.18      0.00
    9   -5   15     -6.09      0.00
  -13   -4   15      8.38      0.00
  -12   -4   15     -5.74      0.00
  -11   -4   15     -5.51      0.00
  -10   -4   15     -8.01      0.00
   -9   -4   15     -8.28      0.00
   -8   -4   15     -2.47      0.00
   -7   -4   15     -0.95      0.00
   -6   -4   15      3.75      0.00
   -5   -4   15      4.62      0.00
   -4   -4   15     -0.67      0.00
   -3   -4   15     -2.29      0.00
   -2   -4   15      0.25      0.00
   -1   -4   15      0.76      0.00
    0   -4   15     -0.19      0.00
    1   -4   15      3.08      0.00
    2   -4   15      5.14      0.00
    3   -4   15      4.30      0.00
    4   -4   15     -3.37      0.00
    5   -4   15     -5.56      0.00
    6   -4   15     -2.47      0.00
    7   -4   15      0.16      0.00
    8   -4   15      7.18      0.00
    9   -4   15     13.22      0.00
   10   -4   15      7.97      0.00
   11   -4   15      4.15      0.00
  -13   -3   15    -10.96      0.00
  -12   -3   15      1.65      0.00
  -11   -3   15      1.11      0.00
  -10   -3   15     -0.32      0.00
   -9   -3   15      2.56      0.00
   -8   -3   15      1.78      0.00
   -7   -3   15      1.85      0.00
   -6   -3   15     -2.17      0.00
   -5   -3   15     -2.53      0.00
   -4   -3   15      1.41      0.00
   -3   -3   15     -0.26      0.00
   -2   -3   15     -5.47      0.00
   -1   -3   15     -6.23      0.00
    0   -3   15     -1.33      0.00
    1   -3   15      1.34      0.00
    2   -3   15      2.94      0.00
    3   -3   15     -0.96      0.00
    4   -3   15     -0.70      0.00
    5   -3   15      1.24      0.00
    6   -3   15     -1.55      0.00
    7   -3   15     -1.50      0.00
    8   -3   15     -1.88      0.00
    9   -3   15     -0.86      0.00
   10   -3   15      2.12      0.00
   11   -3   15      0.39      0.00
   12   -3   15     -1.12      0.00
  -13   -2   15      7.19      0.00
  -12   -2   15     -0.02      0.00
  -11   -2   15     -1.10      0.00
  -10   -2   15      2.06      0.00
   -9   -2   15     -0.21      0.00
   -8   -2   15     -2.35      0.00
   -7   -2   15     -4.69      0.00
   -6   -2   15     -4.21      0.00
   -5   -2   15     -2.28      0.00
   -4   -2   15     -1.89      0.00
   -3   -2   15     -2.90      0.00
   -2   -2   15     -3.96      0.00
   -1   -2   15     -2.59      0.00
    0   -2   15     -2.54      0.00
    1   -2   15     -0.64      0.00
    2   -2   15     -0.41      0.00
    3   -2   15      0.66      0.00
    4   -2   15     -1.39      0.00
    5   -2   15     -5.57      0.00
    6   -2   15     -3.64      0.00
    7   -2   15     -0.47      0.00
    8   -2   15      6.65      0.00
    9   -2   15      7.55      0.00
   10   -2   15      5.08      0.00
   11   -2   15      2.63      0.00
   12   -2   15     -0.24      0.00
   13   -2   15     -2.85      0.00
  -13   -1   15      1.18      0.00
  -12   -1   15      3.54      0.00
  -11   -1   15      2.04      0.00
  -10   -1   15     -1.95      0.00
   -9   -1   15     -1.29      0.00
   -8   -1   15     -1.42      0.00
   -7   -1   15     -3.23      0.00
   -6   -1   15     -0.46      0.00
   -5   -1   15      4.18      0.00
   -4   -1   15      5.46      0.00
   -3   -1   15      6.32      0.00
   -2   -1   15      6.23      0.00
   -1   -1   15      0.14      0.00
    0   -1   15     -1.91      0.00
    1   -1   15      0.60      0.00
    2   -1   15      2.79      0.00
    3   -1   15      1.14      0.00
    4   -1   15     -0.94      0.00
    5   -1   15     -1.87      0.00
    6   -1   15     -4.71      0.00
    7   -1   15     -4.11      0.00
    8   -1   15     -6.99      0.00
    9   -1   15     -4.52      0.00
   10   -1   15     -5.24      0.00
   11   -1   15     -6.49      0.00
   12   -1   15     -3.36      0.00
   13   -1   15     -0.49      0.00
   14   -1   15     -1.69      0.00
  -13    0   15     -3.45      0.00
  -12    0   15     -6.87      0.00
  -11    0   15     -4.06      0.00
  -10    0   15      0.50      0.00
   -9    0   15      1.08      0.00
   -8    0   15     -0.15      0.00
   -7    0   15      2.52      0.00
   -6    0   15      3.61      0.00
   -5    0   15      1.99      0.00
   -4    0   15      3.56      0.00
   -3    0   15      3.41      0.00
   -2    0   15     -0.53      0.00
   -1    0   15      0.85      0.00
    0    0   15      3.62      0.00
    1    0   15      2.21      0.00
    2    0   15     -0.97      0.00
    3    0   15     -2.39      0.00
    4    0   15     -3.16      0.00
    5    0   15     -2.76      0.00
    6    0   15      1.46      0.00
    7    0   15      2.06      0.00
    8    0   15      3.98      0.00
    9    0   15      0.23      0.00
   10    0   15      0.39      0.00
   11    0   15      1.43      0.00
   12    0   15     -2.36      0.00
   13    0   15     -1.89      0.00
   15    0   15      3.86      0.00
  -13    1   15      8.67      0.00
  -12    1   15      6.61      0.00
  -11    1   15     -1.35      0.00
  -10    1   15     -2.14      0.00
   -9    1   15      0.43      0.00
   -8    1   15      3.39      0.00
   -7    1   15      3.55      0.00
   -6    1   15      0.84      0.00
   -5    1   15     -0.29      0.00
   -4    1   15     -2.05      0.00
   -3    1   15     -2.33      0.00
   -2    1   15      0.04      0.00
   -1    1   15     -1.07      0.00
    0    1   15     -3.76      0.00
    1    1   15     -2.58      0.00
    2    1   15     -0.62      0.00
    3    1   15     -1.65      0.00
    4    1   15     -2.37      0.00
    5    1   15     -1.03      0.00
    6    1   15     -3.67      0.00
    7    1   15     -3.81      0.00
    8    1   15     -2.22      0.00
    9    1   15      1.64      0.00
   10    1   15      1.02      0.00
   11    1   15      1.59      0.00
   12    1   15      5.71      0.00
   13    1   15      1.44      0.00
   14    1   15     -3.41      0.00
   15    1   15     -4.56      0.00
  -13    2   15    -10.45      0.00
  -12    2   15     -7.30      0.00
  -11    2   15      6.76      0.00
  -10    2   15      8.95      0.00
   -9    2   15      5.69      0.00
   -8    2   15      2.54      0.00
   -7    2   15     -2.24      0.00
   -6    2   15     -2.34      0.00
   -5    2   15      0.03      0.00
   -4    2   15      2.58      0.00
   -3    2   15      1.67      0.00
   -2    2   15     -2.51      0.00
   -1    2   15     -1.79      0.00
    0    2   15      1.16      0.00
    1    2   15      0.38      0.00
    2    2   15     -0.75      0.00
    3    2   15      1.47      0.00
    4    2   15      3.02      0.00
    5    2   15      0.68      0.00
    6    2   15      1.65      0.00
    7    2   15      2.08      0.00
    8    2   15     -1.81      0.00
    9    2   15     -3.62      0.00
   10    2   15      0.73      0.00
   11    2   15     -0.21      0.00
   12    2   15     -5.49      0.00
   13    2   15     -1.89      0.00
   14    2   15      0.04      0.00
   15    2   15     -1.38      0.00
   16    2   15     -5.43      0.00
  -13    3   15      0.90      0.00
  -12    3   15      0.32      0.00
  -11    3   15     -6.65      0.00
  -10    3   15     -2.75      0.00
   -9    3   15      2.14      0.00
   -8    3   15      0.22      0.00
   -7    3   15      0.36      0.00
   -6    3   15     -0.65      0.00
   -5    3   15     -1.34      0.00
   -4    3   15     -2.09      0.00
   -3    3   15     -2.13      0.00
   -2    3   15     -0.60      0.00
   -1    3   15     -4.08      0.00
    0    3   15     -3.24      0.00
    1    3   15      4.36      0.00
    2    3   15      8.85      0.00
    3    3   15      5.40      0.00
    4    3   15      1.38      0.00
    5    3   15      0.88      0.00
    6    3   15      0.65      0.00
    7    3   15      0.43      0.00
    8    3   15      5.23      0.00
    9    3   15      6.02      0.00
   10    3   15     -0.48      0.00
   11    3   15     -1.62      0.00
   12    3   15      3.72      0.00
   13    3   15      3.89      0.00
   14    3   15      5.96      0.00
   15    3   15      3.62      0.00
   16    3   15      2.42      0.00
   17    3   15     -1.23      0.00
  -13    4   15     -7.75      0.00
  -12    4   15     -8.38      0.00
  -11    4   15     -1.47      0.00
  -10    4   15      0.54      0.00
   -9    4   15     -0.43      0.00
   -8    4   15      1.19      0.00
   -7    4   15     -0.63      0.00
   -6    4   15     -1.65      0.00
   -5    4   15     -2.48      0.00
   -4    4   15     -1.46      0.00
   -3    4   15     -2.22      0.00
   -2    4   15     -5.49      0.00
   -1    4   15     -0.64      0.00
    0    4   15      0.37      0.00
    1    4   15     -3.76      0.00
    2    4   15     -4.48      0.00
    3    4   15     -0.36      0.00
    4    4   15     -0.33      0.00
    5    4   15     -2.75      0.00
    6    4   15     -4.66      0.00
    7    4   15     -2.75      0.00
    8    4   15     -3.74      0.00
    9    4   15     -4.13      0.00
   10    4   15     -1.05      0.00
   11    4   15      1.54      0.00
   12    4   15     -1.13      0.00
   13    4   15     -1.43      0.00
   14    4   15     -6.87      0.00
   15    4   15     -4.71      0.00
   16    4   15     -0.66      0.00
   17    4   15     -0.64      0.00
  -11    5   15     -3.86      0.00
  -10    5   15     -5.40      0.00
   -9    5   15     -2.70      0.00
   -8    5   15     -2.62      0.00
   -7    5   15     -3.72      0.00
   -6    5   15     -4.36      0.00
   -5    5   15     -0.69      0.00
   -4    5   15     -2.10      0.00
   -3    5   15     -2.07      0.00
   -2    5   15      1.59      0.00
   -1    5   15     -1.37      0.00
    0    5   15     -1.29      0.00
    1    5   15      1.59      0.00
    2    5   15      1.88      0.00
    3    5   15     -0.03      0.00
    4    5   15     -0.16      0.00
    5    5   15      0.00      0.00
    6    5   15      0.63      0.00
    7    5   15     -1.97      0.00
    8    5   15     -4.53      0.00
    9    5   15     -2.49      0.00
   10    5   15      1.63      0.00
   11    5   15      0.30      0.00
   12    5   15      1.76      0.00
   13    5   15      0.76      0.00
   14    5   15      4.04      0.00
   15    5   15      2.41      0.00
   16    5   15     -1.00      0.00
   17    5   15      3.57      0.00
   18    5   15      5.18      0.00
  -12    6   15     -7.91      0.00
  -11    6   15     -6.42      0.00
  -10    6   15     -4.12      0.00
   -9    6   15     -3.76      0.00
   -8    6   15     -2.60      0.00
   -7    6   15      0.52      0.00
   -6    6   15      2.95      0.00
   -5    6   15     -4.23      0.00
   -4    6   15     -3.35      0.00
   -3    6   15     -1.16      0.00
   -2    6   15      0.12      0.00
   -1    6   15      2.45      0.00
    0    6   15      0.11      0.00
    1    6   15     -2.42      0.00
    2    6   15     -0.87      0.00
    3    6   15     -2.71      0.00
    4    6   15     -4.08      0.00
    5    6   15     -3.32      0.00
    6    6   15     -3.41      0.00
    7    6   15     -6.96      0.00
    8    6   15     -5.07      0.00
    9    6   15     -3.06      0.00
   10    6   15     -3.65      0.00
   12    6   15      0.62      0.00
   13    6   15      1.67      0.00
   14    6   15     -0.12      0.00
   15    6   15     -1.17      0.00
   16    6   15      4.49      0.00
   17    6   15      4.88      0.00
   18    6   15      3.23      0.00
  -11    7   15      1.20      0.00
  -10    7   15     -1.70      0.00
   -9    7   15     -0.90      0.00
   -8    7   15      0.63      0.00
   -7    7   15      2.56      0.00
   -6    7   15     -0.23      0.00
   -5    7   15      4.38      0.00
   -4    7   15      0.55      0.00
   -3    7   15     -2.04      0.00
   -2    7   15     -5.29      0.00
   -1    7   15     -7.63      0.00
    0    7   15     -5.47      0.00
    1    7   15     -0.01      0.00
    2    7   15      0.00      0.00
    3    7   15      2.62      0.00
    4    7   15      3.68      0.00
    5    7   15      3.59      0.00
    6    7   15     -0.13      0.00
    7    7   15      4.00      0.00
    8    7   15      4.29      0.00
    9    7   15      1.96      0.00
   10    7   15     -0.39      0.00
   11    7   15     -2.31      0.00
   12    7   15     -1.87      0.00
   13    7   15     -0.34      0.00
   14    7   15      1.35      0.00
   15    7   15      5.86      0.00
   16    7   15      3.09      0.00
   17    7   15      2.70      0.00
   18    7   15      2.42      0.00
   19    7   15     -0.15      0.00
  -11    8   15      3.03      0.00
  -10    8   15      3.15      0.00
   -9    8   15     -1.30      0.00
   -8    8   15     -0.30      0.00
   -7    8   15     -1.49      0.00
   -6    8   15      1.99      0.00
   -5    8   15     -1.33      0.00
   -4    8   15      1.84      0.00
   -3    8   15      3.16      0.00
   -2    8   15      1.81      0.00
   -1    8   15     -2.13      0.00
    0    8   15     -0.88      0.00
    1    8   15     -0.34      0.00
    2    8   15     -0.26      0.00
    3    8   15     -2.78      0.00
    4    8   15     -1.89      0.00
    5    8   15     -1.20      0.00
    6    8   15      2.71      0.00
    7    8   15     -2.41      0.00
    8    8   15     -5.70      0.00
    9    8   15     -4.31      0.00
   10    8   15     -2.30      0.00
   11    8   15     -4.91      0.00
   12    8   15     -1.07      0.00
   13    8   15      3.97      0.00
   14    8   15      2.19      0.00
   15    8   15     -5.34      0.00
   16    8   15     -2.44      0.00
   17    8   15     -1.37      0.00
   18    8   15     -2.44      0.00
   19    8   15     -4.71      0.00
  -10    9   15     -3.71      0.00
   -9    9   15      0.45      0.00
   -8    9   15     -2.80      0.00
   -7    9   15     -2.28      0.00
   -6    9   15     -2.00      0.00
   -5    9   15      4.39      0.00
   -4    9   15      6.80      0.00
   -3    9   15      1.43      0.00
   -2    9   15     -4.20      0.00
   -1    9   15      0.91      0.00
    0    9   15      4.27      0.00
    1    9   15      4.08      0.00
    2    9   15      4.19      0.00
    3    9   15      4.38      0.00
    4    9   15      3.76      0.00
    5    9   15      1.81      0.00
    6    9   15     -4.58      0.00
    7    9   15     -4.99      0.00
    8    9   15     -0.13      0.00
    9    9   15      0.10      0.00
   10    9   15     -4.56      0.00
   11    9   15      1.07      0.00
   12    9   15      2.95      0.00
   13    9   15     -2.43      0.00
   14    9   15     -2.07      0.00
   15    9   15      1.12      0.00
   16    9   15     -2.16      0.00
   17    9   15     -0.84      0.00
   18    9   15     -0.91      0.00
   19    9   15     -0.50      0.00
   -9   10   15     -6.88      0.00
   -8   10   15     -4.72      0.00
   -7   10   15     -2.98      0.00
   -6   10   15     -2.61      0.00
   -5   10   15     -1.61      0.00
   -4   10   15     -3.62      0.00
   -2   10   15      3.55      0.00
   -1   10   15      0.49      0.00
    0   10   15     -1.14      0.00
    1   10   15     -0.12      0.00
    2   10   15     -2.19      0.00
    3   10   15      0.01      0.00
    4   10   15      1.37      0.00
    5   10   15      0.96      0.00
    6   10   15     -0.49      0.00
    7   10   15      2.14      0.00
    8   10   15      3.20      0.00
    9   10   15      2.47      0.00
   10   10   15      5.21      0.00
   11   10   15      1.27      0.00
   12   10   15     -4.00      0.00
   13   10   15     -2.47      0.00
   14   10   15     -6.33      0.00
   15   10   15     -3.28      0.00
   16   10   15      5.13      0.00
   17   10   15      4.51      0.00
   18   10   15      3.59      0.00
   19   10   15      2.10      0.00
   -8   11   15      4.85      0.00
   -7   11   15      1.82      0.00
   -6   11   15      2.22      0.00
   -5   11   15     -3.64      0.00
   -4   11   15     -4.33      0.00
   -3   11   15     -1.57      0.00
   -1   11   15      3.55      0.00
    0   11   15      4.03      0.00
    1   11   15      0.36      0.00
    2   11   15      1.03      0.00
    3   11   15     -1.30      0.00
    4   11   15     -2.45      0.00
    5   11   15     -3.53      0.00
    6   11   15      0.24      0.00
    7   11   15     -0.21      0.00
    8   11   15     -5.12      0.00
    9   11   15     -4.21      0.00
   10   11   15     -1.85      0.00
   11   11   15      0.27      0.00
   12   11   15      3.71      0.00
   13   11   15      0.46      0.00
   14   11   15      3.68      0.00
   15   11   15     -0.39      0.00
   16   11   15     -5.60      0.00
   17   11   15     -2.53      0.00
   18   11   15     -3.53      0.00
   19   11   15     -5.92      0.00
   -8   12   15     -8.38      0.00
   -7   12   15     -6.72      0.00
   -6   12   15    -10.72      0.00
   -5   12   15     -5.31      0.00
   -4   12   15      2.37      0.00
   -3   12   15     -0.26      0.00
    0   12   15      2.36      0.00
    1   12   15      1.27      0.00
    2   12   15     -6.20      0.00
    3   12   15     -8.91      0.00
    4   12   15     -7.42      0.00
    5   12   15     -4.22      0.00
    6   12   15     -3.45      0.00
    7   12   15     -2.34      0.00
    8   12   15      6.74      0.00
    9   12   15      9.81      0.00
   10   12   15      5.48      0.00
   11   12   15      3.76      0.00
   12   12   15      2.79      0.00
   13   12   15      5.48      0.00
   14   12   15      0.09      0.00
   15   12   15     -1.89      0.00
   16   12   15     -0.58      0.00
   17   12   15     -1.66      0.00
   18   12   15      3.43      0.00
   19   12   15      5.40      0.00
   -7   13   15     -2.49      0.00
   -6   13   15      2.58      0.00
   -5   13   15      5.90      0.00
   -4   13   15     -3.11      0.00
   -3   13   15     -0.43      0.00
   -2   13   15     -3.00      0.00
    3   13   15      7.62      0.00
    4   13   15      3.13      0.00
    5   13   15     -0.26      0.00
    6   13   15     -1.06      0.00
    7   13   15      4.76      0.00
    8   13   15      2.84      0.00
    9   13   15     -1.50      0.00
   10   13   15     -0.19      0.00
   11   13   15      3.00      0.00
   12   13   15      3.57      0.00
   13   13   15     -1.04      0.00
   14   13   15     -2.76      0.00
   15   13   15     -1.57      0.00
   16   13   15      0.48      0.00
   17   13   15      5.85      0.00
   18   13   15      0.43      0.00
   19   13   15     -6.44      0.00
   -6   14   15     -1.87      0.00
   -5   14   15     -9.04      0.00
   -4   14   15      2.14      0.00
   -3   14   15      1.44      0.00
   -2   14   15      1.69      0.00
    4   14   15     -2.74      0.00
    5   14   15     -1.14      0.00
    6   14   15      5.68      0.00
    7   14   15      3.91      0.00
    8   14   15      0.60      0.00
    9   14   15      0.28      0.00
   10   14   15      1.37      0.00
   11   14   15     -1.59      0.00
   12   14   15     -2.46      0.00
   13   14   15     -0.38      0.00
   14   14   15     -0.47      0.00
   15   14   15     -4.88      0.00
   16   14   15     -5.56      0.00
   17   14   15     -8.00      0.00
   18   14   15     -5.14      0.00
   19   14   15     -2.29      0.00
   -5   15   15     11.21      0.00
   -4   15   15      3.35      0.00
   -3   15   15     -0.55      0.00
   -2   15   15     -3.35      0.00
   -1   15   15     -4.40      0.00
    4   15   15      1.29      0.00
    5   15   15      2.11      0.00
    6   15   15     -2.60      0.00
    7   15   15     -3.53      0.00
    8   15   15     -4.09      0.00
    9   15   15     -2.50      0.00
   10   15   15     -2.54      0.00
   11   15   15      0.86      0.00
   12   15   15      2.39      0.00
   13   15   15      0.41      0.00
   14   15   15      0.50      0.00
   15   15   15      4.05      0.00
   16   15   15      3.65      0.00
   17   15   15      1.15      0.00
   18   15   15     -4.49      0.00
   19   15   15     -3.04      0.00
   -4   16   15      2.65      0.00
   -3   16   15      3.97      0.00
   -2   16   15      3.08      0.00
   -1   16   15      5.08      0.00
    5   16   15     -4.05      0.00
    6   16   15      3.31      0.00
    7   16   15      3.11      0.00
    8   16   15      5.42      0.00
    9   16   15      4.81      0.00
   10   16   15      4.01      0.00
   11   16   15      3.88      0.00
   12   16   15      4.22      0.00
   13   16   15      7.00      0.00
   14   16   15      4.11      0.00
   15   16   15      1.43      0.00
   16   16   15      0.08      0.00
   17   16   15     -0.66      0.00
   18   16   15      1.55      0.00
   19   16   15      0.83      0.00
   -3   17   15      1.92      0.00
   -2   17   15      3.39      0.00
   -1   17   15     -4.66      0.00
    0   17   15     -8.16      0.00
    6   17   15     -5.39      0.00
    7   17   15     -3.50      0.00
    8   17   15     -5.29      0.00
    9   17   15     -2.74      0.00
   10   17   15      5.02      0.00
   11   17   15      7.36      0.00
   12   17   15      8.06      0.00
   13   17   15      3.33      0.00
   14   17   15      4.35      0.00
   15   17   15      2.62      0.00
   16   17   15      2.72      0.00
   17   17   15      3.21      0.00
   18   17   15      0.25      0.00
   19   17   15      0.23      0.00
   -1   18   15      1.06      0.00
    0   18   15     -0.43      0.00
    1   18   15      0.31      0.00
    7   18   15     -1.41      0.00
    8   18   15     -2.58      0.00
    9   18   15     -1.11      0.00
   10   18   15     -2.90      0.00
   11   18   15     -0.58      0.00
   12   18   15     -2.44      0.00
   13   18   15     -2.97      0.00
   14   18   15     -6.95      0.00
   15   18   15     -3.00      0.00
   16   18   15      1.63      0.00
   17   18   15      1.16      0.00
   18   18   15      0.89      0.00
    1   19   15      5.37      0.00
    7   19   15     -3.29      0.00
    8   19   15     -2.37      0.00
    9   19   15     -3.00      0.00
   10   19   15     -3.65      0.00
   11   19   15     -5.03      0.00
   12   19   15     -1.99      0.00
   13   19   15     -0.35      0.00
   14   19   15      2.84      0.00
   15   19   15      5.02      0.00
   16   19   15      2.90      0.00
   17   19   15      0.53      0.00
    8   20   15      0.75      0.00
    9   20   15      2.77      0.00
   10   20   15      7.51      0.00
   11   20   15      7.59      0.00
   12   20   15      2.29      0.00
   14   20   15      1.35      0.00
   15   20   15      1.58      0.00
   16   20   15      3.16      0.00
    9   21   15      4.45      0.00
   10   21   15      2.09      0.00
   11   21   15      1.47      0.00
   12   21   15     -0.37      0.00
   13   21   15     -2.34      0.00
   14   21   15     -6.85      0.00
   -5   -9   16      1.22      0.00
   -4   -9   16      1.59      0.00
   -3   -9   16     -0.27      0.00
   -2   -9   16     -0.16      0.00
   -8   -8   16     -7.72      0.00
   -7   -8   16     -4.62      0.00
   -6   -8   16      1.44      0.00
   -5   -8   16     -2.22      0.00
   -4   -8   16     -5.45      0.00
   -3   -8   16     -4.83      0.00
   -2   -8   16     -7.09      0.00
   -1   -8   16     -6.73      0.00
    0   -8   16      2.32      0.00
    1   -8   16      3.32      0.00
    2   -8   16     -3.63      0.00
   -9   -7   16     -1.96      0.00
   -8   -7   16      3.38      0.00
   -6   -7   16     -3.32      0.00
   -5   -7   16     -5.09      0.00
   -4   -7   16      4.17      0.00
   -3   -7   16      9.35      0.00
   -2   -7   16     11.51      0.00
   -1   -7   16     11.07      0.00
    0   -7   16     -0.87      0.00
    1   -7   16     -8.64      0.00
    2   -7   16     -1.55      0.00
    3   -7   16      3.77      0.00
    4   -7   16      2.44      0.00
   -9   -6   16     -7.35      0.00
   -8   -6   16     -5.70      0.00
   -7   -6   16     -4.14      0.00
   -6   -6   16      9.64      0.00
   -5   -6   16     18.70      0.00
   -4   -6   16      8.21      0.00
   -3   -6   16     -2.69      0.00
   -2   -6   16     -7.37      0.00
   -1   -6   16    -13.24      0.00
    0   -6   16     -9.71      0.00
    1   -6   16     -0.24      0.00
    2   -6   16     -1.69      0.00
    3   -6   16     -5.05      0.00
    4   -6   16     -0.27      0.00
    5   -6   16      1.48      0.00
    6   -6   16      2.42      0.00
  -10   -5   16     13.66      0.00
   -9   -5   16      9.07      0.00
   -8   -5   16      8.74      0.00
   -7   -5   16     10.69      0.00
   -6   -5   16      2.17      0.00
   -5   -5   16     -4.70      0.00
   -4   -5   16     -0.51      0.00
   -3   -5   16      0.28      0.00
   -2   -5   16     -5.08      0.00
   -1   -5   16     -2.44      0.00
    0   -5   16      0.66      0.00
    1   -5   16     -3.85      0.00
    2   -5   16     -1.72      0.00
    3   -5   16      4.21      0.00
    4   -5   16      3.13      0.00
    5   -5   16     -0.60      0.00
    6   -5   16      0.77      0.00
    7   -5   16      1.47      0.00
    8   -5   16      0.65      0.00
  -12   -4   16     -3.96      0.00
  -11   -4   16      6.79      0.00
  -10   -4   16      1.84      0.00
   -9   -4   16      2.29      0.00
   -8   -4   16      0.07      0.00
   -7   -4   16     -2.31      0.00
   -6   -4   16      4.06      0.00
   -5   -4   16      5.64      0.00
   -4   -4   16      2.78      0.00
   -3   -4   16      4.99      0.00
   -2   -4   16      9.32      0.00
   -1   -4   16      4.61      0.00
    0   -4   16     -2.32      0.00
    1   -4   16      1.34      0.00
    2   -4   16      4.59      0.00
    3   -4   16      4.29      0.00
    4   -4   16      1.17      0.00
    5   -4   16      3.46      0.00
    6   -4   16      3.22      0.00
    7   -4   16      2.57      0.00
    8   -4   16      3.75      0.00
    9   -4   16     -1.03      0.00
  -12   -3   16      5.29      0.00
  -11   -3   16     -4.93      0.00
  -10   -3   16     -2.84      0.00
   -9   -3   16      0.59      0.00
   -8   -3   16      4.63      0.00
   -7   -3   16      8.15      0.00
   -6   -3   16      1.96      0.00
   -5   -3   16     -1.95      0.00
   -4   -3   16     -2.79      0.00
   -3   -3   16     -4.49      0.00
   -2   -3   16     -6.51      0.00
   -1   -3   16     -4.74      0.00
    0   -3   16     -0.36      0.00
    1   -3   16     -2.27      0.00
    2   -3   16     -2.79      0.00
    3   -3   16     -3.76      0.00
    4   -3   16     -0.19      0.00
    5   -3   16     -1.28      0.00
    6   -3   16      0.15      0.00
    7   -3   16      6.19      0.00
    8   -3   16      4.54      0.00
    9   -3   16      3.16      0.00
   10   -3   16      5.28      0.00
   11   -3   16      1.66      0.00
  -12   -2   16    -15.69      0.00
  -11   -2   16     -7.88      0.00
  -10   -2   16     -2.09      0.00
   -9   -2   16      0.07      0.00
   -8   -2   16      3.18      0.00
   -7   -2   16      1.61      0.00
   -6   -2   16     -0.01      0.00
   -5   -2   16      0.08      0.00
   -4   -2   16      0.72      0.00
   -3   -2   16     -0.83      0.00
   -2   -2   16     -0.24      0.00
   -1   -2   16      2.53      0.00
    0   -2   16      0.43      0.00
    1   -2   16      0.76      0.00
    2   -2   16     -1.05      0.00
    3   -2   16     -2.62      0.00
    4   -2   16     -6.81      0.00
    5   -2   16     -3.21      0.00
    6   -2   16      4.65      0.00
    7   -2   16      1.80      0.00
    8   -2   16     -3.30      0.00
    9   -2   16     -8.53      0.00
   10   -2   16     -9.10      0.00
   11   -2   16     -4.47      0.00
   12   -2   16     -0.78      0.00
  -12   -1   16      5.84      0.00
  -11   -1   16      4.76      0.00
  -10   -1   16      1.33      0.00
   -9   -1   16      2.52      0.00
   -8   -1   16      1.21      0.00
   -7   -1   16     -0.99      0.00
   -6   -1   16     -0.12      0.00
   -5   -1   16     -3.31      0.00
   -4   -1   16     -7.28      0.00
   -3   -1   16     -2.74      0.00
   -2   -1   16      0.89      0.00
   -1   -1   16     -3.31      0.00
    0   -1   16     -2.86      0.00
    1   -1   16     -1.79      0.00
    2   -1   16     -0.20      0.00
    3   -1   16     -0.15      0.00
    4   -1   16      1.30      0.00
    5   -1   16      1.32      0.00
    6   -1   16     -1.13      0.00
    7   -1   16      0.28      0.00
    8   -1   16     -0.20      0.00
    9   -1   16      1.45      0.00
   10   -1   16     -0.48      0.00
   11   -1   16      1.34      0.00
   12   -1   16      4.05      0.00
   13   -1   16      4.71      0.00
  -12    0   16     -2.72      0.00
  -11    0   16     -3.38      0.00
  -10    0   16     -3.15      0.00
   -9    0   16     -3.98      0.00
   -8    0   16     -4.73      0.00
   -7    0   16     -2.63      0.00
   -6    0   16     -4.65      0.00
   -5    0   16     -3.64      0.00
   -4    0   16      0.94      0.00
   -3    0   16     -2.05      0.00
   -2    0   16     -6.06      0.00
   -1    0   16     -1.53      0.00
    0    0   16      0.41      0.00
    1    0   16     -0.09      0.00
    2    0   16     -0.83      0.00
    3    0   16     -0.57      0.00
    4    0   16     -1.69      0.00
    5    0   16     -0.52      0.00
    6    0   16      2.81      0.00
    7    0   16      2.61      0.00
    8    0   16      2.15      0.00
    9    0   16     -1.09      0.00
   10    0   16      5.04      0.00
   11    0   16      7.30      0.00
   12    0   16      5.98      0.00
   13    0   16      4.77      0.00
   14    0   16      3.77      0.00
  -12    1   16    -12.68      0.00
  -11    1   16    -13.46      0.00
  -10    1   16     -7.06      0.00
   -9    1   16     -5.36      0.00
   -8    1   16     -3.29      0.00
   -7    1   16     -2.41      0.00
   -6    1   16      1.01      0.00
   -5    1   16      3.65      0.00
   -4    1   16      0.21      0.00
   -3    1   16      0.89      0.00
   -2    1   16      5.88      0.00
   -1    1   16      4.28      0.00
    0    1   16      0.00      0.00
    1    1   16     -1.77      0.00
    2    1   16     -1.00      0.00
    3    1   16     -2.91      0.00
    4    1   16     -2.22      0.00
    5    1   16     -0.50      0.00
    6    1   16      1.27      0.00
    7    1   16      5.07      0.00
    8    1   16      4.71      0.00
    9    1   16      3.93      0.00
   10    1   16     -2.71      0.00
   11    1   16     -2.24      0.00
   12    1   16      1.23      0.00
   13    1   16      0.70      0.00
   14    1   16      1.67      0.00
  -12    2   16      8.38      0.00
  -11    2   16      6.02      0.00
   -9    2   16     -9.40      0.00
   -8    2   16     -5.35      0.00
   -7    2   16     -0.99      0.00
   -6    2   16      2.73      0.00
   -5    2   16      0.54      0.00
   -4    2   16     -0.88      0.00
   -3    2   16     -2.06      0.00
   -2    2   16     -3.32      0.00
   -1    2   16     -0.94      0.00
    0    2   16      0.78      0.00
    1    2   16      1.61      0.00
    2    2   16      1.25      0.00
    3    2   16      4.06      0.00
    4    2   16      2.84      0.00
    5    2   16      0.02      0.00
    6    2   16     -1.46      0.00
    7    2   16     -7.12      0.00
    8    2   16     -8.51      0.00
    9    2   16     -4.10      0.00
   10    2   16      3.41      0.00
   11    2   16      2.96      0.00
   12    2   16      1.91      0.00
   13    2   16      3.63      0.00
   14    2   16     -0.30      0.00
   15    2   16     -2.42      0.00
  -12    3   16     -3.14      0.00
  -11    3   16     -4.99      0.00
  -10    3   16      6.66      0.00
   -9    3   16      6.60      0.00
   -8    3   16      2.98      0.00
   -7    3   16      2.41      0.00
   -6    3   16     -1.72      0.00
   -5    3   16     -5.01      0.00
   -4    3   16     -6.62      0.00
   -3    3   16     -3.29      0.00
   -2    3   16      0.36      0.00
   -1    3   16     -2.75      0.00
    0    3   16     -0.92      0.00
    1    3   16      1.12      0.00
    2    3   16      0.39      0.00
    3    3   16     -4.79      0.00
    4    3   16     -4.69      0.00
    5    3   16     -1.98      0.00
    6    3   16     -2.87      0.00
    7    3   16     -0.30      0.00
    8    3   16      0.99      0.00
    9    3   16     -2.87      0.00
   10    3   16     -4.88      0.00
   11    3   16      0.13      0.00
   12    3   16     -0.75      0.00
   13    3   16     -5.93      0.00
   14    3   16     -1.76      0.00
   15    3   16      1.22      0.00
   16    3   16      2.67      0.00
  -12    4   16      9.84      0.00
  -11    4   16      8.84      0.00
  -10    4   16     -4.04      0.00
   -9    4   16     -7.55      0.00
   -8    4   16     -5.17      0.00
   -7    4   16     -3.88      0.00
   -6    4   16     -3.83      0.00
   -5    4   16     -4.82      0.00
   -4    4   16     -2.83      0.00
   -3    4   16     -1.90      0.00
   -2    4   16     -1.69      0.00
   -1    4   16      4.85      0.00
    0    4   16      0.82      0.00
    1    4   16     -2.73      0.00
    2    4   16     -1.15      0.00
    3    4   16      4.19      0.00
    4    4   16      3.24      0.00
    5    4   16     -0.03      0.00
    6    4   16      1.51      0.00
    7    4   16      3.23      0.00
    8    4   16      2.88      0.00
    9    4   16      4.17      0.00
   10    4   16      1.93      0.00
   11    4   16     -4.42      0.00
   12    4   16     -5.29      0.00
   13    4   16      0.13      0.00
   14    4   16     -1.01      0.00
   15    4   16      1.94      0.00
   16    4   16      1.37      0.00
  -11    5   16     -5.93      0.00
  -10    5   16     -1.72      0.00
   -9    5   16      2.58      0.00
   -8    5   16      6.47      0.00
   -7    5   16      5.98      0.00
   -6    5   16      5.36      0.00
   -5    5   16      4.76      0.00
   -4    5   16      1.28      0.00
   -3    5   16     -0.11      0.00
   -2    5   16     -0.50      0.00
   -1    5   16     -6.49      0.00
    0    5   16     -1.51      0.00
    1    5   16      1.57      0.00
    2    5   16      1.65      0.00
    3    5   16      0.75      0.00
    4    5   16      3.79      0.00
    5    5   16      6.20      0.00
    6    5   16      5.15      0.00
    7    5   16      2.85      0.00
    8    5   16      4.32      0.00
    9    5   16      2.72      0.00
   10    5   16     -1.60      0.00
   11    5   16     -6.44      0.00
   12    5   16     -5.55      0.00
   13    5   16     -5.01      0.00
   14    5   16      2.50      0.00
   15    5   16      2.25      0.00
   16    5   16      2.36      0.00
   17    5   16      4.07      0.00
  -11    6   16     12.54      0.00
  -10    6   16      8.96      0.00
   -9    6   16      3.69      0.00
   -8    6   16     -2.46      0.00
   -7    6   16     -3.00      0.00
   -6    6   16     -5.10      0.00
   -5    6   16     -5.86      0.00
   -4    6   16     -0.61      0.00
   -3    6   16      0.13      0.00
   -2    6   16      0.59      0.00
   -1    6   16      4.29      0.00
    0    6   16      1.05      0.00
    1    6   16      1.77      0.00
    2    6   16      3.94      0.00
    3    6   16      4.34      0.00
    4    6   16      2.94      0.00
    5    6   16      1.60      0.00
    6    6   16      2.85      0.00
    7    6   16      6.74      0.00
    8    6   16      5.31      0.00
    9    6   16      1.91      0.00
   10    6   16      1.85      0.00
   11    6   16      6.08      0.00
   12    6   16      0.99      0.00
   13    6   16     -1.00      0.00
   14    6   16     -4.98      0.00
   15    6   16     -3.95      0.00
   16    6   16     -4.82      0.00
   17    6   16     -7.92      0.00
   18    6   16     -5.84      0.00
  -10    7   16      1.90      0.00
   -9    7   16      3.24      0.00
   -8    7   16      3.24      0.00
   -7    7   16      0.62      0.00
   -6    7   16      2.10      0.00
   -5    7   16      4.28      0.00
   -4    7   16     -3.31      0.00
   -3    7   16     -2.57      0.00
   -2    7   16      0.65      0.00
   -1    7   16      5.16      0.00
    0    7   16      7.85      0.00
    1    7   16      3.09      0.00
    2    7   16     -2.57      0.00
    3    7   16     -2.41      0.00
    4    7   16     -3.27      0.00
    5    7   16     -2.85      0.00
    6    7   16     -1.82      0.00
    7    7   16     -0.55      0.00
    8    7   16      0.96      0.00
    9    7   16      4.71      0.00
   10    7   16      6.13      0.00
   11    7   16      1.45      0.00
   12    7   16      2.40      0.00
   13    7   16      3.79      0.00
   14    7   16      7.23      0.00
   15    7   16      5.52      0.00
   16    7   16      0.76      0.00
   17    7   16     -0.46      0.00
   18    7   16     -1.19      0.00
  -10    8   16     -2.35      0.00
   -9    8   16     -2.33      0.00
   -8    8   16      0.04      0.00
   -7    8   16     -0.08      0.00
   -6    8   16     -1.86      0.00
   -5    8   16     -6.59      0.00
   -4    8   16      1.31      0.00
   -3    8   16      4.91      0.00
   -2    8   16      8.53      0.00
   -1    8   16      4.70      0.00
    0    8   16      0.41      0.00
    1    8   16     -1.55      0.00
    2    8   16      0.96      0.00
    3    8   16     -0.23      0.00
    4    8   16     -0.77      0.00
    5    8   16     -2.61      0.00
    6    8   16     -1.79      0.00
    7    8   16     -3.31      0.00
    8    8   16     -0.40      0.00
    9    8   16      3.33      0.00
   10    8   16      4.05      0.00
   12    8   16     -2.37      0.00
   13    8   16     -5.62      0.00
   14    8   16     -8.51      0.00
   15    8   16     -6.97      0.00
   16    8   16     -2.90      0.00
   17    8   16     -2.99      0.00
   18    8   16     -0.42      0.00
   -9    9   16      5.06      0.00
   -8    9   16     -0.15      0.00
   -7    9   16      0.57      0.00
   -6    9   16     -1.51      0.00
   -5    9   16      0.33      0.00
   -4    9   16     -3.14      0.00
   -3    9   16     -0.35      0.00
   -2    9   16      2.04      0.00
   -1    9   16      4.94      0.00
    0    9   16      2.16      0.00
    1    9   16      3.81      0.00
    2    9   16      4.26      0.00
    3    9   16      1.95      0.00
    4    9   16     -1.85      0.00
    5    9   16     -1.97      0.00
    6    9   16     -4.65      0.00
    7    9   16     -3.89      0.00
    8    9   16     -2.87      0.00
    9    9   16     -2.07      0.00
   10    9   16     -0.91      0.00
   11    9   16      1.75      0.00
   12    9   16     -2.50      0.00
   13    9   16     -0.92      0.00
   14    9   16      3.98      0.00
   15    9   16     -1.53      0.00
   16    9   16     -7.90      0.00
   17    9   16     -2.01      0.00
   18    9   16      2.44      0.00
   -9   10   16     -3.29      0.00
   -8   10   16     -1.40      0.00
   -7   10   16     -4.13      0.00
   -6   10   16     -2.03      0.00
   -5   10   16      1.05      0.00
   -4   10   16      5.43      0.00
   -2   10   16      1.13      0.00
   -1   10   16     -5.47      0.00
    0   10   16     -2.93      0.00
    1   10   16     -2.19      0.00
    2   10   16     -3.70      0.00
    3   10   16     -1.84      0.00
    4   10   16      0.66      0.00
    5   10   16      1.51      0.00
    6   10   16      3.51      0.00
    7   10   16      6.06      0.00
    8   10   16      5.82      0.00
    9   10   16      5.87      0.00
   10   10   16      4.58      0.00
   11   10   16     -0.91      0.00
   12   10   16      3.40      0.00
   13   10   16      5.96      0.00
   14   10   16     -1.65      0.00
   15   10   16     -1.36      0.00
   16   10   16     -1.64      0.00
   17   10   16     -5.68      0.00
   18   10   16     -3.38      0.00
   -8   11   16     -0.41      0.00
   -7   11   16     -0.11      0.00
   -6   11   16      1.80      0.00
   -5   11   16      1.19      0.00
   -4   11   16      3.95      0.00
   -3   11   16      3.86      0.00
   -1   11   16      0.07      0.00
    0   11   16     -4.25      0.00
    1   11   16     -2.89      0.00
    2   11   16      1.12      0.00
    3   11   16     -0.77      0.00
    4   11   16     -0.91      0.00
    5   11   16      0.74      0.00
    6   11   16      3.00      0.00
    7   11   16     -1.82      0.00
    8   11   16     -1.95      0.00
    9   11   16      0.87      0.00
   10   11   16      0.88      0.00
   11   11   16      2.15      0.00
   12   11   16      0.40      0.00
   13   11   16     -5.34      0.00
   14   11   16     -3.09      0.00
   15   11   16     -7.79      0.00
   16   11   16     -2.87      0.00
   17   11   16      4.47      0.00
   18   11   16      2.07      0.00
   19   11   16      2.08      0.00
   -7   12   16      2.86      0.00
   -6   12   16      0.74      0.00
   -5   12   16      4.85      0.00
   -4   12   16      3.35      0.00
   -3   12   16     -1.03      0.00
    0   12   16     -0.41      0.00
    1   12   16     -0.19      0.00
    2   12   16     -1.91      0.00
    3   12   16      2.58      0.00
    4   12   16      3.90      0.00
    5   12   16      1.45      0.00
    6   12   16     -4.48      0.00
    7   12   16     -0.35      0.00
    8   12   16      4.42      0.00
    9   12   16      1.36      0.00
   10   12   16     -1.88      0.00
   11   12   16     -2.01      0.00
   12   12   16     -3.22      0.00
   13   12   16      2.15      0.00
   14   12   16     -0.06      0.00
   15   12   16      3.43      0.00
   16   12   16     -1.22      0.00
   17   12   16     -4.39      0.00
   18   12   16      3.23      0.00
   19   12   16      3.43      0.00
   -6   13   16      3.80      0.00
   -5   13   16      2.09      0.00
   -4   13   16     -1.16      0.00
   -3   13   16      0.28      0.00
    2   13   16      2.88      0.00
    3   13   16     -1.55      0.00
    4   13   16     -4.56      0.00
    5   13   16     -3.32      0.00
    6   13   16      0.79      0.00
    7   13   16      0.27      0.00
    8   13   16     -4.43      0.00
    9   13   16     -1.96      0.00
   10   13   16      2.61      0.00
   11   13   16      1.00      0.00
   12   13   16      0.98      0.00
   13   13   16     -2.54      0.00
   14   13   16      1.32      0.00
   15   13   16     -0.10      0.00
   16   13   16     -2.21      0.00
   17   13   16     -2.27      0.00
   18   13   16     -6.17      0.00
   19   13   16     -1.72      0.00
   -5   14   16     -6.98      0.00
   -4   14   16     -1.08      0.00
   -3   14   16     -3.12      0.00
   -2   14   16      2.96      0.00
    4   14   16      4.71      0.00
    5   14   16      4.50      0.00
    6   14   16      0.38      0.00
    7   14   16     -3.69      0.00
    8   14   16      0.60      0.00
    9   14   16      2.31      0.00
   10   14   16     -0.85      0.00
   11   14   16     -0.53      0.00
   12   14   16      3.41      0.00
   13   14   16      8.52      0.00
   14   14   16      4.37      0.00
   15   14   16     -2.20      0.00
   16   14   16     -1.11      0.00
   17   14   16      1.74      0.00
   18   14   16      8.91      0.00
   19   14   16      6.63      0.00
   -4   15   16      1.53      0.00
   -3   15   16      7.34      0.00
   -2   15   16      1.79      0.00
   -1   15   16     -2.06      0.00
    4   15   16      2.85      0.00
    5   15   16     -4.72      0.00
    6   15   16     -6.87      0.00
    7   15   16     -1.09      0.00
    8   15   16     -2.65      0.00
    9   15   16     -6.70      0.00
   10   15   16     -6.86      0.00
   11   15   16     -2.00      0.00
   12   15   16     -1.17      0.00
   13   15   16     -2.41      0.00
   14   15   16     -2.10      0.00
   15   15   16     -1.03      0.00
   16   15   16     -4.11      0.00
   17   15   16     -1.71      0.00
   18   15   16     -1.02      0.00
   19   15   16     -0.73      0.00
   -3   16   16     -7.52      0.00
   -2   16   16     -7.15      0.00
   -1   16   16     -1.03      0.00
    5   16   16      2.14      0.00
    6   16   16      6.30      0.00
    7   16   16      3.04      0.00
    8   16   16      2.17      0.00
    9   16   16     -1.77      0.00
   10   16   16     -4.13      0.00
   11   16   16     -8.01      0.00
   12   16   16     -7.40      0.00
   13   16   16     -7.59      0.00
   14   16   16     -9.92      0.00
   15   16   16     -7.68      0.00
   16   16   16     -0.07      0.00
   17   16   16      5.13      0.00
   18   16   16      6.03      0.00
   -2   17   16      4.56      0.00
   -1   17   16      0.40      0.00
    0   17   16      0.86      0.00
    6   17   16     -1.98      0.00
    7   17   16      3.23      0.00
    8   17   16     -1.09      0.00
    9   17   16     -2.28      0.00
   10   17   16     -5.17      0.00
   11   17   16     -5.46      0.00
   12   17   16     -3.51      0.00
   13   17   16      0.43      0.00
   14   17   16      7.26      0.00
   15   17   16      4.59      0.00
   16   17   16      0.88      0.00
   17   17   16     -0.93      0.00
   18   17   16     -1.62      0.00
    0   18   16      6.11      0.00
    7   18   16     -2.60      0.00
    8   18   16      3.87      0.00
    9   18   16      3.66      0.00
   10   18   16      3.71      0.00
   11   18   16      3.61      0.00
   12   18   16      0.56      0.00
   13   18   16      1.04      0.00
   14   18   16     -3.91      0.00
   15   18   16     -3.88      0.00
   16   18   16     -3.66      0.00
   17   18   16     -1.26      0.00
    1   19   16     -0.16      0.00
    7   19   16      4.43      0.00
    8   19   16     -1.53      0.00
    9   19   16     -1.04      0.00
   10   19   16     -1.40      0.00
   11   19   16     -1.37      0.00
   12   19   16      4.19      0.00
   13   19   16      2.48      0.00
   14   19   16      1.00      0.00
   15   19   16     -0.23      0.00
   16   19   16      1.71      0.00
   17   19   16      1.87      0.00
    8   20   16     -3.31      0.00
    9   20   16     -6.21      0.00
   10   20   16     -5.22      0.00
   11   20   16     -3.20      0.00
   12   20   16     -3.45      0.00
   13   20   16      0.58      0.00
   14   20   16      3.28      0.00
   15   20   16      0.53      0.00
    9   21   16      0.03      0.00
   10   21   16     -1.50      0.00
   11   21   16     -0.11      0.00
   12   21   16      2.99      0.00
   13   21   16      3.11      0.00
   -7   -7   17     -3.18      0.00
   -6   -7   17    -10.49      0.00
   -5   -7   17     -9.06      0.00
   -4   -7   17     -7.43      0.00
   -3   -7   17    -10.51      0.00
   -2   -7   17     -8.51      0.00
   -1   -7   17     -6.79      0.00
    0   -7   17     -5.64      0.00
    1   -7   17      4.38      0.00
    2   -7   17      8.72      0.00
   -8   -6   17      5.88      0.00
   -7   -6   17      5.68      0.00
   -6   -6   17      7.04      0.00
   -5   -6   17     -0.61      0.00
   -4   -6   17     -8.95      0.00
   -3   -6   17     -2.08      0.00
   -2   -6   17      4.44      0.00
   -1   -6   17      5.36      0.00
    0   -6   17      8.86      0.00
    1   -6   17      2.97      0.00
    2   -6   17     -5.51      0.00
    3   -6   17     -3.50      0.00
    4   -6   17      1.59      0.00
   -8   -5   17      2.29      0.00
   -7   -5   17      1.47      0.00
   -6   -5   17     -1.23      0.00
   -5   -5   17      5.01      0.00
   -4   -5   17     11.68      0.00
   -3   -5   17      3.30      0.00
   -2   -5   17     -4.37      0.00
   -1   -5   17     -0.50      0.00
    0   -5   17     -2.79      0.00
    1   -5   17     -4.91      0.00
    2   -5   17     -0.11      0.00
    3   -5   17     -0.20      0.00
    4   -5   17     -3.30      0.00
    5   -5   17     -2.17      0.00
    6   -5   17     -2.11      0.00
  -10   -4   17      0.33      0.00
   -9   -4   17      5.49      0.00
   -8   -4   17      0.54      0.00
   -7   -4   17      2.72      0.00
   -6   -4   17      4.37      0.00
   -5   -4   17     -4.66      0.00
   -4   -4   17    -10.17      0.00
   -3   -4   17     -4.29      0.00
   -1   -4   17     -4.59      0.00
    0   -4   17     -3.69      0.00
    1   -4   17      1.94      0.00
    2   -4   17     -3.17      0.00
    3   -4   17     -7.77      0.00
    4   -4   17     -6.85      0.00
    5   -4   17     -2.20      0.00
    6   -4   17     -0.24      0.00
    7   -4   17      3.21      0.00
    8   -4   17      4.39      0.00
  -11   -3   17     -1.63      0.00
  -10   -3   17      4.00      0.00
   -9   -3   17      1.86      0.00
   -8   -3   17      3.60      0.00
   -7   -3   17     -0.76      0.00
   -6   -3   17     -5.90      0.00
   -5   -3   17     -0.34      0.00
   -4   -3   17      1.93      0.00
   -3   -3   17     -0.11      0.00
   -2   -3   17     -0.07      0.00
   -1   -3   17      6.49      0.00
    0   -3   17      7.68      0.00
    1   -3   17     -2.01      0.00
    2   -3   17     -4.40      0.00
    3   -3   17     -2.58      0.00
    4   -3   17      1.88      0.00
    5   -3   17      0.47      0.00
    6   -3   17      2.49      0.00
    7   -3   17      0.81      0.00
    8   -3   17     -6.06      0.00
    9   -3   17     -7.05      0.00
  -11   -2   17      8.27      0.00
  -10   -2   17      4.27      0.00
   -9   -2   17      3.30      0.00
   -8   -2   17      2.29      0.00
   -7   -2   17      2.17      0.00
   -6   -2   17      5.83      0.00
   -5   -2   17      4.06      0.00
   -4   -2   17      0.72      0.00
   -3   -2   17     -1.10      0.00
   -2   -2   17      3.46      0.00
   -1   -2   17      6.90      0.00
    0   -2   17      3.86      0.00
    1   -2   17      2.17      0.00
    2   -2   17     -4.24      0.00
    3   -2   17     -5.48      0.00
    4   -2   17     -3.57      0.00
    5   -2   17      2.17      0.00
    6   -2   17     -1.86      0.00
    7   -2   17     -8.11      0.00
    8   -2   17     -3.78      0.00
    9   -2   17     -0.13      0.00
   10   -2   17      1.86      0.00
   11   -2   17      4.56      0.00
  -11   -1   17     -4.24      0.00
  -10   -1   17     -6.02      0.00
   -9   -1   17     -6.62      0.00
   -8   -1   17     -7.08      0.00
   -7   -1   17      0.33      0.00
   -6   -1   17      5.85      0.00
   -5   -1   17      2.69      0.00
   -4   -1   17     -0.06      0.00
   -3   -1   17      2.69      0.00
   -2   -1   17      0.70      0.00
   -1   -1   17     -2.27      0.00
    0   -1   17      0.71      0.00
    1   -1   17     -0.76      0.00
    2   -1   17     -0.25      0.00
    3   -1   17      0.63      0.00
    4   -1   17      1.94      0.00
    5   -1   17      0.93      0.00
    6   -1   17      4.62      0.00
    7   -1   17     10.87      0.00
    8   -1   17      7.22      0.00
    9   -1   17      0.30      0.00
   10   -1   17     -5.06      0.00
   11   -1   17     -2.97      0.00
   12   -1   17      1.18      0.00
  -11    0   17      7.65      0.00
  -10    0   17      9.25      0.00
   -9    0   17      7.43      0.00
   -8    0   17      9.29      0.00
   -7    0   17      8.94      0.00
   -6    0   17      2.23      0.00
   -5    0   17      0.06      0.00
   -4    0   17     -2.82      0.00
   -3    0   17     -9.29      0.00
   -2    0   17     -5.79      0.00
   -1    0   17      3.13      0.00
    0    0   17      2.71      0.00
    1    0   17     -0.62      0.00
    2    0   17     -2.51      0.00
    3    0   17     -0.23      0.00
    4    0   17      2.44      0.00
    5    0   17      2.42      0.00
    6    0   17     -1.82      0.00
    7    0   17     -5.46      0.00
    8    0   17     -3.37      0.00
    9    0   17      0.26      0.00
   10    0   17      5.72      0.00
   11    0   17      0.92      0.00
   12    0   17     -3.70      0.00
   13    0   17     -4.97      0.00
  -11    1   17      6.92      0.00
  -10    1   17      8.63      0.00
   -9    1   17      7.23      0.00
   -8    1   17      5.97      0.00
   -7    1   17     -1.04      0.00
   -6    1   17     -4.48      0.00
   -5    1   17     -5.50      0.00
   -4    1   17     -2.73      0.00
   -3    1   17      6.32      0.00
   -2    1   17      8.01      0.00
   -1    1   17      0.94      0.00
    0    1   17     -2.57      0.00
    1    1   17     -0.09      0.00
    2    1   17      3.57      0.00
    3    1   17      4.03      0.00
    4    1   17      3.17      0.00
    5    1   17      0.12      0.00
    6    1   17      1.13      0.00
    7    1   17      3.65      0.00
    8    1   17      3.55      0.00
    9    1   17      1.75      0.00
   10    1   17     -4.59      0.00
   11    1   17     -1.43      0.00
   12    1   17     -0.34      0.00
   13    1   17     -1.15      0.00
   14    1   17     -2.22      0.00
  -11    2   17     -8.41      0.00
  -10    2   17    -11.73      0.00
   -9    2   17     -3.40      0.00
   -8    2   17     -4.02      0.00
   -7    2   17     -4.35      0.00
   -6    2   17     -2.43      0.00
   -5    2   17      0.14      0.00
   -4    2   17      4.11      0.00
   -3    2   17      0.24      0.00
   -2    2   17     -2.93      0.00
   -1    2   17     -0.59      0.00
    0    2   17      0.54      0.00
    1    2   17     -2.07      0.00
    2    2   17     -2.91      0.00
    3    2   17      0.85      0.00
    4    2   17     -0.53      0.00
    5    2   17     -0.43      0.00
    6    2   17     -1.21      0.00
    7    2   17     -1.04      0.00
    8    2   17      2.82      0.00
    9    2   17      3.20      0.00
   10    2   17      1.10      0.00
   11    2   17     -7.67      0.00
   12    2   17     -9.17      0.00
   13    2   17     -7.78      0.00
   14    2   17     -7.97      0.00
  -11    3   17      7.48      0.00
  -10    3   17     11.64      0.00
   -9    3   17     -0.26      0.00
   -8    3   17     -3.01      0.00
   -7    3   17     -0.10      0.00
   -6    3   17      2.35      0.00
   -5    3   17      5.41      0.00
   -4    3   17      2.69      0.00
   -3    3   17      3.52      0.00
   -2    3   17      4.40      0.00
   -1    3   17      3.57      0.00
    0    3   17      4.91      0.00
    1    3   17      3.37      0.00
    2    3   17     -0.62      0.00
    3    3   17     -6.47      0.00
    4    3   17     -3.57      0.00
    5    3   17     -1.63      0.00
    6    3   17      1.28      0.00
    7    3   17      5.81      0.00
    8    3   17      2.52      0.00
    9    3   17     -0.22      0.00
   10    3   17      1.33      0.00
   11    3   17      5.23      0.00
   12    3   17      1.51      0.00
   13    3   17      1.57      0.00
   14    3   17      6.66      0.00
   15    3   17      4.52      0.00
  -11    4   17     -2.87      0.00
  -10    4   17     -7.74      0.00
   -9    4   17      0.97      0.00
   -7    4   17      6.00      0.00
   -6    4   17      5.79      0.00
   -5    4   17      5.59      0.00
   -4    4   17      7.07      0.00
   -3    4   17      3.29      0.00
   -2    4   17      1.85      0.00
   -1    4   17      3.67      0.00
    0    4   17     -2.52      0.00
    1    4   17     -3.32      0.00
    2    4   17     -1.17      0.00
    3    4   17      2.17      0.00
    4    4   17     -1.52      0.00
    5    4   17     -0.24      0.00
    6    4   17      4.03      0.00
    7    4   17      2.32      0.00
    8    4   17      2.86      0.00
    9    4   17      2.78      0.00
   10    4   17      0.06      0.00
   11    4   17     -0.77      0.00
   12    4   17      3.91      0.00
   13    4   17      0.59      0.00
   14    4   17     -7.78      0.00
   15    4   17     -5.00      0.00
   16    4   17     -1.13      0.00
  -11    5   17      3.05      0.00
  -10    5   17     12.25      0.00
   -9    5   17      8.55      0.00
   -8    5   17      1.35      0.00
   -7    5   17     -4.18      0.00
   -6    5   17      0.94      0.00
   -5    5   17      3.24      0.00
   -4    5   17     -0.86      0.00
   -3    5   17     -2.06      0.00
   -2    5   17     -0.72      0.00
   -1    5   17     -0.49      0.00
    0    5   17      7.47      0.00
    1    5   17      5.95      0.00
    2    5   17      2.77      0.00
    3    5   17     -1.71      0.00
    4    5   17      0.27      0.00
    5    5   17     -0.41      0.00
    6    5   17     -4.36      0.00
    7    5   17     -3.03      0.00
    8    5   17     -0.28      0.00
    9    5   17     -0.07      0.00
   10    5   17      0.67      0.00
   11    5   17      1.46      0.00
   12    5   17      2.37      0.00
   13    5   17      5.36      0.00
   14    5   17      9.78      0.00
   15    5   17      3.01      0.00
   16    5   17     -0.57      0.00
  -10    6   17     -2.19      0.00
   -9    6   17     -2.21      0.00
   -8    6   17     -0.95      0.00
   -7    6   17      7.17      0.00
   -6    6   17      4.15      0.00
   -5    6   17      1.76      0.00
   -4    6   17      1.09      0.00
   -3    6   17      1.15      0.00
   -2    6   17      2.29      0.00
   -1    6   17      3.09      0.00
    0    6   17     -1.56      0.00
    1    6   17      2.26      0.00
    2    6   17      1.35      0.00
    3    6   17      0.94      0.00
    4    6   17     -1.46      0.00
    5    6   17     -1.04      0.00
    6    6   17      2.88      0.00
    7    6   17      3.73      0.00
    8    6   17     -0.28      0.00
    9    6   17      1.17      0.00
   10    6   17      3.86      0.00
   11    6   17      3.73      0.00
   12    6   17     -1.95      0.00
   13    6   17     -1.87      0.00
   14    6   17     -2.68      0.00
   15    6   17      3.98      0.00
   16    6   17      5.19      0.00
   17    6   17      3.27      0.00
  -10    7   17      4.08      0.00
   -9    7   17      0.48      0.00
   -8    7   17      2.41      0.00
   -7    7   17     -2.43      0.00
   -6    7   17     -2.02      0.00
   -5    7   17     -4.28      0.00
   -4    7   17     -2.71      0.00
   -3    7   17      2.00      0.00
   -2    7   17     -0.07      0.00
   -1    7   17     -1.07      0.00
    0    7   17      1.06      0.00
    1    7   17     -1.75      0.00
    2    7   17      0.55      0.00
    3    7   17      1.26      0.00
    4    7   17      0.20      0.00
    5    7   17     -0.73      0.00
    6    7   17     -2.66      0.00
    7    7   17     -1.87      0.00
    8    7   17      3.43      0.00
    9    7   17      0.13      0.00
   10    7   17     -5.88      0.00
   11    7   17     -4.94      0.00
   12    7   17      5.21      0.00
   13    7   17      4.47      0.00
   14    7   17      2.67      0.00
   15    7   17     -2.31      0.00
   16    7   17     -3.16      0.00
   17    7   17     -3.76      0.00
   -9    8   17      8.30      0.00
   -8    8   17      3.18      0.00
   -7    8   17     -1.05      0.00
   -6    8   17     -2.88      0.00
   -5    8   17      1.65      0.00
   -4    8   17      3.78      0.00
   -3    8   17     -4.70      0.00
   -2    8   17     -5.54      0.00
   -1    8   17     -4.54      0.00
    0    8   17      0.21      0.00
    1    8   17      4.70      0.00
    2    8   17      4.13      0.00
    3    8   17      2.28      0.00
    4    8   17      3.39      0.00
    5    8   17      3.39      0.00
    6    8   17      5.10      0.00
    7    8   17      3.11      0.00
    8    8   17     -3.79      0.00
    9    8   17     -5.79      0.00
   10    8   17      0.23      0.00
   11    8   17      6.89      0.00
   12    8   17      5.92      0.00
   13    8   17      4.05      0.00
   14    8   17      1.46      0.00
   15    8   17      2.53      0.00
   16    8   17      1.11      0.00
   17    8   17      0.81      0.00
   -9    9   17     -9.78      0.00
   -8    9   17     -7.56      0.00
   -7    9   17     -2.14      0.00
   -6    9   17     -1.43      0.00
   -5    9   17     -3.05      0.00
   -4    9   17     -8.12      0.00
   -3    9   17     -4.26      0.00
   -2    9   17     -2.94      0.00
   -1    9   17      1.13      0.00
    0    9   17     -0.20      0.00
    1    9   17     -1.00      0.00
    2    9   17     -3.96      0.00
    3    9   17     -4.53      0.00
    4    9   17     -4.66      0.00
    5    9   17     -2.06      0.00
    6    9   17     -1.85      0.00
    7    9   17      1.55      0.00
    8    9   17      3.46      0.00
    9    9   17      3.79      0.00
   10    9   17      2.89      0.00
   11    9   17      1.87      0.00
   12    9   17     -2.27      0.00
   13    9   17     -2.02      0.00
   14    9   17     -0.42      0.00
   15    9   17      0.81      0.00
   16    9   17      7.66      0.00
   17    9   17      9.20      0.00
   18    9   17      2.88      0.00
   -8   10   17     10.19      0.00
   -7   10   17      9.18      0.00
   -6   10   17     11.43      0.00
   -5   10   17      7.06      0.00
   -4   10   17      3.00      0.00
   -3   10   17     -1.43      0.00
   -2   10   17      0.11      0.00
   -1   10   17      1.03      0.00
    0   10   17      2.26      0.00
    1   10   17     -2.38      0.00
    2   10   17     -1.58      0.00
    3   10   17     -0.04      0.00
    4   10   17     -1.62      0.00
    5   10   17     -4.50      0.00
    6   10   17     -0.67      0.00
    7   10   17      0.57      0.00
    8   10   17     -1.21      0.00
    9   10   17     -3.45      0.00
   10   10   17     -4.40      0.00
   11   10   17     -5.71      0.00
   13   10   17     -2.09      0.00
   14   10   17      1.35      0.00
   15   10   17      8.46      0.00
   16   10   17      0.15      0.00
   17   10   17     -7.17      0.00
   18   10   17     -3.57      0.00
   -7   11   17     -4.48      0.00
   -6   11   17     -5.16      0.00
   -5   11   17     -3.09      0.00
   -4   11   17      1.08      0.00
   -2   11   17     -0.58      0.00
   -1   11   17     -4.23      0.00
    0   11   17     -6.51      0.00
    1   11   17     -2.31      0.00
    2   11   17     -1.53      0.00
    3   11   17     -3.16      0.00
    4   11   17     -1.19      0.00
    5   11   17      2.67      0.00
    6   11   17      1.82      0.00
    7   11   17     -1.92      0.00
    8   11   17     -0.84      0.00
    9   11   17      1.03      0.00
   10   11   17      2.04      0.00
   11   11   17      3.02      0.00
   12   11   17     -0.82      0.00
   13   11   17      0.79      0.00
   14   11   17      6.19      0.00
   15   11   17      3.53      0.00
   16   11   17      9.99      0.00
   17   11   17      6.54      0.00
   18   11   17     -2.78      0.00
   -6   12   17      5.17      0.00
   -5   12   17      7.36      0.00
   -4   12   17      2.90      0.00
   -3   12   17      0.52      0.00
   -1   12   17      2.10      0.00
    0   12   17      0.91      0.00
    1   12   17     -3.15      0.00
    2   12   17     -0.54      0.00
    3   12   17      5.07      0.00
    4   12   17      4.52      0.00
    5   12   17      1.85      0.00
    6   12   17      0.25      0.00
    7   12   17      3.77      0.00
    8   12   17      0.16      0.00
    9   12   17     -4.19      0.00
   10   12   17     -5.54      0.00
   11   12   17     -6.24      0.00
   12   12   17     -4.84      0.00
   13   12   17     -0.14      0.00
   14   12   17     -3.32      0.00
   15   12   17      0.72      0.00
   16   12   17     -6.06      0.00
   17   12   17     -2.33      0.00
   18   12   17      3.77      0.00
   -5   13   17     -0.38      0.00
   -4   13   17     -2.14      0.00
   -3   13   17      0.21      0.00
    1   13   17      4.82      0.00
    2   13   17      3.82      0.00
    3   13   17      1.28      0.00
    4   13   17      5.33      0.00
    5   13   17      7.93      0.00
    6   13   17      7.94      0.00
    7   13   17      1.22      0.00
    8   13   17     -1.59      0.00
    9   13   17     -1.44      0.00
   10   13   17     -2.54      0.00
   11   13   17     -3.76      0.00
   12   13   17     -2.12      0.00
   13   13   17     -6.85      0.00
   14   13   17     -0.29      0.00
   16   13   17      5.39      0.00
   17   13   17      2.45      0.00
   18   13   17     -4.35      0.00
   -5   14   17      3.90      0.00
   -4   14   17      8.64      0.00
   -3   14   17      6.88      0.00
   -2   14   17      6.14      0.00
    3   14   17      6.51      0.00
    4   14   17     -0.83      0.00
    5   14   17     -5.23      0.00
    6   14   17     -4.66      0.00
    7   14   17     -1.19      0.00
    8   14   17      0.97      0.00
    9   14   17     -0.66      0.00
   10   14   17     -1.58      0.00
   11   14   17     -0.60      0.00
   12   14   17     -3.33      0.00
   13   14   17     -0.58      0.00
   14   14   17     -5.38      0.00
   15   14   17     -1.57      0.00
   16   14   17      0.56      0.00
   17   14   17     -1.10      0.00
   18   14   17      0.81      0.00
   -4   15   17     -9.20      0.00
   -3   15   17     -9.56      0.00
   -2   15   17    -11.95      0.00
    4   15   17     -7.29      0.00
    5   15   17     -0.35      0.00
    6   15   17      3.06      0.00
    7   15   17      2.79      0.00
    8   15   17      0.25      0.00
    9   15   17      3.28      0.00
   10   15   17      7.37      0.00
   11   15   17      7.09      0.00
   12   15   17      5.11      0.00
   13   15   17      2.29      0.00
   14   15   17      6.41      0.00
   15   15   17      6.30      0.00
   16   15   17      1.03      0.00
   17   15   17      2.07      0.00
   18   15   17      1.91      0.00
   -2   16   17      9.59      0.00
   -1   16   17      9.52      0.00
    5   16   17      8.69      0.00
    6   16   17     -1.09      0.00
    7   16   17     -5.56      0.00
    8   16   17     -0.36      0.00
    9   16   17      1.45      0.00
   10   16   17      0.15      0.00
   11   16   17     -1.57      0.00
   12   16   17      0.80      0.00
   13   16   17      2.15      0.00
   14   16   17      1.35      0.00
   15   16   17      0.69      0.00
   16   16   17      1.57      0.00
   17   16   17     -1.60      0.00
   18   16   17     -2.12      0.00
   -1   17   17     -7.52      0.00
    0   17   17     -2.68      0.00
    6   17   17      2.13      0.00
    7   17   17      2.05      0.00
    8   17   17     -3.13      0.00
    9   17   17     -1.50      0.00
   10   17   17     -0.13      0.00
   11   17   17      2.26      0.00
   12   17   17     -0.50      0.00
   13   17   17     -2.39      0.00
   14   17   17     -3.75      0.00
   15   17   17     -5.92      0.00
   16   17   17     -5.16      0.00
   17   17   17     -3.36      0.00
    0   18   17      0.03      0.00
    6   18   17     -1.90      0.00
    7   18   17      1.43      0.00
    8   18   17      7.25      0.00
    9   18   17      3.94      0.00
   10   18   17      1.96      0.00
   11   18   17     -4.23      0.00
   12   18   17     -7.85      0.00
   13   18   17     -6.27      0.00
   14   18   17     -2.17      0.00
   15   18   17      5.12      0.00
   16   18   17      3.51      0.00
   17   18   17      0.86      0.00
    7   19   17     -4.76      0.00
    8   19   17     -3.32      0.00
    9   19   17      3.70      0.00
   10   19   17      2.18      0.00
   11   19   17      2.62      0.00
   12   19   17      4.14      0.00
   13   19   17      1.26      0.00
   14   19   17      1.32      0.00
   15   19   17     -3.50      0.00
   16   19   17     -6.16      0.00
    8   20   17      8.39      0.00
    9   20   17      1.02      0.00
   10   20   17      2.11      0.00
   11   20   17      0.59      0.00
   12   20   17     -1.99      0.00
   13   20   17      2.66      0.00
   14   20   17      2.94      0.00
    9   21   17      2.46      0.00
   10   21   17     -1.08      0.00
   11   21   17     -1.57      0.00
   -5   -6   18     -2.62      0.00
   -4   -6   18     -5.77      0.00
   -3   -6   18     -3.43      0.00
   -2   -6   18     -6.15      0.00
   -1   -6   18     -5.45      0.00
    0   -6   18     -2.19      0.00
    1   -6   18     -2.06      0.00
   -6   -5   18     -5.83      0.00
   -5   -5   18     -4.31      0.00
   -4   -5   18     -3.66      0.00
   -3   -5   18     -3.85      0.00
   -2   -5   18      7.12      0.00
   -1   -5   18     16.69      0.00
    0   -5   18     13.90      0.00
    1   -5   18     13.42      0.00
    2   -5   18     10.89      0.00
    3   -5   18      5.58      0.00
    4   -5   18      3.89      0.00
   -6   -4   18     -8.97      0.00
   -5   -4   18    -10.67      0.00
   -4   -4   18     -1.83      0.00
   -3   -4   18      4.96      0.00
   -2   -4   18     -2.04      0.00
   -1   -4   18    -11.56      0.00
    0   -4   18     -6.64      0.00
    1   -4   18     -5.29      0.00
    2   -4   18    -10.29      0.00
    3   -4   18     -9.07      0.00
    4   -4   18     -5.75      0.00
    5   -4   18     -3.05      0.00
    6   -4   18     -1.92      0.00
   -9   -3   18     -0.13      0.00
   -8   -3   18     -0.38      0.00
   -7   -3   18     -6.97      0.00
   -6   -3   18     -2.27      0.00
   -5   -3   18      2.04      0.00
   -4   -3   18     -5.90      0.00
   -3   -3   18     -8.08      0.00
   -2   -3   18     -0.36      0.00
   -1   -3   18      9.25      0.00
    0   -3   18      6.74      0.00
    1   -3   18      3.93      0.00
    2   -3   18     10.48      0.00
    3   -3   18      9.89      0.00
    4   -3   18      6.63      0.00
    5   -3   18      4.06      0.00
    6   -3   18      6.07      0.00
    7   -3   18      1.61      0.00
    8   -3   18     -2.50      0.00
  -10   -2   18      0.06      0.00
   -9   -2   18      0.35      0.00
   -8   -2   18     -4.15      0.00
   -7   -2   18     -4.55      0.00
   -6   -2   18     -5.12      0.00
   -5   -2   18     -3.51      0.00
   -4   -2   18      6.66      0.00
   -3   -2   18      8.36      0.00
   -2   -2   18      3.62      0.00
   -1   -2   18     -3.09      0.00
    0   -2   18     -2.70      0.00
    1   -2   18      3.97      0.00
    2   -2   18      2.94      0.00
    3   -2   18      6.27      0.00
    4   -2   18      8.36      0.00
    5   -2   18      7.09      0.00
    6   -2   18     -3.11      0.00
    7   -2   18     -4.15      0.00
    8   -2   18      3.00      0.00
    9   -2   18      6.09      0.00
  -10   -1   18      2.13      0.00
   -9   -1   18      0.85      0.00
   -8   -1   18      0.08      0.00
   -7   -1   18      0.44      0.00
   -6   -1   18     -1.88      0.00
   -5   -1   18     -0.96      0.00
   -4   -1   18      1.62      0.00
   -3   -1   18      5.49      0.00
   -2   -1   18      2.17      0.00
   -1   -1   18     -2.04      0.00
    0   -1   18     -2.24      0.00
    1   -1   18     -2.93      0.00
    2   -1   18      2.15      0.00
    3   -1   18      1.50      0.00
    4   -1   18      0.49      0.00
    5   -1   18      2.15      0.00
    6   -1   18      6.81      0.00
    7   -1   18      3.09      0.00
    8   -1   18     -3.55      0.00
    9   -1   18     -1.80      0.00
   10   -1   18      2.61      0.00
  -10    0   18     -7.39      0.00
   -9    0   18     -7.79      0.00
   -8    0   18     -5.05      0.00
   -7    0   18     -5.23      0.00
   -6    0   18     -0.71      0.00
   -5    0   18      7.18      0.00
   -4    0   18     10.02      0.00
   -3    0   18      8.52      0.00
   -2    0   18      9.25      0.00
   -1    0   18      7.82      0.00
    0    0   18      3.51      0.00
    1    0   18      2.29      0.00
    2    0   18     -0.92      0.00
    3    0   18     -1.18      0.00
    4    0   18      1.64      0.00
    5    0   18      1.36      0.00
    6    0   18     -2.79      0.00
    7    0   18     -3.62      0.00
    8    0   18     -1.32      0.00
    9    0   18      0.15      0.00
   10    0   18     -0.08      0.00
   11    0   18     -5.80      0.00
  -10    1   18      1.71      0.00
   -9    1   18      2.98      0.00
   -8    1   18      1.28      0.00
   -7    1   18      0.18      0.00
   -6    1   18      2.62      0.00
   -5    1   18      1.58      0.00
   -4    1   18     -0.07      0.00
   -3    1   18     -1.38      0.00
   -2    1   18     -4.90      0.00
   -1    1   18     -4.18      0.00
    0    1   18      0.08      0.00
    1    1   18      0.93      0.00
    2    1   18     -2.78      0.00
    3    1   18     -4.11      0.00
    4    1   18     -1.27      0.00
    5    1   18      3.75      0.00
    6    1   18      5.24      0.00
    7    1   18     -0.65      0.00
    8    1   18     -4.09      0.00
    9    1   18     -3.66      0.00
   10    1   18     -3.61      0.00
   11    1   18      0.72      0.00
   12    1   18     -0.29      0.00
  -10    2   18      8.97      0.00
   -9    2   18     10.97      0.00
   -8    2   18      8.54      0.00
   -7    2   18     11.12      0.00
   -6    2   18      7.30      0.00
   -5    2   18      1.29      0.00
   -4    2   18     -0.70      0.00
   -3    2   18     -1.48      0.00
   -2    2   18      2.53      0.00
   -1    2   18      4.63      0.00
    0    2   18      4.96      0.00
    1    2   18      4.47      0.00
    2    2   18      6.52      0.00
    3    2   18      5.09      0.00
    4    2   18      0.90      0.00
    5    2   18     -1.69      0.00
    6    2   18     -6.09      0.00
    7    2   18     -3.28      0.00
    8    2   18      1.83      0.00
    9    2   18      3.09      0.00
   10    2   18      2.46      0.00
   11    2   18      0.17      0.00
   12    2   18      4.40      0.00
   13    2   18      3.48      0.00
  -10    3   18      0.80      0.00
   -9    3   18     -5.14      0.00
   -8    3   18     -0.46      0.00
   -7    3   18     -2.41      0.00
   -6    3   18     -6.53      0.00
   -5    3   18     -7.76      0.00
   -4    3   18     -7.57      0.00
   -3    3   18     -1.44      0.00
   -2    3   18     -3.71      0.00
   -1    3   18     -6.37      0.00
    0    3   18     -5.77      0.00
    1    3   18     -5.20      0.00
    2    3   18     -8.29      0.00
    3    3   18     -7.25      0.00
    4    3   18     -1.38      0.00
    5    3   18     -2.10      0.00
    6    3   18      0.20      0.00
    7    3   18     -0.64      0.00
    8    3   18     -5.37      0.00
    9    3   18     -4.46      0.00
   10    3   18     -0.47      0.00
   11    3   18      1.53      0.00
   12    3   18     -2.59      0.00
   13    3   18      1.23      0.00
   14    3   18      4.56      0.00
  -10    4   18     -3.52      0.00
   -9    4   18      5.25      0.00
   -8    4   18      2.59      0.00
   -7    4   18     -2.81      0.00
   -6    4   18     -4.83      0.00
   -5    4   18      0.72      0.00
   -4    4   18      9.65      0.00
   -3    4   18      6.20      0.00
   -2    4   18      4.92      0.00
   -1    4   18      3.43      0.00
    0    4   18     -0.07      0.00
    1    4   18      1.03      0.00
    2    4   18      4.64      0.00
    3    4   18      4.84      0.00
    4    4   18     -0.06      0.00
    5    4   18      2.93      0.00
    6    4   18      2.37      0.00
    7    4   18     -0.46      0.00
    8    4   18      1.23      0.00
    9    4   18     -2.19      0.00
   10    4   18     -5.96      0.00
   11    4   18     -4.03      0.00
   12    4   18      2.68      0.00
   13    4   18      0.33      0.00
   14    4   18     -0.59      0.00
   15    4   18      4.46      0.00
  -10    5   18     -2.56      0.00
   -9    5   18     -8.70      0.00
   -8    5   18     -9.06      0.00
   -7    5   18     -5.53      0.00
   -6    5   18      1.08      0.00
   -5    5   18      0.24      0.00
   -4    5   18     -3.46      0.00
   -3    5   18     -2.49      0.00
   -2    5   18     -5.71      0.00
   -1    5   18     -6.88      0.00
    0    5   18     -0.63      0.00
    1    5   18      0.14      0.00
    2    5   18     -1.74      0.00
    3    5   18     -3.48      0.00
    4    5   18      1.51      0.00
    5    5   18     -0.69      0.00
    6    5   18     -3.21      0.00
    7    5   18     -1.54      0.00
    8    5   18     -4.24      0.00
    9    5   18     -3.90      0.00
   10    5   18      0.05      0.00
   11    5   18      3.69      0.00
   12    5   18      3.58      0.00
   13    5   18      4.45      0.00
   14    5   18      0.45      0.00
   15    5   18     -6.79      0.00
   -9    6   18     -3.66      0.00
   -8    6   18     -4.17      0.00
   -7    6   18     -5.30      0.00
   -6    6   18    -12.29      0.00
   -5    6   18     -6.72      0.00
   -4    6   18     -0.81      0.00
   -3    6   18      2.00      0.00
   -2    6   18      2.65      0.00
   -1    6   18      1.04      0.00
    0    6   18     -4.22      0.00
    1    6   18     -4.24      0.00
    2    6   18     -4.12      0.00
    3    6   18      1.24      0.00
    4    6   18     -1.63      0.00
    5    6   18     -1.41      0.00
    6    6   18      0.14      0.00
    7    6   18     -6.00      0.00
    8    6   18    -10.92      0.00
    9    6   18     -8.34      0.00
   10    6   18     -5.72      0.00
   11    6   18     -6.45      0.00
   12    6   18     -7.44      0.00
   13    6   18     -5.43      0.00
   14    6   18     -3.96      0.00
   15    6   18     -0.55      0.00
   16    6   18     -2.39      0.00
   -9    7   18     -6.85      0.00
   -8    7   18     -3.22      0.00
   -7    7   18     -7.01      0.00
   -6    7   18     -0.63      0.00
   -5    7   18      0.19      0.00
   -4    7   18      4.17      0.00
   -3    7   18      0.91      0.00
   -2    7   18     -3.09      0.00
   -1    7   18     -2.35      0.00
    0    7   18     -1.98      0.00
    1    7   18     -4.13      0.00
    2    7   18     -0.19      0.00
    3    7   18     -2.47      0.00
    4    7   18      1.64      0.00
    5    7   18      3.14      0.00
    6    7   18     -1.95      0.00
    7    7   18     -2.35      0.00
    8    7   18      1.94      0.00
    9    7   18     -1.65      0.00
   10    7   18     -2.36      0.00
   11    7   18      1.15      0.00
   12    7   18      3.17      0.00
   13    7   18     -3.26      0.00
   14    7   18     -3.52      0.00
   15    7   18     -2.71      0.00
   16    7   18      2.34      0.00
   -8    8   18    -10.27      0.00
   -7    8   18     -2.09      0.00
   -6    8   18      1.49      0.00
   -5    8   18      4.77      0.00
   -4    8   18     -0.88      0.00
   -3    8   18     -0.57      0.00
   -2    8   18      2.97      0.00
   -1    8   18     -2.87      0.00
    0    8   18     -5.93      0.00
    1    8   18     -3.27      0.00
    2    8   18     -2.11      0.00
    3    8   18      2.93      0.00
    4    8   18      1.19      0.00
    5    8   18     -3.20      0.00
    6    8   18     -1.37      0.00
    7    8   18      0.73      0.00
    8    8   18     -0.36      0.00
    9    8   18      3.39      0.00
   10    8   18     -0.29      0.00
   11    8   18     -9.36      0.00
   12    8   18    -12.85      0.00
   13    8   18     -4.12      0.00
   14    8   18      0.45      0.00
   15    8   18      2.67      0.00
   16    8   18      1.56      0.00
   17    8   18      2.92      0.00
   -8    9   18      6.35      0.00
   -7    9   18      3.11      0.00
   -6    9   18      1.77      0.00
   -5    9   18      3.86      0.00
   -4    9   18     10.12      0.00
   -3    9   18     11.23      0.00
   -2    9   18      1.75      0.00
   -1    9   18     -1.90      0.00
    0    9   18     -4.15      0.00
    1    9   18     -3.63      0.00
    2    9   18     -3.47      0.00
    3    9   18     -4.09      0.00
    4    9   18     -2.19      0.00
    5    9   18      3.35      0.00
    6    9   18      5.43      0.00
    7    9   18      7.09      0.00
    8    9   18      6.82      0.00
    9    9   18      1.17      0.00
   10    9   18     -3.60      0.00
   11    9   18     -2.12      0.00
   12    9   18      1.57      0.00
   13    9   18      4.29      0.00
   14    9   18      3.34      0.00
   15    9   18      2.67      0.00
   16    9   18      5.11      0.00
   17    9   18      0.51      0.00
   -7   10   18     -3.77      0.00
   -6   10   18     -2.43      0.00
   -5   10   18     -4.86      0.00
   -4   10   18     -5.17      0.00
   -2   10   18     -4.28      0.00
   -1   10   18     -3.19      0.00
    0   10   18      0.36      0.00
    1   10   18      0.96      0.00
    2   10   18      3.86      0.00
    3   10   18      3.46      0.00
    4   10   18      2.71      0.00
    5   10   18     -0.45      0.00
    6   10   18     -1.27      0.00
    7   10   18     -2.00      0.00
    8   10   18      1.51      0.00
    9   10   18      1.94      0.00
   10   10   18      0.89      0.00
   12   10   18      2.73      0.00
   13   10   18     -2.52      0.00
   14   10   18     -3.45      0.00
   15   10   18     -3.48      0.00
   16   10   18     -5.38      0.00
   17   10   18      2.98      0.00
   -6   11   18      2.88      0.00
   -5   11   18      5.17      0.00
   -4   11   18      3.00      0.00
   -2   11   18      0.79      0.00
   -1   11   18      5.21      0.00
    0   11   18      8.10      0.00
    1   11   18      8.52      0.00
    2   11   18      2.97      0.00
    3   11   18      1.54      0.00
    4   11   18      0.64      0.00
    5   11   18      0.13      0.00
    6   11   18     -0.73      0.00
    7   11   18      2.17      0.00
    8   11   18      0.83      0.00
    9   11   18     -0.88      0.00
   10   11   18     -0.78      0.00
   11   11   18      1.91      0.00
   13   11   18     -2.37      0.00
   14   11   18     -4.60      0.00
   15   11   18     -3.67      0.00
   16   11   18      4.73      0.00
   -5   12   18     -7.49      0.00
   -4   12   18    -11.53      0.00
   -3   12   18     -8.38      0.00
   -1   12   18     -1.94      0.00
    0   12   18     -2.59      0.00
    1   12   18     -1.05      0.00
    2   12   18      4.09      0.00
    3   12   18      3.26      0.00
    4   12   18      0.30      0.00
    5   12   18     -0.45      0.00
    6   12   18      0.49      0.00
    7   12   18     -0.47      0.00
    8   12   18     -1.92      0.00
    9   12   18      0.08      0.00
   10   12   18      2.98      0.00
   11   12   18      3.37      0.00
   12   12   18      7.67      0.00
   13   12   18      7.52      0.00
   14   12   18      3.19      0.00
   15   12   18      3.07      0.00
   16   12   18     -3.29      0.00
   17   12   18      5.42      0.00
   -5   13   18     -6.73      0.00
   -4   13   18     -2.69      0.00
   -3   13   18     -1.14      0.00
    0   13   18      6.60      0.00
    1   13   18      7.01      0.00
    2   13   18     -0.26      0.00
    3   13   18     -2.79      0.00
    4   13   18     -2.62      0.00
    5   13   18     -6.39      0.00
    6   13   18     -7.83      0.00
    7   13   18     -6.44      0.00
    8   13   18     -1.16      0.00
    9   13   18      0.71      0.00
   10   13   18      2.40      0.00
   11   13   18      6.54      0.00
   12   13   18      6.67      0.00
   13   13   18      3.23      0.00
   14   13   18      8.63      0.00
   15   13   18      4.90      0.00
   16   13   18      8.53      0.00
   17   13   18     -0.58      0.00
   -4   14   18      1.17      0.00
   -3   14   18     -2.82      0.00
   -2   14   18     -2.82      0.00
    3   14   18     -1.63      0.00
    4   14   18     -4.85      0.00
    5   14   18      1.22      0.00
    6   14   18      4.65      0.00
    7   14   18      3.90      0.00
    8   14   18      0.91      0.00
    9   14   18      0.90      0.00
   10   14   18      2.39      0.00
   11   14   18      2.89      0.00
   12   14   18      3.14      0.00
   13   14   18      5.39      0.00
   14   14   18     -5.24      0.00
   15   14   18     -1.78      0.00
   16   14   18     -1.68      0.00
   17   14   18      4.67      0.00
   -3   15   18      1.23      0.00
   -2   15   18     -0.76      0.00
    4   15   18      8.22      0.00
    5   15   18      2.31      0.00
    6   15   18     -1.77      0.00
    7   15   18      0.63      0.00
    8   15   18      4.60      0.00
    9   15   18      7.73      0.00
   10   15   18      7.30      0.00
   11   15   18      2.92      0.00
   12   15   18     -3.47      0.00
   13   15   18    -10.41      0.00
   14   15   18     -2.59      0.00
   15   15   18     -2.13      0.00
   16   15   18      0.03      0.00
   17   15   18      0.10      0.00
   -2   16   18     -0.63      0.00
   -1   16   18     -4.67      0.00
    5   16   18    -11.46      0.00
    6   16   18     -5.01      0.00
    7   16   18     -0.94      0.00
    8   16   18     -1.43      0.00
    9   16   18     -4.51      0.00
   10   16   18     -2.99      0.00
   11   16   18      0.99      0.00
   12   16   18      3.64      0.00
   13   16   18      4.19      0.00
   14   16   18     -0.02      0.00
   15   16   18      2.94      0.00
   16   16   18      6.91      0.00
   17   16   18      3.81      0.00
    0   17   18      3.88      0.00
    6   17   18      6.52      0.00
    7   17   18     -4.48      0.00
    8   17   18     -5.43      0.00
    9   17   18      4.41      0.00
   10   17   18      9.88      0.00
   11   17   18      9.04      0.00
   12   17   18      3.46      0.00
   13   17   18      0.17      0.00
   14   17   18     -0.20      0.00
   15   17   18      0.68      0.00
   16   17   18      0.52      0.00
    6   18   18     -4.85      0.00
    7   18   18      6.74      0.00
    8   18   18      7.03      0.00
    9   18   18     -0.03      0.00
   10   18   18     -2.25      0.00
   11   18   18     -3.89      0.00
   12   18   18     -2.64      0.00
   13   18   18     -3.13      0.00
   15   18   18     -2.21      0.00
   16   18   18     -1.99      0.00
    7   19   18    -15.45      0.00
    8   19   18    -15.07      0.00
    9   19   18    -10.68      0.00
   10   19   18     -7.55      0.00
   11   19   18      1.59      0.00
   12   19   18      5.31      0.00
   13   19   18      2.85      0.00
   14   19   18      0.54      0.00
   15   19   18     -0.03      0.00
    8   20   18      0.81      0.00
    9   20   18      3.08      0.00
   10   20   18      7.79      0.00
   11   20   18      2.13      0.00
   12   20   18     -3.16      0.00
   13   20   18     -3.47      0.00
   -2   -5   19     -3.58      0.00
   -1   -5   19     -7.87      0.00
   -4   -4   19      9.29      0.00
   -3   -4   19      2.63      0.00
   -2   -4   19     -5.47      0.00
   -1   -4   19     -3.91      0.00
    0   -4   19      2.78      0.00
    1   -4   19      0.16      0.00
    2   -4   19      0.78      0.00
    3   -4   19      5.45      0.00
   -6   -3   19      3.42      0.00
   -5   -3   19     -5.40      0.00
   -4   -3   19     -7.24      0.00
   -3   -3   19      7.59      0.00
   -2   -3   19     16.07      0.00
   -1   -3   19      8.40      0.00
    0   -3   19     -7.42      0.00
    1   -3   19     -8.12      0.00
    2   -3   19     -2.99      0.00
    3   -3   19     -5.71      0.00
    4   -3   19     -6.62      0.00
    5   -3   19     -4.88      0.00
    6   -3   19     -2.76      0.00
   -8   -2   19     -3.84      0.00
   -7   -2   19     -2.28      0.00
   -6   -2   19     -3.27      0.00
   -5   -2   19      3.75      0.00
   -4   -2   19      6.36      0.00
   -3   -2   19     -8.58      0.00
   -2   -2   19    -15.81      0.00
   -1   -2   19    -11.83      0.00
    0   -2   19     -1.79      0.00
    1   -2   19      0.24      0.00
    2   -2   19     -4.43      0.00
    3   -2   19      0.56      0.00
    4   -2   19      1.04      0.00
    5   -2   19     -2.27      0.00
    6   -2   19     -5.01      0.00
    7   -2   19      3.20      0.00
    8   -2   19      6.87      0.00
   -8   -1   19      4.41      0.00
   -7   -1   19      5.76      0.00
   -6   -1   19      3.21      0.00
   -5   -1   19     -3.18      0.00
   -4   -1   19     -8.25      0.00
   -3   -1   19     -1.09      0.00
   -2   -1   19      0.80      0.00
   -1   -1   19     -0.82      0.00
    0   -1   19     -2.48      0.00
    1   -1   19     -1.34      0.00
    2   -1   19      6.80      0.00
    3   -1   19      4.44      0.00
    4   -1   19      1.81      0.00
    5   -1   19      0.46      0.00
    6   -1   19      1.15      0.00
    7   -1   19     -3.99      0.00
    8   -1   19     -6.45      0.00
    9   -1   19     -4.31      0.00
   -9    0   19      4.67      0.00
   -8    0   19      5.04      0.00
   -7    0   19     -0.29      0.00
   -6    0   19     -4.84      0.00
   -5    0   19     -7.49      0.00
   -4    0   19     -4.79      0.00
   -3    0   19     -4.13      0.00
   -2    0   19     -2.63      0.00
   -1    0   19     -3.25      0.00
    0    0   19     -5.16      0.00
    1    0   19     -2.09      0.00
    2    0   19     -1.50      0.00
    3    0   19     -0.72      0.00
    4    0   19     -6.43      0.00
    5    0   19    -12.73      0.00
    6    0   19    -10.55      0.00
    7    0   19     -3.36      0.00
    8    0   19     -1.62      0.00
    9    0   19     -1.04      0.00
   10    0   19      0.07      0.00
   -9    1   19     -4.35      0.00
   -8    1   19     -9.81      0.00
   -7    1   19     -9.50      0.00
   -6    1   19     -4.29      0.00
   -5    1   19      1.01      0.00
   -4    1   19      1.25      0.00
   -3    1   19     -0.36      0.00
   -2    1   19     -1.76      0.00
   -1    1   19     -3.47      0.00
    0    1   19     -3.76      0.00
    1    1   19     -2.51      0.00
    2    1   19      0.59      0.00
    3    1   19      2.32      0.00
    4    1   19      2.07      0.00
    5    1   19      5.13      0.00
    6    1   19      5.06      0.00
    7    1   19      2.40      0.00
    8    1   19      2.31      0.00
    9    1   19     -0.41      0.00
   10    1   19     -2.37      0.00
   11    1   19      0.89      0.00
   -9    2   19     -2.21      0.00
   -8    2   19      1.63      0.00
   -7    2   19      6.84      0.00
   -6    2   19      6.21      0.00
   -5    2   19      5.35      0.00
   -4    2   19      3.90      0.00
   -3    2   19     -0.71      0.00
   -2    2   19     -5.30      0.00
   -1    2   19     -6.62      0.00
    0    2   19     -2.94      0.00
    1    2   19     -0.19      0.00
    2    2   19      0.01      0.00
    3    2   19     -6.16      0.00
    4    2   19     -7.24      0.00
    5    2   19     -4.38      0.00
    6    2   19      1.03      0.00
    7    2   19      5.83      0.00
    8    2   19      2.11      0.00
    9    2   19     -0.64      0.00
   10    2   19      1.97      0.00
   11    2   19      4.94      0.00
   12    2   19      7.54      0.00
   -9    3   19     -2.17      0.00
   -8    3   19     -0.16      0.00
   -7    3   19     -1.43      0.00
   -6    3   19      2.33      0.00
   -5    3   19      2.38      0.00
   -4    3   19     -1.18      0.00
   -3    3   19     -1.33      0.00
   -2    3   19     -2.26      0.00
   -1    3   19      2.02      0.00
    0    3   19      4.65      0.00
    1    3   19      6.48      0.00
    2    3   19      5.20      0.00
    3    3   19      7.93      0.00
    4    3   19      7.26      0.00
    5    3   19      6.49      0.00
    6    3   19      7.50      0.00
    7    3   19     -0.99      0.00
    8    3   19     -7.11      0.00
    9    3   19     -4.34      0.00
   10    3   19     -1.11      0.00
   11    3   19     -3.13      0.00
   12    3   19     -4.03      0.00
   13    3   19      2.95      0.00
   -9    4   19      7.62      0.00
   -8    4   19      3.37      0.00
   -7    4   19      3.73      0.00
   -6    4   19      3.45      0.00
   -5    4   19      1.42      0.00
   -3    4   19     -7.63      0.00
   -2    4   19     -1.15      0.00
   -1    4   19     -4.19      0.00
    0    4   19     -9.78      0.00
    1    4   19     -9.28      0.00
    2    4   19     -3.59      0.00
    3    4   19     -4.20      0.00
    4    4   19     -2.59      0.00
    5    4   19      1.17      0.00
    6    4   19     -3.65      0.00
    7    4   19     -3.55      0.00
    8    4   19      0.95      0.00
    9    4   19     -0.23      0.00
   10    4   19     -0.78      0.00
   11    4   19      3.69      0.00
   12    4   19      4.95      0.00
   13    4   19     -3.06      0.00
   14    4   19     -3.52      0.00
   -8    5   19     -0.25      0.00
   -7    5   19      2.76      0.00
   -6    5   19     -1.33      0.00
   -5    5   19    -11.14      0.00
   -3    5   19     -3.91      0.00
   -2    5   19     -2.72      0.00
   -1    5   19      3.71      0.00
    0    5   19      9.91      0.00
    1    5   19      6.65      0.00
    2    5   19     -0.41      0.00
    3    5   19      3.48      0.00
    4    5   19      9.61      0.00
    5    5   19      5.52      0.00
    6    5   19      4.04      0.00
    7    5   19      5.36      0.00
    8    5   19      4.95      0.00
    9    5   19      8.35      0.00
   10    5   19      6.75      0.00
   11    5   19     -0.80      0.00
   12    5   19     -6.21      0.00
   13    5   19     -1.73      0.00
   14    5   19      0.15      0.00
   -8    6   19      4.43      0.00
   -7    6   19      7.82      0.00
   -6    6   19      6.21      0.00
   -5    6   19      7.54      0.00
   -2    6   19      6.48      0.00
   -1    6   19      0.11      0.00
    0    6   19     -6.78      0.00
    1    6   19     -4.58      0.00
    2    6   19      2.71      0.00
    3    6   19      0.97      0.00
    4    6   19     -9.21      0.00
    5    6   19     -6.41      0.00
    6    6   19     -1.68      0.00
    7    6   19     -3.71      0.00
    8    6   19     -1.09      0.00
    9    6   19      1.94      0.00
   10    6   19      2.46      0.00
   11    6   19      2.17      0.00
   12    6   19      3.67      0.00
   13    6   19      2.06      0.00
   14    6   19     -0.46      0.00
   15    6   19     -2.05      0.00
   -8    7   19      7.26      0.00
   -7    7   19      2.48      0.00
   -6    7   19      4.45      0.00
   -5    7   19      3.24      0.00
   -4    7   19      7.65      0.00
   -2    7   19      2.35      0.00
   -1    7   19      3.39      0.00
    0    7   19      2.54      0.00
    1    7   19     -0.48      0.00
    2    7   19     -6.33      0.00
    3    7   19     -9.38      0.00
    4    7   19      1.14      0.00
    5    7   19      0.86      0.00
    6    7   19     -1.92      0.00
    7    7   19      6.55      0.00
    8    7   19      9.17      0.00
    9    7   19      1.13      0.00
   10    7   19      0.02      0.00
   11    7   19      3.12      0.00
   12    7   19      1.61      0.00
   13    7   19     -2.48      0.00
   14    7   19     -0.63      0.00
   15    7   19     -0.06      0.00
   -7    8   19      8.39      0.00
   -6    8   19      4.12      0.00
   -5    8   19      2.28      0.00
   -4    8   19     -5.27      0.00
   -1    8   19     -0.65      0.00
    0    8   19      7.91      0.00
    1    8   19      9.93      0.00
    2    8   19      5.60      0.00
    3    8   19      3.71      0.00
    4    8   19     -6.00      0.00
    5    8   19     -4.45      0.00
    6    8   19      2.52      0.00
    7    8   19     -2.38      0.00
    8    8   19     -7.98      0.00
    9    8   19      0.63      0.00
   10    8   19      3.93      0.00
   11    8   19      3.55      0.00
   12    8   19      3.99      0.00
   13    8   19      6.00      0.00
   14    8   19      1.13      0.00
   15    8   19     -1.55      0.00
   16    8   19     -2.19      0.00
   -7    9   19      0.59      0.00
   -6    9   19      4.81      0.00
   -5    9   19      2.91      0.00
   -4    9   19      3.16      0.00
   -1    9   19     10.46      0.00
    0    9   19      5.16      0.00
    1    9   19     -0.24      0.00
    2    9   19     -0.78      0.00
    3    9   19     -1.37      0.00
    4    9   19      4.00      0.00
    5    9   19      4.95      0.00
    6    9   19     -2.57      0.00
    7    9   19     -7.41      0.00
    8    9   19     -5.40      0.00
    9    9   19     -4.79      0.00
   10    9   19      0.02      0.00
   11    9   19      1.26      0.00
   12    9   19     -2.29      0.00
   13    9   19     -5.82      0.00
   14    9   19     -5.80      0.00
   15    9   19     -3.99      0.00
   16    9   19     -2.91      0.00
   -6   10   19     -6.24      0.00
   -5   10   19     -7.25      0.00
   -4   10   19     -3.07      0.00
    0   10   19     -4.49      0.00
    1   10   19     -4.32      0.00
    2   10   19     -2.57      0.00
    3   10   19      0.19      0.00
    4   10   19      3.21      0.00
    5   10   19      1.56      0.00
    6   10   19     -0.03      0.00
    7   10   19     -0.75      0.00
    8   10   19     -1.79      0.00
    9   10   19     -3.99      0.00
   10   10   19     -4.08      0.00
   11   10   19     -2.75      0.00
   12   10   19      0.24      0.00
   13   10   19     -0.11      0.00
   14   10   19      4.96      0.00
   15   10   19      1.85      0.00
   16   10   19     -3.23      0.00
   -5   11   19      3.35      0.00
   -4   11   19     -0.35      0.00
    1   11   19     -2.14      0.00
    2   11   19     -3.49      0.00
    3   11   19     -2.18      0.00
    4   11   19     -4.05      0.00
    5   11   19     -1.35      0.00
    6   11   19      1.03      0.00
    7   11   19     -0.56      0.00
    8   11   19     -4.54      0.00
    9   11   19      1.30      0.00
   10   11   19      4.37      0.00
   11   11   19      4.26      0.00
   12   11   19      1.49      0.00
   13   11   19      8.42      0.00
   14   11   19      2.78      0.00
   15   11   19     -1.25      0.00
   16   11   19     -2.80      0.00
   -4   12   19     -0.54      0.00
   -3   12   19      4.69      0.00
    2   12   19      3.67      0.00
    3   12   19     -0.76      0.00
    4   12   19      1.00      0.00
    5   12   19      1.66      0.00
    6   12   19     -0.05      0.00
    7   12   19      0.04      0.00
    8   12   19      6.45      0.00
    9   12   19      4.87      0.00
   10   12   19     -0.09      0.00
   11   12   19     -4.52      0.00
   12   12   19     -0.60      0.00
   13   12   19     -7.27      0.00
   14   12   19     -8.97      0.00
   15   12   19     -7.82      0.00
   16   12   19     -5.98      0.00
   -4   13   19      4.74      0.00
   -3   13   19     -0.21      0.00
    3   13   19     -0.29      0.00
    4   13   19     -2.14      0.00
    5   13   19     -4.99      0.00
    6   13   19     -1.51      0.00
    7   13   19      2.86      0.00
    8   13   19      1.31      0.00
    9   13   19     -0.81      0.00
   11   13   19      0.07      0.00
   12   13   19     -7.31      0.00
   13   13   19     -4.53      0.00
   14   13   19      2.60      0.00
   15   13   19      0.05      0.00
   16   13   19     -0.66      0.00
   -3   14   19     -3.55      0.00
   -2   14   19     -2.02      0.00
    4   14   19     -5.41      0.00
    5   14   19      1.98      0.00
    6   14   19     -1.10      0.00
    7   14   19     -6.61      0.00
    8   14   19     -6.70      0.00
    9   14   19     -1.84      0.00
   10   14   19      1.15      0.00
   11   14   19      0.48      0.00
   12   14   19      3.84      0.00
   13   14   19      2.44      0.00
   14   14   19     -5.67      0.00
   15   14   19      0.82      0.00
   16   14   19      0.44      0.00
   -2   15   19      6.32      0.00
    4   15   19      2.66      0.00
    5   15   19     -1.96      0.00
    6   15   19      2.32      0.00
    7   15   19      6.15      0.00
    8   15   19      3.36      0.00
    9   15   19     -2.72      0.00
   10   15   19     -9.08      0.00
   11   15   19    -11.10      0.00
   12   15   19    -10.08      0.00
   13   15   19     -4.30      0.00
   14   15   19      5.73      0.00
   15   15   19     -3.12      0.00
   16   15   19     -4.93      0.00
    5   16   19      6.87      0.00
    6   16   19      2.07      0.00
    7   16   19     -3.50      0.00
    8   16   19     -3.47      0.00
    9   16   19     -2.28      0.00
   11   16   19      2.50      0.00
   12   16   19      2.25      0.00
   13   16   19     -0.73      0.00
   14   16   19     -6.85      0.00
   15   16   19     -0.73      0.00
   16   16   19      0.82      0.00
    6   17   19     -5.64      0.00
    7   17   19     -0.44      0.00
    8   17   19      3.99      0.00
    9   17   19      1.57      0.00
   10   17   19     -5.99      0.00
   11   17   19     -7.32      0.00
   12   17   19     -3.04      0.00
   13   17   19      2.27      0.00
   14   17   19      4.67      0.00
   15   17   19      0.41      0.00
    7   18   19      8.05      0.00
    8   18   19     -0.69      0.00
    9   18   19     -4.33      0.00
   10   18   19     -1.31      0.00
   11   18   19      0.01      0.00
   12   18   19      2.07      0.00
   13   18   19      5.05      0.00
   14   18   19      8.54      0.00
   15   18   19      8.52      0.00
    7   19   19      0.93      0.00
    8   19   19      8.47      0.00
    9   19   19      7.10      0.00
   10   19   19      2.53      0.00
   11   19   19      1.93      0.00
   12   19   19      0.55      0.00
   13   19   19     -0.17      0.00
   -2   -3   20      5.60      0.00
   -1   -3   20     -0.90      0.00
    0   -3   20     -0.90      0.00
    1   -3   20      8.18      0.00
    2   -3   20      8.70      0.00
   -6   -2   20      5.63      0.00
   -5   -2   20      6.21      0.00
   -4   -2   20     -4.76      0.00
   -2   -2   20     -3.91      0.00
   -1   -2   20      4.65      0.00
    0   -2   20      4.79      0.00
    1   -2   20     -5.99      0.00
    2   -2   20    -11.09      0.00
    3   -2   20     -6.87      0.00
    4   -2   20     -8.02      0.00
    5   -2   20     -9.61      0.00
   -6   -1   20      5.59      0.00
   -5   -1   20      4.74      0.00
   -4   -1   20      8.01      0.00
   -2   -1   20      0.44      0.00
   -1   -1   20     -3.53      0.00
    0   -1   20     -0.75      0.00
    1   -1   20      4.54      0.00
    2   -1   20      6.46      0.00
    3   -1   20     -0.67      0.00
    4   -1   20      1.09      0.00
    5   -1   20      3.87      0.00
    6   -1   20      4.90      0.00
    7   -1   20      0.37      0.00
   -7    0   20     -3.38      0.00
   -6    0   20     -2.67      0.00
   -5    0   20     -2.14      0.00
   -4    0   20     -5.48      0.00
   -2    0   20     -9.97      0.00
   -1    0   20     -4.01      0.00
    0    0   20     -1.00      0.00
    1    0   20     -0.68      0.00
    2    0   20     -6.16      0.00
    3    0   20     -4.50      0.00
    4    0   20     -4.93      0.00
    5    0   20     -3.77      0.00
    6    0   20     -2.64      0.00
    7    0   20     -0.07      0.00
    8    0   20      2.49      0.00
   -7    1   20      2.91      0.00
   -6    1   20      5.21      0.00
   -5    1   20      2.44      0.00
   -4    1   20     -1.95      0.00
   -2    1   20      6.81      0.00
   -1    1   20      5.88      0.00
    0    1   20      3.27      0.00
    1    1   20     -2.86      0.00
    2    1   20     -2.40      0.00
    3    1   20      0.83      0.00
    4    1   20      3.00      0.00
    5    1   20     -0.52      0.00
    6    1   20     -5.60      0.00
    7    1   20     -1.24      0.00
    8    1   20      5.05      0.00
    9    1   20      2.28      0.00
   10    1   20      0.00      0.00
   -7    2   20     -4.92      0.00
   -6    2   20    -14.64      0.00
   -5    2   20    -15.43      0.00
   -1    2   20      1.06      0.00
    0    2   20     -2.11      0.00
    1    2   20     -4.10      0.00
    2    2   20     -0.93      0.00
    3    2   20      2.88      0.00
    4    2   20      4.77      0.00
    5    2   20     -0.34      0.00
    6    2   20     -2.42      0.00
    7    2   20     -2.91      0.00
    8    2   20     -2.57      0.00
    9    2   20      1.42      0.00
   10    2   20      2.39      0.00
   11    2   20     -0.57      0.00
   -7    3   20     -7.11      0.00
   -6    3   20     -1.35      0.00
   -5    3   20      2.36      0.00
   -1    3   20      5.14      0.00
    0    3   20      3.09      0.00
    1    3   20      0.71      0.00
    2    3   20     -3.01      0.00
    3    3   20     -2.12      0.00
    4    3   20     -3.68      0.00
    5    3   20     -0.43      0.00
    6    3   20      2.00      0.00
    7    3   20      1.71      0.00
    8    3   20      3.50      0.00
    9    3   20      3.64      0.00
   10    3   20      0.68      0.00
   11    3   20     -1.98      0.00
   12    3   20     -0.74      0.00
   -7    4   20     -7.39      0.00
   -6    4   20     -5.95      0.00
   -5    4   20     -1.22      0.00
   -1    4   20     -4.12      0.00
    0    4   20     -1.73      0.00
    1    4   20      3.77      0.00
    2    4   20      8.31      0.00
    3    4   20      5.22      0.00
    4    4   20      4.15      0.00
    5    4   20     -0.60      0.00
    6    4   20     -3.59      0.00
    7    4   20      0.38      0.00
    8    4   20      0.70      0.00
    9    4   20     -2.26      0.00
   10    4   20      1.24      0.00
   11    4   20      6.07      0.00
   12    4   20      0.62      0.00
   -7    5   20      2.30      0.00
   -6    5   20      4.17      0.00
   -5    5   20      6.15      0.00
    0    5   20      5.66      0.00
    1    5   20     -1.78      0.00
    2    5   20     -3.98      0.00
    3    5   20      3.40      0.00
    4    5   20      0.04      0.00
    5    5   20     -6.05      0.00
    6    5   20     -5.59      0.00
    7    5   20     -3.83      0.00
    8    5   20     -1.98      0.00
    9    5   20      2.17      0.00
   10    5   20     -0.41      0.00
   11    5   20     -4.10      0.00
   12    5   20      1.09      0.00
   13    5   20      7.49      0.00
   -7    6   20     -1.63      0.00
   -6    6   20     -2.38      0.00
   -5    6   20     -2.97      0.00
   -4    6   20     -6.19      0.00
    0    6   20      0.43      0.00
    1    6   20      8.64      0.00
    2    6   20     10.25      0.00
    3    6   20     -2.83      0.00
    4    6   20     -4.94      0.00
    5    6   20      4.50      0.00
    6    6   20      5.64      0.00
    7    6   20     -0.59      0.00
    8    6   20      0.15      0.00
    9    6   20      0.64      0.00
   10    6   20      2.23      0.00
   11    6   20      1.89      0.00
   12    6   20     -1.30      0.00
   13    6   20     -4.34      0.00
   14    6   20     -0.49      0.00
   -7    7   20     -1.47      0.00
   -6    7   20      3.73      0.00
   -4    7   20     -1.98      0.00
    1    7   20      1.61      0.00
    2    7   20     -0.11      0.00
    3    7   20      7.36      0.00
    4    7   20      8.76      0.00
    5    7   20     -3.93      0.00
    6    7   20     -6.13      0.00
    7    7   20      1.71      0.00
    8    7   20     -2.52      0.00
    9    7   20     -5.33      0.00
   10    7   20     -0.49      0.00
   11    7   20      2.55      0.00
   12    7   20      2.22      0.00
   13    7   20      4.68      0.00
   14    7   20      7.55      0.00
   -6    8   20     -1.58      0.00
   -5    8   20     -3.69      0.00
   -4    8   20     -6.57      0.00
    1    8   20     -3.40      0.00
    2    8   20     -5.25      0.00
    3    8   20     -8.25      0.00
    4    8   20    -11.08      0.00
    5    8   20      0.62      0.00
    6    8   20      3.85      0.00
    7    8   20     -3.08      0.00
    8    8   20      2.35      0.00
    9    8   20      7.80      0.00
   10    8   20     -2.70      0.00
   11    8   20     -6.68      0.00
   12    8   20     -0.78      0.00
   13    8   20      4.32      0.00
   14    8   20      1.78      0.00
   15    8   20      1.17      0.00
   -6    9   20     -2.53      0.00
   -5    9   20     -7.20      0.00
   -4    9   20     -5.02      0.00
    2    9   20      6.75      0.00
    3    9   20      5.22      0.00
    4    9   20      5.87      0.00
    5    9   20     -0.77      0.00
    6    9   20     -2.43      0.00
    7    9   20      4.37      0.00
    8    9   20      4.55      0.00
    9    9   20     -1.93      0.00
   10    9   20      5.15      0.00
   11    9   20      9.26      0.00
   12    9   20      7.10      0.00
   13    9   20      0.70      0.00
   14    9   20     -1.93      0.00
   15    9   20     -2.29      0.00
   -5   10   20      1.12      0.00
   -4   10   20     -0.54      0.00
    2   10   20      1.68      0.00
    3   10   20      1.43      0.00
    4   10   20     -0.25      0.00
    5   10   20     -1.35      0.00
    6   10   20      0.85      0.00
    7   10   20      0.90      0.00
    8   10   20     -4.08      0.00
    9   10   20     -5.24      0.00
   10   10   20     -7.08      0.00
   11   10   20     -6.86      0.00
   12   10   20     -6.49      0.00
   13   10   20     -3.85      0.00
   14   10   20      2.88      0.00
   15   10   20      2.32      0.00
   -4   11   20     -2.53      0.00
   -3   11   20     -0.25      0.00
    3   11   20     -4.28      0.00
    4   11   20     -3.71      0.00
    5   11   20      3.43      0.00
    6   11   20      4.48      0.00
    7   11   20     -2.39      0.00
    8   11   20     -4.63      0.00
    9   11   20     -1.33      0.00
   10   11   20     -1.43      0.00
   11   11   20     -0.51      0.00
   12   11   20     -0.68      0.00
   13   11   20      0.22      0.00
   14   11   20     -7.08      0.00
   15   11   20     -0.14      0.00
   -3   12   20      5.13      0.00
    3   12   20     -0.75      0.00
    4   12   20      1.15      0.00
    5   12   20     -3.69      0.00
    6   12   20     -6.42      0.00
    7   12   20     -1.94      0.00
    8   12   20      1.76      0.00
    9   12   20     -2.27      0.00
   10   12   20      1.03      0.00
   11   12   20      2.48      0.00
   12   12   20      3.27      0.00
   13   12   20     -2.55      0.00
   14   12   20      8.34      0.00
   15   12   20      9.27      0.00
    4   13   20     -3.14      0.00
    5   13   20      1.80      0.00
    6   13   20      6.18      0.00
    7   13   20      1.84      0.00
    8   13   20     -6.16      0.00
    9   13   20     -5.17      0.00
   10   13   20     -5.74      0.00
   11   13   20     -7.38      0.00
   12   13   20    -11.66      0.00
   13   13   20     -1.79      0.00
   14   13   20     -4.50      0.00
   15   13   20     -9.12      0.00
    4   14   20      9.59      0.00
    5   14   20      7.46      0.00
    6   14   20     -0.57      0.00
    7   14   20      0.96      0.00
    8   14   20      8.37      0.00
    9   14   20      9.69      0.00
   10   14   20      5.37      0.00
   11   14   20      0.13      0.00
   12   14   20      1.57      0.00
   13   14   20     -6.24      0.00
   14   14   20     -5.21      0.00
   15   14   20      4.73      0.00
    5   15   20     -7.01      0.00
    6   15   20      1.25      0.00
    7   15   20      1.04      0.00
    8   15   20     -5.03      0.00
    9   15   20     -9.61      0.00
   10   15   20     -9.66      0.00
   11   15   20     -4.48      0.00
   12   15   20     -2.51      0.00
   13   15   20      5.11      0.00
   14   15   20      8.27      0.00
    5   16   20      1.25      0.00
    6   16   20     -5.42      0.00
    7   16   20     -1.81      0.00
    8   16   20      5.28      0.00
    9   16   20      7.09      0.00
   10   16   20      5.93      0.00
   11   16   20     -1.02      0.00
   12   16   20     -3.35      0.00
   13   16   20     -2.83      0.00
   14   16   20     -0.29      0.00
    6   17   20     12.02      0.00
    7   17   20      9.52      0.00
    8   17   20      2.61      0.00
    9   17   20     -0.54      0.00
   10   17   20     -3.37      0.00
   11   17   20     -0.39      0.00
   12   17   20      2.08      0.00
   13   17   20      3.00      0.00
   14   17   20      1.19      0.00
    7   18   20     -9.10      0.00
    8   18   20     -7.35      0.00
    9   18   20     -4.83      0.00
   10   18   20     -4.19      0.00
   11   18   20     -6.30      0.00
   12   18   20     -3.77      0.00
   13   18   20      0.49      0.00
    9   19   20      9.13      0.00
   10   19   20      9.03      0.00
    2   -1   21      1.39      0.00
    3   -1   21     -3.72      0.00
    4   -1   21     -1.57      0.00
   -4    0   21      5.31      0.00
    2    0   21     -2.46      0.00
    3    0   21      2.48      0.00
    4    0   21      3.45      0.00
    5    0   21      8.61      0.00
    6    0   21      9.62      0.00
   -5    1   21      4.06      0.00
   -4    1   21      3.11      0.00
    2    1   21      5.41      0.00
    3    1   21     -0.99      0.00
    4    1   21     -1.88      0.00
    5    1   21     -0.68      0.00
    6    1   21      2.45      0.00
    7    1   21      2.18      0.00
   -6    2   21     -0.41      0.00
   -5    2   21      4.60      0.00
   -4    2   21      5.96      0.00
    2    2   21      3.29      0.00
    3    2   21     -0.63      0.00
    4    2   21      0.85      0.00
    5    2   21      3.94      0.00
    6    2   21      3.56      0.00
    7    2   21     -0.56      0.00
    8    2   21      0.19      0.00
    9    2   21      2.98      0.00
   -6    3   21      5.44      0.00
   -5    3   21     -2.05      0.00
   -4    3   21     -6.07      0.00
    1    3   21     -3.89      0.00
    2    3   21     -4.65      0.00
    3    3   21      0.52      0.00
    4    3   21      4.05      0.00
    5    3   21      3.82      0.00
    6    3   21     -3.81      0.00
    7    3   21     -9.02      0.00
    8    3   21     -7.63      0.00
    9    3   21     -2.60      0.00
   10    3   21     -0.20      0.00
   -6    4   21      0.06      0.00
   -5    4   21      2.07      0.00
   -4    4   21      3.27      0.00
    1    4   21     -0.96      0.00
    2    4   21     -1.03      0.00
    3    4   21     -2.59      0.00
    4    4   21     -1.09      0.00
    5    4   21     -2.13      0.00
    6    4   21     -0.31      0.00
    7    4   21      3.50      0.00
    8    4   21      5.48      0.00
    9    4   21      3.86      0.00
   10    4   21      3.34      0.00
   11    4   21      1.59      0.00
   -6    5   21      2.93      0.00
   -5    5   21      2.22      0.00
   -4    5   21      5.60      0.00
    2    5   21     -2.07      0.00
    3    5   21     -0.95      0.00
    4    5   21     -5.21      0.00
    5    5   21     -5.05      0.00
    6    5   21     -3.14      0.00
    7    5   21     -0.61      0.00
    8    5   21     -1.23      0.00
    9    5   21     -4.42      0.00
   10    5   21    -10.00      0.00
   11    5   21     -7.43      0.00
   12    5   21      0.50      0.00
   -6    6   21     -3.22      0.00
   -5    6   21      2.60      0.00
   -4    6   21      9.45      0.00
    2    6   21     -9.02      0.00
    3    6   21    -11.14      0.00
    4    6   21      0.21      0.00
    5    6   21      6.28      0.00
    6    6   21      6.61      0.00
    7    6   21      5.37      0.00
    8    6   21      6.63      0.00
    9    6   21      3.27      0.00
   10    6   21      3.26      0.00
   11    6   21      1.08      0.00
   12    6   21     -2.44      0.00
   -5    7   21     -2.52      0.00
   -4    7   21     -2.57      0.00
    2    7   21      4.90      0.00
    3    7   21     12.62      0.00
    4    7   21      5.42      0.00
    5    7   21      0.23      0.00
    6    7   21      2.93      0.00
    7    7   21      2.38      0.00
    8    7   21     -6.06      0.00
    9    7   21     -2.10      0.00
   10    7   21      1.80      0.00
   11    7   21      0.73      0.00
   12    7   21     -3.56      0.00
   13    7   21     -6.72      0.00
   -5    8   21     -2.71      0.00
   -4    8   21     -1.69      0.00
    2    8   21     -4.07      0.00
    3    8   21     -3.53      0.00
    4    8   21      5.05      0.00
    5    8   21     10.35      0.00
    6    8   21      1.09      0.00
    7    8   21     -3.66      0.00
    8    8   21      4.08      0.00
    9    8   21     -0.92      0.00
   10    8   21     -7.03      0.00
   11    8   21     -1.55      0.00
   12    8   21      2.85      0.00
   13    8   21      1.29      0.00
   -4    9   21      7.43      0.00
    2    9   21     -2.47      0.00
    3    9   21     -1.72      0.00
    4    9   21     -0.63      0.00
    5    9   21     -3.31      0.00
    6    9   21      3.25      0.00
    7    9   21      6.74      0.00
    8    9   21      1.08      0.00
    9    9   21      5.33      0.00
   10    9   21     13.50      0.00
   11    9   21      3.24      0.00
   12    9   21     -5.02      0.00
   13    9   21     -4.74      0.00
   14    9   21      1.04      0.00
   -4   10   21      0.87      0.00
    3   10   21      5.55      0.00
    4   10   21      0.86      0.00
    5   10   21     -3.42      0.00
    6   10   21     -6.34      0.00
    7   10   21     -3.15      0.00
    8   10   21      6.57      0.00
    9   10   21     12.33      0.00
   10   10   21      4.11      0.00
   11   10   21      3.92      0.00
   12   10   21      5.71      0.00
   13   10   21      8.26      0.00
   14   10   21      5.39      0.00
   -3   11   21      2.79      0.00
    3   11   21      4.24      0.00
    4   11   21      4.21      0.00
    5   11   21      6.22      0.00
    6   11   21      2.71      0.00
    7   11   21      1.15      0.00
    8   11   21      4.91      0.00
    9   11   21      2.50      0.00
   10   11   21      1.87      0.00
   11   11   21      1.92      0.00
   12   11   21      1.81      0.00
   13   11   21     -1.34      0.00
   14   11   21     -5.76      0.00
    3   12   21      0.36      0.00
    4   12   21      1.95      0.00
    5   12   21     -3.19      0.00
    6   12   21      0.64      0.00
    7   12   21      6.81      0.00
    8   12   21      2.92      0.00
    9   12   21     -0.53      0.00
   10   12   21      1.38      0.00
   11   12   21      1.02      0.00
   12   12   21      3.17      0.00
   13   12   21      3.22      0.00
   14   12   21      7.99      0.00
    4   13   21     -2.40      0.00
    5   13   21     -1.34      0.00
    6   13   21     -2.67      0.00
    7   13   21     -5.43      0.00
    8   13   21     -1.07      0.00
    9   13   21      4.59      0.00
   10   13   21      2.18      0.00
   11   13   21      3.82      0.00
   12   13   21      5.05      0.00
   13   13   21     10.30      0.00
   14   13   21      1.36      0.00
    4   14   21      6.59      0.00
    5   14   21      7.04      0.00
    6   14   21      6.41      0.00
    7   14   21      8.46      0.00
    8   14   21      4.66      0.00
    9   14   21     -2.52      0.00
   10   14   21     -2.73      0.00
   11   14   21      0.54      0.00
   12   14   21      5.77      0.00
   13   14   21      0.66      0.00
   14   14   21      6.97      0.00
    5   15   21     -4.77      0.00
    6   15   21     -4.89      0.00
    7   15   21    -10.55      0.00
    8   15   21     -7.96      0.00
    9   15   21     -0.85      0.00
   10   15   21      4.91      0.00
   11   15   21      6.88      0.00
   12   15   21      3.22      0.00
   13   15   21      6.21      0.00
    5   16   21      1.47      0.00
    6   16   21      1.57      0.00
    7   16   21     10.05      0.00
    8   16   21      9.57      0.00
    9   16   21      6.00      0.00
   10   16   21      4.78      0.00
   11   16   21      4.43      0.00
   12   16   21      8.30      0.00
   13   16   21      4.61      0.00
    6   17   21     -5.89      0.00
    7   17   21    -14.89      0.00
    8   17   21    -13.98      0.00
    9   17   21     -6.83      0.00
   10   17   21     -2.60      0.00
   11   17   21      2.08      0.00
    2    1   22     -2.60      0.00
    3    1   22      1.66      0.00
    4    1   22      5.57      0.00
    2    2   22     -0.37      0.00
    4    2   22     -3.36      0.00
    5    2   22     -7.39      0.00
    6    2   22     -8.07      0.00
    2    3   22      2.54      0.00
    3    3   22     -4.19      0.00
    4    3   22     -9.10      0.00
    5    3   22     -4.32      0.00
    6    3   22      5.02      0.00
    7    3   22      8.97      0.00
    8    3   22      7.58      0.00
   -4    4   22     -4.89      0.00
    2    4   22      1.40      0.00
    3    4   22      2.57      0.00
    4    4   22      2.80      0.00
    5    4   22      1.88      0.00
    6    4   22      0.39      0.00
    7    4   22     -1.05      0.00
    8    4   22     -3.69      0.00
    9    4   22     -5.72      0.00
   -4    5   22     -3.46      0.00
    2    5   22     -0.65      0.00
    4    5   22     -6.63      0.00
    5    5   22     -5.26      0.00
    6    5   22     -2.20      0.00
    7    5   22     -0.65      0.00
    8    5   22     -1.25      0.00
    9    5   22      0.10      0.00
   10    5   22     -2.10      0.00
   -4    6   22     -9.45      0.00
    2    6   22     -5.72      0.00
    3    6   22     -3.30      0.00
    4    6   22      0.56      0.00
    5    6   22      2.93      0.00
    6    6   22      3.15      0.00
    7    6   22     -0.43      0.00
    8    6   22      0.74      0.00
    9    6   22      2.58      0.00
   10    6   22      7.20      0.00
   11    6   22      5.91      0.00
    2    7   22      2.93      0.00
    3    7   22     -0.48      0.00
    4    7   22     -6.02      0.00
    5    7   22     -3.94      0.00
    6    7   22     -3.76      0.00
    7    7   22     -1.86      0.00
    8    7   22     -0.19      0.00
    9    7   22      3.05      0.00
   10    7   22     -4.30      0.00
   11    7   22     -7.22      0.00
    2    8   22     -1.20      0.00
    3    8   22      3.01      0.00
    4    8   22      9.70      0.00
    5    8   22      1.48      0.00
    6    8   22     -5.43      0.00
    7    8   22     -1.94      0.00
    8    8   22      1.95      0.00
    9    8   22     -4.83      0.00
   10    8   22      0.26      0.00
   11    8   22      6.57      0.00
   12    8   22      6.60      0.00
    3    9   22      0.80      0.00
    4    9   22     -6.99      0.00
    5    9   22     -3.88      0.00
    6    9   22      3.84      0.00
    7    9   22     -1.80      0.00
    8    9   22    -10.45      0.00
    9    9   22     -7.00      0.00
   10    9   22    -10.62      0.00
   11    9   22    -15.91      0.00
   12    9   22     -9.69      0.00
    3   10   22     -6.40      0.00
    4   10   22     -1.99      0.00
    5   10   22      4.34      0.00
    6   10   22      3.66      0.00
    7   10   22      4.63      0.00
    8   10   22      3.79      0.00
    9   10   22     -3.95      0.00
   10   10   22     -5.43      0.00
   11   10   22      4.39      0.00
   12   10   22      3.15      0.00
    3   11   22      1.26      0.00
    4   11   22      4.11      0.00
    5   11   22     -1.45      0.00
    6   11   22     -8.22      0.00
    7   11   22     -9.01      0.00
    8   11   22     -4.91      0.00
    9   11   22      0.30      0.00
   10   11   22      7.12      0.00
   11   11   22      1.25      0.00
   12   11   22     -1.69      0.00
   13   11   22     -4.41      0.00
    4   12   22     -8.87      0.00
    5   12   22     -5.39      0.00
    6   12   22      5.06      0.00
    7   12   22      5.29      0.00
    8   12   22     -0.47      0.00
    9   12   22      0.60      0.00
   10   12   22     -3.54      0.00
   11   12   22     -6.11      0.00
   12   12   22     -6.27      0.00
   13   12   22     -4.21      0.00
    4   13   22      4.59      0.00
    5   13   22      6.29      0.00
    6   13   22     -0.85      0.00
    7   13   22     -0.38      0.00
    8   13   22      7.68      0.00
    9   13   22      6.59      0.00
   10   13   22      3.05      0.00
   11   13   22      1.97      0.00
   12   13   22     -0.49      0.00
    5   14   22     -8.46      0.00
    6   14   22     -7.43      0.00
    7   14   22     -5.16      0.00
    8   14   22     -7.79      0.00
    9   14   22     -5.34      0.00
   10   14   22     -0.82      0.00
   11   14   22     -0.94      0.00
   12   14   22     -1.37      0.00
    5   15   22      6.71      0.00
    6   15   22     10.14      0.00
    7   15   22      6.08      0.00
    8   15   22      4.37      0.00
    9   15   22     -0.38      0.00
   10   15   22     -3.37      0.00
   11   15   22     -3.16      0.00
    7   16   22      0.63      0.00
    8   16   22     -4.17      0.00
    9   16   22     -2.17      0.00
    2    4   23     12.16      0.00
    3    4   23     10.01      0.00
    4    4   23      1.04      0.00
    5    4   23     -5.93      0.00
    2    5   23     -3.13      0.00
    3    5   23     -1.93      0.00
    4    5   23      1.52      0.00
    5    5   23      2.18      0.00
    6    5   23      5.18      0.00
    7    5   23      3.84      0.00
    3    6   23     15.84      0.00
    4    6   23     13.74      0.00
    5    6   23      9.98      0.00
    6    6   23     -1.15      0.00
    7    6   23     -8.39      0.00
    8    6   23     -7.76      0.00
    3    7   23     -8.32      0.00
    4    7   23    -10.30      0.00
    5    7   23     -9.16      0.00
    6    7   23     -2.87      0.00
    7    7   23      4.38      0.00
    8    7   23      3.45      0.00
    9    7   23      1.12      0.00
    3    8   23      7.11      0.00
    4    8   23      1.72      0.00
    5    8   23     -5.16      0.00
    6    8   23     -0.39      0.00
    7    8   23      3.61      0.00
    8    8   23      3.67      0.00
    9    8   23      1.00      0.00
    3    9   23     -6.58      0.00
    4    9   23     -6.52      0.00
    5    9   23      3.22      0.00
    6    9   23     -0.25      0.00
    7    9   23     -9.60      0.00
    8    9   23     -7.43      0.00
    9    9   23      1.99      0.00
   10    9   23      0.55      0.00
    3   10   23      5.84      0.00
    4   10   23      6.05      0.00
    5   10   23     -2.20      0.00
    6   10   23     -4.70      0.00
    7   10   23      3.98      0.00
    8   10   23      5.55      0.00
    9   10   23     -1.47      0.00
   10   10   23     -2.07      0.00
    4   11   23     -8.89      0.00
    5   11   23     -8.35      0.00
    6   11   23     -0.36      0.00
    7   11   23      1.96      0.00
    8   11   23     -1.24      0.00
    9   11   23     -4.10      0.00
   10   11   23     -4.70      0.00
    4   12   23      5.83      0.00
    5   12   23     10.97      0.00
    6   12   23      6.92      0.00
    7   12   23     -5.15      0.00
    8   12   23     -9.35      0.00
    9   12   23     -5.48      0.00
   10   12   23     -4.32      0.00
    4   13   23     -2.40      0.00
    5   13   23     -6.76      0.00
    6   13   23     -8.99      0.00
    7   13   23     -1.24      0.00
    8   13   23     -1.55      0.00
    9   13   23     -9.31      0.00
    1    0    0    274.73      0.00
    0    1    0   -128.57      0.00
    1    1    0    -53.14      0.00
   20    1    0     -3.49      0.00
  -19    2    0     -1.37      0.00
   21    3    0     -4.13      0.00
  -17    5    0      0.57      0.00
  -14    9    0     -4.50      0.00
  -13   10    0      3.24      0.00
  -12   11    0     -2.33      0.00
  -11   12    0     -2.03      0.00
    4   14    0      3.19      0.00
   -7   15    0      1.19      0.00
    3   15    0     -2.11      0.00
    4   15    0     -6.76      0.00
    6   15    0      5.16      0.00
    7   15    0     -0.93      0.00
    8   15    0      1.38      0.00
    9   15    0     -2.01      0.00
   10   15    0     -1.87      0.00
   11   15    0      3.17      0.00
   12   15    0      4.85      0.00
   13   15    0      2.16      0.00
    1   16    0     -0.93      0.00
    2   16    0     -4.18      0.00
    3   16    0     -4.56      0.00
    4   16    0      0.87      0.00
    5   16    0     -1.87      0.00
    6   16    0     -4.10      0.00
    7   16    0      1.26      0.00
    8   16    0     -3.40      0.00
    9   16    0      0.34      0.00
   10   16    0      3.02      0.00
   11   16    0      1.40      0.00
   12   16    0      1.78      0.00
   13   16    0      6.64      0.00
   19   16    0     -4.30      0.00
   -4   17    0      1.83      0.00
   -3   17    0      1.55      0.00
   -2   17    0     -2.29      0.00
   -1   17    0      0.45      0.00
    0   17    0     -1.04      0.00
    1   17    0      3.47      0.00
    2   17    0      4.33      0.00
    3   17    0      0.32      0.00
    4   17    0     -0.88      0.00
    5   17    0      4.45      0.00
    6   17    0      6.73      0.00
    7   17    0     -2.94      0.00
    8   17    0      0.01      0.00
    9   17    0     -1.31      0.00
   10   17    0     -0.74      0.00
   11   17    0      4.49      0.00
   12   17    0      6.53      0.00
   13   17    0      3.09      0.00
   14   17    0      1.66      0.00
   15   17    0      0.10      0.00
   16   17    0     -5.04      0.00
   17   17    0     -3.82      0.00
   18   17    0     -2.25      0.00
   19   17    0      1.43      0.00
   -2   18    0      0.61      0.00
   -1   18    0      2.04      0.00
    0   18    0      8.75      0.00
    1   18    0      4.05      0.00
    2   18    0     -3.33      0.00
    3   18    0     -1.54      0.00
    4   18    0     -0.88      0.00
    5   18    0     -4.97      0.00
    6   18    0     -7.09      0.00
    7   18    0      1.22      0.00
    8   18    0     -3.03      0.00
    9   18    0     -2.75      0.00
   10   18    0      1.70      0.00
   11   18    0      0.96      0.00
   12   18    0      0.42      0.00
   13   18    0      1.00      0.00
   14   18    0      0.80      0.00
   15   18    0     -2.73      0.00
   16   18    0     -1.24      0.00
   17   18    0     -3.28      0.00
   18   18    0     -3.16      0.00
    1   19    0     -1.40      0.00
    2   19    0      0.80      0.00
    3   19    0     -3.33      0.00
    4   19    0     -4.27      0.00
    5   19    0      0.04      0.00
    6   19    0      2.70      0.00
    7   19    0     -4.71      0.00
    8   19    0     -0.86      0.00
    9   19    0      3.09      0.00
   10   19    0     -0.61      0.00
   11   19    0     -2.03      0.00
   12   19    0     -2.11      0.00
   13   19    0     -0.77      0.00
   14   19    0     -1.59      0.00
   15   19    0     -0.05      0.00
   16   19    0     -2.28      0.00
    4   20    0      3.35      0.00
    5   20    0      1.74      0.00
    6   20    0     -2.66      0.00
    7   20    0      0.79      0.00
    8   20    0      0.33      0.00
    9   20    0     -1.64      0.00
   10   20    0      0.18      0.00
   11   20    0      0.10      0.00
   12   20    0     -1.17      0.00
   13   20    0     -2.13      0.00
   14   20    0     -0.14      0.00
  -12  -20    1      3.02      0.00
  -11  -20    1      1.71      0.00
  -10  -20    1      1.10      0.00
   -9  -20    1      2.84      0.00
   -8  -20    1      4.17      0.00
   -7  -20    1      1.05      0.00
   -6  -20    1     -0.86      0.00
   -5  -20    1      1.15      0.00
  -15  -19    1     -0.44      0.00
  -14  -19    1     -0.28      0.00
  -13  -19    1      1.81      0.00
  -12  -19    1      1.24      0.00
  -11  -19    1      3.26      0.00
  -10  -19    1      5.06      0.00
   -9  -19    1      3.01      0.00
   -8  -19    1     -3.11      0.00
   -7  -19    1     -0.75      0.00
   -6  -19    1      3.94      0.00
   -5  -19    1      0.48      0.00
   -4  -19    1      3.17      0.00
   -3  -19    1      7.35      0.00
   -2  -19    1      7.55      0.00
   -1  -19    1      0.38      0.00
  -17  -18    1      0.20      0.00
  -16  -18    1      0.15      0.00
  -15  -18    1      0.47      0.00
  -14  -18    1      2.43      0.00
  -13  -18    1      0.46      0.00
  -12  -18    1      0.70      0.00
  -11  -18    1     -0.45      0.00
  -10  -18    1     -1.62      0.00
   -9  -18    1     -1.03      0.00
   -8  -18    1      5.60      0.00
   -7  -18    1      3.71      0.00
   -6  -18    1     -3.82      0.00
   -5  -18    1      2.36      0.00
   -4  -18    1      4.07      0.00
   -3  -18    1      0.18      0.00
   -2  -18    1     -5.26      0.00
   -1  -18    1     -3.62      0.00
    0  -18    1     -6.71      0.00
    1  -18    1     -8.13      0.00
  -18  -17    1     -1.02      0.00
  -17  -17    1      1.92      0.00
  -16  -17    1      2.30      0.00
  -15  -17    1      2.01      0.00
  -14  -17    1     -0.73      0.00
  -13  -17    1      0.59      0.00
  -12  -17    1     -1.00      0.00
  -11  -17    1     -3.94      0.00
  -10  -17    1     -2.88      0.00
   -9  -17    1      1.51      0.00
   -8  -17    1     -1.28      0.00
   -7  -17    1     -3.14      0.00
   -6  -17    1      2.20      0.00
   -5  -17    1     -2.82      0.00
   -4  -17    1     -1.15      0.00
   -3  -17    1      0.89      0.00
   -2  -17    1     -1.32      0.00
    2  -17    1      1.05      0.00
    3  -17    1      2.22      0.00
  -19  -16    1     -1.74      0.00
  -18  -16    1      6.88      0.00
  -17  -16    1      7.48      0.00
  -16  -16    1      6.73      0.00
  -15  -16    1      4.56      0.00
  -14  -16    1      3.29      0.00
  -13  -16    1     -1.15      0.00
  -12  -16    1     -2.66      0.00
  -11  -16    1      2.09      0.00
  -10  -16    1      2.11      0.00
   -9  -16    1     -2.79      0.00
   -8  -16    1     -1.39      0.00
   -7  -16    1      2.87      0.00
   -6  -16    1      0.55      0.00
   -5  -16    1      8.39      0.00
   -4  -16    1      7.24      0.00
   -3  -16    1      1.76      0.00
    4  -16    1     -0.18      0.00
    5  -16    1      2.81      0.00
  -20  -15    1     -1.94      0.00
  -13  -15    1     -0.91      0.00
  -12  -15    1      2.17      0.00
  -11  -15    1     -2.93      0.00
  -10  -15    1     -4.60      0.00
   -9  -15    1     -0.69      0.00
   -8  -15    1     -2.73      0.00
   -7  -15    1     -7.31      0.00
   -6  -15    1     -1.86      0.00
   -5  -15    1     -4.24      0.00
   -4  -15    1     -2.36      0.00
    8  -14    1      1.65      0.00
  -21  -12    1     -5.18      0.00
   17   -5    1      3.03      0.00
  -21   -4    1      0.89      0.00
   -1   -2    1     62.95      0.00
   19   -2    1      3.62      0.00
  -20   -1    1      3.55      0.00
   -1   -1    1    -66.80      0.00
    0   -1    1    -27.85      0.00
   -1    0    1     -6.52      0.00
    0    0    1    -61.08      0.00
    1    0    1   -197.79      0.00
   20    0    1      7.72      0.00
    0    1    1    -40.49      0.00
    1    1    1    131.74      0.00
    1    2    1   -110.34      0.00
   21    3    1     -0.88      0.00
    0    4    1     -8.31      0.00
  -17    5    1      6.90      0.00
   22    7    1      0.52      0.00
  -15    8    1      3.26      0.00
   22    8    1     -2.60      0.00
  -14    9    1     -1.26      0.00
   22    9    1      2.31      0.00
   22   10    1     -4.10      0.00
   22   11    1      2.49      0.00
  -11   12    1     -1.11      0.00
  -10   13    1      1.51      0.00
    3   14    1      6.86      0.00
    4   14    1      2.87      0.00
   21   14    1     -3.46      0.00
    3   15    1      2.51      0.00
    4   15    1      1.61      0.00
   11   15    1      1.34      0.00
   -6   16    1      1.67      0.00
    3   16    1      1.93      0.00
    4   16    1      0.42      0.00
    5   16    1     -7.59      0.00
    6   16    1     -0.02      0.00
    7   16    1      4.54      0.00
    8   16    1     -2.76      0.00
    9   16    1     -1.46      0.00
   10   16    1     -3.75      0.00
   11   16    1     -6.33      0.00
   12   16    1     -5.17      0.00
   20   16    1      5.16      0.00
   -4   17    1      1.15      0.00
    2   17    1     -1.11      0.00
    3   17    1     -2.40      0.00
    4   17    1     -3.94      0.00
    5   17    1      0.07      0.00
    6   17    1     -4.39      0.00
    7   17    1     -8.74      0.00
    8   17    1      0.65      0.00
    9   17    1      0.18      0.00
   10   17    1      1.91      0.00
   11   17    1      1.50      0.00
   12   17    1     -1.20      0.00
   13   17    1     -3.55      0.00
   14   17    1      0.03      0.00
   18   17    1     -2.12      0.00
   19   17    1      0.83      0.00
   -2   18    1      0.79      0.00
   -1   18    1      0.57      0.00
    0   18    1      4.52      0.00
    1   18    1      0.11      0.00
    2   18    1     -0.47      0.00
    3   18    1      0.94      0.00
    4   18    1     -0.57      0.00
    5   18    1     -3.17      0.00
    6   18    1      2.08      0.00
    7   18    1      8.16      0.00
    8   18    1     -0.84      0.00
    9   18    1     -0.53      0.00
   10   18    1     -1.48      0.00
   11   18    1     -1.69      0.00
   12   18    1     -0.07      0.00
   13   18    1      1.01      0.00
   14   18    1      0.55      0.00
   15   18    1      2.94      0.00
   16   18    1      4.67      0.00
   17   18    1     -0.78      0.00
   18   18    1     -0.70      0.00
    0   19    1      0.65      0.00
    1   19    1      4.60      0.00
    2   19    1      2.49      0.00
    3   19    1     -3.43      0.00
    4   19    1     -3.97      0.00
    5   19    1     -0.32      0.00
    6   19    1     -1.04      0.00
    7   19    1     -4.51      0.00
    8   19    1      2.83      0.00
    9   19    1      2.16      0.00
   10   19    1      1.65      0.00
   11   19    1      2.93      0.00
   12   19    1      1.01      0.00
   13   19    1     -0.83      0.00
   14   19    1     -1.64      0.00
   15   19    1     -0.52      0.00
   16   19    1     -2.01      0.00
   17   19    1      1.30      0.00
    3   20    1     -1.80      0.00
    4   20    1     -1.26      0.00
    5   20    1     -2.08      0.00
    6   20    1     -0.83      0.00
    7   20    1      2.36      0.00
    8   20    1     -2.75      0.00
    9   20    1     -3.64      0.00
   10   20    1     -3.22      0.00
   11   20    1     -5.45      0.00
   12   20    1     -5.35      0.00
   13   20    1     -4.13      0.00
   14   20    1     -0.84      0.00
   15   20    1     -0.60      0.00
    7   21    1     -0.96      0.00
    8   21    1     -1.05      0.00
    9   21    1     -2.14      0.00
   10   21    1     -1.91      0.00
   11   21    1      0.26      0.00
   12   21    1      0.20      0.00
   -9  -20    2      1.71      0.00
   -8  -20    2      2.08      0.00
  -14  -19    2      0.86      0.00
  -13  -19    2     -0.55      0.00
  -12  -19    2     -0.84      0.00
  -11  -19    2     -0.17      0.00
  -10  -19    2     -3.29      0.00
   -9  -19    2     -7.08      0.00
   -8  -19    2     -6.29      0.00
   -7  -19    2     -1.59      0.00
   -6  -19    2     -1.04      0.00
   -5  -19    2     -3.57      0.00
   -4  -19    2     -3.42      0.00
   -3  -19    2     -2.95      0.00
  -16  -18    2      3.18      0.00
  -15  -18    2      1.98      0.00
  -14  -18    2      0.21      0.00
  -13  -18    2      1.72      0.00
  -12  -18    2      3.62      0.00
  -11  -18    2      0.43      0.00
  -10  -18    2     -1.28      0.00
   -9  -18    2      0.68      0.00
   -8  -18    2      2.06      0.00
   -7  -18    2     -1.10      0.00
   -6  -18    2      0.92      0.00
   -5  -18    2      5.88      0.00
   -4  -18    2      4.40      0.00
   -3  -18    2      6.12      0.00
   -2  -18    2      8.74      0.00
  -17  -17    2      1.91      0.00
  -16  -17    2     -1.65      0.00
  -15  -17    2     -2.61      0.00
  -14  -17    2     -1.05      0.00
  -13  -17    2     -0.79      0.00
  -12  -17    2     -3.76      0.00
  -11  -17    2     -2.26      0.00
  -10  -17    2      0.95      0.00
   -9  -17    2      0.80      0.00
   -8  -17    2     -1.29      0.00
   -7  -17    2      2.06      0.00
   -6  -17    2      0.90      0.00
   -5  -17    2     -4.80      0.00
   -4  -17    2     -0.05      0.00
  -18  -16    2      0.80      0.00
  -17  -16    2     -2.83      0.00
  -16  -16    2      1.80      0.00
  -15  -16    2      3.91      0.00
  -14  -16    2      0.10      0.00
  -13  -16    2     -3.09      0.00
  -12  -16    2      1.26      0.00
  -11  -16    2      3.55      0.00
  -10  -16    2     -0.09      0.00
   -9  -16    2      0.21      0.00
   -8  -16    2      5.36      0.00
   -7  -16    2      3.19      0.00
   -6  -16    2      0.20      0.00
   -5  -16    2      2.48      0.00
  -19  -15    2      0.64      0.00
  -18  -15    2     -1.97      0.00
  -15  -15    2     -1.55      0.00
  -14  -15    2     -1.68      0.00
  -13  -15    2      0.23      0.00
  -12  -15    2     -4.56      0.00
  -11  -15    2     -8.04      0.00
  -10  -15    2      0.18      0.00
   -9  -15    2      6.14      0.00
   -8  -15    2      2.94      0.00
   -7  -15    2      3.51      0.00
   -6  -15    2      2.78      0.00
  -20  -14    2     -2.84      0.00
  -13  -14    2     -4.77      0.00
  -12  -14    2     -1.20      0.00
  -11  -14    2      4.52      0.00
    9  -13    2     -0.75      0.00
  -21  -11    2      3.01      0.00
  -21   -5    2     -6.54      0.00
   17   -5    2     -2.21      0.00
  -21   -4    2      1.61      0.00
  -20   -1    2      5.56      0.00
   -1    3    2    -13.88      0.00
   21    3    2      5.01      0.00
  -17    5    2     -7.65      0.00
   22    7    2     -1.41      0.00
  -15    8    2      2.08      0.00
  -14    9    2     -2.45      0.00
   22   11    2      3.13      0.00
   22   12    2     -0.41      0.00
  -10   13    2      3.58      0.00
   -9   14    2     -2.37      0.00
   21   15    2      0.21      0.00
    4   16    2      2.82      0.00
    5   16    2      0.67      0.00
    6   16    2      6.42      0.00
    7   16    2     -2.24      0.00
    8   16    2     -6.83      0.00
    9   16    2     -0.07      0.00
   10   16    2     -0.39      0.00
   11   16    2     -1.91      0.00
    4   17    2      2.55      0.00
    5   17    2      3.10      0.00
    6   17    2     -4.75      0.00
    7   17    2     -0.34      0.00
    8   17    2      7.61      0.00
    9   17    2      2.41      0.00
   10   17    2      1.79      0.00
   11   17    2      0.62      0.00
   12   17    2     -1.13      0.00
   -3   18    2      5.78      0.00
   -2   18    2      5.50      0.00
   -1   18    2      1.44      0.00
    3   18    2      1.64      0.00
    4   18    2      0.63      0.00
    5   18    2     -2.05      0.00
    6   18    2      2.85      0.00
    7   18    2      2.38      0.00
    8   18    2     -3.07      0.00
    9   18    2      2.07      0.00
   10   18    2     -0.39      0.00
   11   18    2     -2.47      0.00
   12   18    2     -5.33      0.00
   13   18    2     -6.08      0.00
   14   18    2     -5.30      0.00
   16   18    2      2.38      0.00
   17   18    2      3.17      0.00
   18   18    2      5.67      0.00
   19   18    2      3.10      0.00
   -1   19    2      1.24      0.00
    0   19    2      0.05      0.00
    1   19    2      1.57      0.00
    2   19    2     -1.08      0.00
    3   19    2     -1.07      0.00
    4   19    2      1.54      0.00
    5   19    2      3.29      0.00
    6   19    2      0.21      0.00
    7   19    2      1.55      0.00
    8   19    2      7.40      0.00
    9   19    2      1.66      0.00
   10   19    2      0.87      0.00
   11   19    2      1.06      0.00
   12   19    2      3.13      0.00
   13   19    2      3.78      0.00
   14   19    2      1.67      0.00
   15   19    2     -0.70      0.00
   16   19    2      1.04      0.00
   17   19    2      4.36      0.00
    2   20    2      2.07      0.00
    3   20    2      3.17      0.00
    4   20    2      2.78      0.00
    5   20    2      0.58      0.00
    6   20    2      1.11      0.00
    7   20    2      1.18      0.00
    8   20    2     -1.61      0.00
    9   20    2      1.77      0.00
   10   20    2      1.72      0.00
   11   20    2      2.23      0.00
   12   20    2      3.51      0.00
   13   20    2      2.92      0.00
   14   20    2      2.90      0.00
   15   20    2      2.46      0.00
   16   20    2      3.35      0.00
    5   21    2     -1.11      0.00
    6   21    2     -1.29      0.00
    7   21    2     -1.16      0.00
    8   21    2     -0.27      0.00
    9   21    2     -2.00      0.00
   10   21    2     -0.89      0.00
   11   21    2      0.78      0.00
   12   21    2      0.44      0.00
   13   21    2      0.69      0.00
  -12  -19    3      1.44      0.00
  -11  -19    3      1.49      0.00
  -10  -19    3     -0.03      0.00
   -9  -19    3      0.58      0.00
   -8  -19    3      1.76      0.00
   -7  -19    3      1.59      0.00
   -6  -19    3      0.33      0.00
   -5  -19    3     -1.11      0.00
   -4  -19    3     -1.04      0.00
  -15  -18    3     -0.39      0.00
  -14  -18    3      0.56      0.00
  -13  -18    3      0.43      0.00
  -12  -18    3     -3.30      0.00
  -11  -18    3     -4.38      0.00
  -10  -18    3     -0.83      0.00
   -9  -18    3      0.45      0.00
   -8  -18    3     -2.10      0.00
   -7  -18    3     -2.59      0.00
   -6  -18    3     -1.35      0.00
   -5  -18    3     -1.45      0.00
   -4  -18    3     -3.44      0.00
   -3  -18    3     -6.41      0.00
   -1  -18    3     -5.89      0.00
  -16  -17    3     -2.75      0.00
  -15  -17    3     -0.36      0.00
  -14  -17    3     -2.03      0.00
  -13  -17    3     -5.84      0.00
  -12  -17    3     -3.49      0.00
  -11  -17    3      2.12      0.00
  -10  -17    3      2.80      0.00
   -9  -17    3      0.88      0.00
   -8  -17    3      2.24      0.00
   -7  -17    3      2.22      0.00
   -6  -17    3      0.02      0.00
   -5  -17    3      0.93      0.00
    2  -17    3     -4.50      0.00
  -18  -16    3     -0.07      0.00
  -17  -16    3     -1.31      0.00
  -16  -16    3      0.67      0.00
  -15  -16    3     -4.98      0.00
  -14  -16    3     -7.43      0.00
  -13  -16    3     -1.05      0.00
  -12  -16    3      3.13      0.00
  -11  -16    3     -1.72      0.00
  -10  -16    3     -5.93      0.00
   -9  -16    3     -3.47      0.00
   -8  -16    3     -4.20      0.00
   -7  -16    3     -5.40      0.00
   -6  -16    3     -0.14      0.00
    4  -16    3      3.58      0.00
  -18  -15    3     -1.00      0.00
  -17  -15    3     -2.77      0.00
  -16  -15    3     -8.99      0.00
  -15  -15    3     -5.10      0.00
  -14  -15    3      2.63      0.00
  -13  -15    3     -0.38      0.00
  -12  -15    3     -5.62      0.00
  -11  -15    3      0.84      0.00
  -10  -15    3      9.54      0.00
   -9  -15    3      4.59      0.00
   -8  -15    3      0.84      0.00
   -7  -15    3      5.20      0.00
  -19  -14    3      3.27      0.00
  -16  -14    3     -0.36      0.00
  -15  -14    3      2.54      0.00
  -14  -14    3     -1.62      0.00
  -13  -14    3      0.89      0.00
  -12  -14    3      7.65      0.00
  -11  -14    3      3.47      0.00
  -10  -14    3     -7.15      0.00
   -9  -14    3     -3.01      0.00
   -8  -14    3      4.91      0.00
   -7  -14    3      1.35      0.00
    7  -14    3      1.92      0.00
  -20  -13    3     -0.01      0.00
   10  -12    3      2.18      0.00
  -21   -9    3      0.21      0.00
  -18   -9    3     -0.61      0.00
  -21   -8    3     -5.79      0.00
  -21   -7    3     -1.02      0.00
  -21   -6    3      4.44      0.00
   16   -6    3     -3.31      0.00
  -21   -5    3      5.42      0.00
   18   -3    3     -2.25      0.00
  -20   -1    3     -0.85      0.00
  -19    1    3     -6.19      0.00
  -18    3    3      1.48      0.00
   21    3    3     -3.78      0.00
  -17    5    3     -6.35      0.00
   21    6    3     12.71      0.00
   22    6    3      4.78      0.00
   22    7    3     -2.99      0.00
  -15    8    3     -3.52      0.00
   22   12    3      4.65      0.00
   22   13    3     -6.29      0.00
   -9   14    3      3.30      0.00
   -8   15    3     -0.74      0.00
    5   15    3     -6.87      0.00
    8   16    3      0.55      0.00
   19   16    3     -4.30      0.00
   -5   17    3     -2.32      0.00
    6   17    3      3.12      0.00
    7   17    3      8.85      0.00
    8   17    3      5.46      0.00
    9   17    3     -2.22      0.00
   10   17    3      0.55      0.00
   20   17    3      2.62      0.00
    5   18    3      0.08      0.00
    6   18    3      2.21      0.00
    7   18    3     -2.98      0.00
    8   18    3     -3.65      0.00
    9   18    3      0.51      0.00
   10   18    3     -3.28      0.00
   11   18    3     -3.52      0.00
   12   18    3     -2.60      0.00
   19   18    3      0.24      0.00
   -1   19    3      3.33      0.00
    0   19    3      0.96      0.00
    1   19    3     -0.65      0.00
    2   19    3     -2.68      0.00
    3   19    3      0.75      0.00
    5   19    3      3.77      0.00
    6   19    3      0.97      0.00
    7   19    3      2.46      0.00
    8   19    3      0.37      0.00
    9   19    3     -5.28      0.00
   10   19    3     -0.96      0.00
   11   19    3      0.82      0.00
   12   19    3      2.70      0.00
   13   19    3      0.46      0.00
   14   19    3     -3.41      0.00
   15   19    3     -6.64      0.00
   16   19    3     -4.42      0.00
   17   19    3     -4.13      0.00
   18   19    3     -4.78      0.00
    1   20    3     -1.22      0.00
    2   20    3      0.76      0.00
    3   20    3     -0.30      0.00
    4   20    3     -0.62      0.00
    5   20    3      0.49      0.00
    6   20    3      1.53      0.00
    7   20    3     -1.88      0.00
    8   20    3     -2.56      0.00
    9   20    3      1.56      0.00
   10   20    3     -1.68      0.00
   11   20    3     -3.47      0.00
   12   20    3     -3.80      0.00
   13   20    3     -0.21      0.00
   14   20    3      3.15      0.00
   15   20    3      2.45      0.00
   16   20    3     -0.54      0.00
   17   20    3     -1.38      0.00
    4   21    3     -0.65      0.00
    5   21    3      0.66      0.00
    6   21    3      0.03      0.00
    7   21    3      0.92      0.00
    8   21    3      1.91      0.00
    9   21    3      0.76      0.00
   10   21    3      1.42      0.00
   11   21    3      0.82      0.00
   12   21    3      1.00      0.00
   13   21    3      1.28      0.00
   14   21    3     -0.60      0.00
   -9  -19    4      0.10      0.00
   -8  -19    4     -1.23      0.00
  -13  -18    4     -1.65      0.00
  -12  -18    4     -1.41      0.00
  -11  -18    4      1.46      0.00
  -10  -18    4      3.24      0.00
   -9  -18    4      1.81      0.00
   -8  -18    4      2.12      0.00
   -7  -18    4      3.16      0.00
   -6  -18    4      0.92      0.00
   -5  -18    4      0.13      0.00
   -3  -18    4      0.55      0.00
   -2  -18    4      1.06      0.00
  -15  -17    4      2.54      0.00
  -14  -17    4      2.82      0.00
  -13  -17    4      3.36      0.00
  -12  -17    4      3.02      0.00
  -11  -17    4      0.05      0.00
  -10  -17    4     -1.66      0.00
   -9  -17    4      0.62      0.00
   -8  -17    4      2.04      0.00
   -7  -17    4     -1.56      0.00
   -6  -17    4     -1.14      0.00
    1  -17    4     -3.24      0.00
  -17  -16    4      2.00      0.00
  -16  -16    4      1.83      0.00
  -15  -16    4     -1.59      0.00
  -14  -16    4      2.20      0.00
  -13  -16    4      5.35      0.00
  -12  -16    4      2.58      0.00
  -11  -16    4     -0.32      0.00
  -10  -16    4      1.08      0.00
   -9  -16    4      2.46      0.00
   -8  -16    4     -0.83      0.00
   -7  -16    4      0.51      0.00
    3  -16    4     -2.98      0.00
  -18  -15    4     -0.57      0.00
  -17  -15    4     -0.47      0.00
  -16  -15    4      0.84      0.00
  -15  -15    4      6.97      0.00
  -14  -15    4      4.13      0.00
  -13  -15    4     -3.29      0.00
  -12  -15    4     -1.07      0.00
  -11  -15    4      5.07      0.00
  -10  -15    4      1.12      0.00
   -9  -15    4     -8.99      0.00
   -8  -15    4     -6.90      0.00
    5  -15    4     -2.72      0.00
  -18  -14    4      3.87      0.00
  -17  -14    4      4.97      0.00
  -16  -14    4      4.95      0.00
  -15  -14    4     -0.48      0.00
  -14  -14    4     -0.90      0.00
  -13  -14    4      7.42      0.00
  -12  -14    4      6.02      0.00
  -11  -14    4     -2.64      0.00
  -10  -14    4     -1.29      0.00
   -9  -14    4      9.44      0.00
   -8  -14    4      4.13      0.00
  -19  -13    4      1.47      0.00
  -14  -13    4      3.29      0.00
  -13  -13    4     -2.61      0.00
  -20  -11    4     -3.08      0.00
   12  -10    4     -6.91      0.00
   13   -9    4     -0.34      0.00
   14   -8    4     -1.72      0.00
   15   -7    4     -1.57      0.00
   18   -3    4      5.56      0.00
  -20   -2    4      6.54      0.00
  -19    1    4     -1.47      0.00
   20    1    4     -3.70      0.00
  -18    3    4     -0.86      0.00
   21    3    4     -3.97      0.00
  -17    5    4      5.92      0.00
   22    6    4     -9.23      0.00
   22    7    4      6.75      0.00
  -15    8    4     -3.40      0.00
  -14    9    4      1.97      0.00
   22   13    4     -0.32      0.00
   -8   15    4     -5.92      0.00
    5   15    4     -0.64      0.00
   21   16    4      1.52      0.00
   -5   17    4      7.78      0.00
    8   18    4      0.64      0.00
   -1   19    4      3.58      0.00
    7   19    4     -4.81      0.00
    8   19    4     -7.60      0.00
    9   19    4     -4.27      0.00
   10   19    4      2.68      0.00
   11   19    4      2.31      0.00
   12   19    4      1.37      0.00
   17   19    4      0.95      0.00
   18   19    4     -0.84      0.00
    1   20    4      6.49      0.00
    2   20    4      6.23      0.00
    3   20    4      0.12      0.00
    4   20    4     -3.25      0.00
    5   20    4     -2.17      0.00
    6   20    4     -3.10      0.00
    7   20    4     -2.66      0.00
    8   20    4      2.86      0.00
    9   20    4      4.27      0.00
   10   20    4     -0.08      0.00
   11   20    4      0.03      0.00
   12   20    4     -1.51      0.00
   13   20    4     -0.81      0.00
   14   20    4      0.65      0.00
   15   20    4      0.86      0.00
   16   20    4     -1.72      0.00
   17   20    4     -1.22      0.00
    3   21    4      1.54      0.00
    4   21    4      1.79      0.00
    5   21    4      0.37      0.00
    6   21    4      0.70      0.00
    7   21    4      1.75      0.00
    8   21    4     -1.44      0.00
    9   21    4     -2.45      0.00
   10   21    4      2.49      0.00
   11   21    4      3.34      0.00
   12   21    4      1.33      0.00
   13   21    4     -1.57      0.00
   14   21    4     -1.80      0.00
   15   21    4     -0.53      0.00
    8   22    4      0.34      0.00
    9   22    4      2.03      0.00
   10   22    4      1.61      0.00
   11   22    4      0.10      0.00
  -11  -18    5     -0.17      0.00
  -10  -18    5     -1.42      0.00
   -9  -18    5     -2.81      0.00
   -8  -18    5     -1.55      0.00
   -7  -18    5     -1.34      0.00
   -6  -18    5      0.88      0.00
   -5  -18    5      3.68      0.00
   -4  -18    5      2.92      0.00
  -14  -17    5     -1.09      0.00
  -13  -17    5     -0.77      0.00
  -12  -17    5     -0.89      0.00
  -11  -17    5      1.65      0.00
  -10  -17    5      2.80      0.00
   -9  -17    5      1.54      0.00
   -8  -17    5     -2.26      0.00
   -7  -17    5     -2.51      0.00
   -1  -17    5      5.32      0.00
    0  -17    5      5.20      0.00
  -16  -16    5     -0.24      0.00
  -15  -16    5     -1.53      0.00
  -14  -16    5      2.66      0.00
  -13  -16    5      5.27      0.00
  -12  -16    5      6.60      0.00
  -11  -16    5      4.04      0.00
  -10  -16    5      2.16      0.00
   -9  -16    5      1.40      0.00
   -8  -16    5      1.91      0.00
    2  -16    5     -3.01      0.00
  -17  -15    5     -1.22      0.00
  -16  -15    5      1.29      0.00
  -15  -15    5      4.34      0.00
  -14  -15    5      0.84      0.00
  -13  -15    5     -0.41      0.00
  -12  -15    5      0.95      0.00
  -11  -15    5      1.45      0.00
  -10  -15    5     -1.80      0.00
   -9  -15    5     -1.68      0.00
   -8  -15    5      4.86      0.00
    4  -15    5     -4.46      0.00
  -18  -14    5      0.23      0.00
  -17  -14    5      0.88      0.00
  -16  -14    5      0.59      0.00
  -15  -14    5     -0.77      0.00
  -14  -14    5      2.79      0.00
  -13  -14    5      3.19      0.00
  -12  -14    5     -3.97      0.00
  -11  -14    5     -7.04      0.00
  -10  -14    5     -2.43      0.00
   -9  -14    5     -0.81      0.00
    6  -14    5     -2.44      0.00
  -18  -13    5      1.14      0.00
  -17  -13    5      5.44      0.00
  -14  -13    5      2.96      0.00
  -13  -13    5     -0.31      0.00
  -12  -13    5      6.46      0.00
  -11  -13    5      8.17      0.00
  -10  -13    5      2.95      0.00
   -9  -13    5      0.71      0.00
    9  -12    5      5.06      0.00
  -20  -10    5      0.65      0.00
  -20   -9    5      4.25      0.00
   17   -4    5      1.25      0.00
  -20   -3    5      2.35      0.00
   13   -3    5      9.93      0.00
   19   -1    5     -2.74      0.00
  -19    0    5     -2.40      0.00
   20    1    5     -4.95      0.00
  -18    3    5      1.29      0.00
   21    3    5      2.90      0.00
  -16    6    5     -5.49      0.00
   22    7    5     -0.69      0.00
  -14    9    5      1.43      0.00
   22   14    5      4.25      0.00
   -8   15    5      5.36      0.00
   20   18    5     -4.87      0.00
   -2   19    5     -3.40      0.00
   19   19    5      5.28      0.00
    0   20    5     -2.94      0.00
    1   20    5     -1.75      0.00
    2   20    5     -5.61      0.00
    9   20    5      0.20      0.00
   10   20    5      0.45      0.00
   11   20    5      2.94      0.00
   12   20    5      1.02      0.00
   13   20    5      0.26      0.00
   14   20    5     -0.15      0.00
   15   20    5     -1.67      0.00
   16   20    5     -0.46      0.00
   17   20    5      3.37      0.00
   18   20    5      0.96      0.00
    3   21    5      4.11      0.00
    4   21    5      1.69      0.00
    5   21    5     -0.96      0.00
    6   21    5      2.65      0.00
    7   21    5      1.53      0.00
    8   21    5     -1.93      0.00
    9   21    5      0.15      0.00
   10   21    5      2.54      0.00
   11   21    5      1.25      0.00
   12   21    5      2.27      0.00
   13   21    5      1.89      0.00
   14   21    5      0.09      0.00
   15   21    5     -0.74      0.00
   16   21    5      0.51      0.00
    7   22    5      0.87      0.00
    8   22    5      1.81      0.00
    9   22    5     -1.18      0.00
   10   22    5     -4.91      0.00
   11   22    5     -2.48      0.00
   12   22    5      0.39      0.00
   13   22    5      0.03      0.00
  -12  -17    6     -2.16      0.00
  -11  -17    6      0.53      0.00
  -10  -17    6     -1.74      0.00
   -9  -17    6     -1.40      0.00
   -8  -17    6     -0.83      0.00
   -3  -17    6      1.89      0.00
   -2  -17    6     -0.41      0.00
  -14  -16    6     -0.62      0.00
  -13  -16    6     -1.94      0.00
  -12  -16    6     -4.94      0.00
  -11  -16    6     -9.90      0.00
  -10  -16    6     -5.61      0.00
   -9  -16    6     -1.76      0.00
    1  -16    6     -0.28      0.00
  -16  -15    6      0.35      0.00
  -15  -15    6     -0.81      0.00
  -14  -15    6     -5.99      0.00
  -13  -15    6     -7.06      0.00
  -12  -15    6     -3.68      0.00
  -11  -15    6      2.57      0.00
  -10  -15    6      0.61      0.00
   -9  -15    6     -0.44      0.00
    3  -15    6     -2.31      0.00
  -17  -14    6     -2.69      0.00
  -16  -14    6     -5.66      0.00
  -15  -14    6     -6.47      0.00
  -14  -14    6     -2.69      0.00
  -13  -14    6     -1.83      0.00
  -12  -14    6     -2.61      0.00
  -11  -14    6     -2.39      0.00
  -10  -14    6      1.85      0.00
   -9  -14    6      2.37      0.00
    5  -14    6     -0.82      0.00
  -18  -13    6     -3.67      0.00
  -17  -13    6     -5.05      0.00
  -16  -13    6     -4.13      0.00
  -15  -13    6     -2.79      0.00
  -14  -13    6     -4.68      0.00
  -13  -13    6     -4.12      0.00
  -12  -13    6     -3.15      0.00
  -11  -13    6     -7.24      0.00
  -10  -13    6     -8.99      0.00
    7  -13    6     -3.19      0.00
  -18  -12    6     -3.64      0.00
  -14  -12    6      0.72      0.00
  -13  -12    6     -1.24      0.00
  -19  -11    6      3.68      0.00
   11  -10    6     -5.10      0.00
  -20   -7    6      0.98      0.00
  -20   -6    6     -4.98      0.00
   15   -6    6      2.56      0.00
  -20   -5    6      9.62      0.00
   16   -5    6     -1.64      0.00
  -19    0    6     -3.20      0.00
  -18    2    6     -0.92      0.00
  -17    4    6     -0.36      0.00
   21    4    6     -0.28      0.00
  -16    6    6      0.85      0.00
   22    7    6     -3.75      0.00
  -14    9    6      2.14      0.00
   22   14    6     -6.43      0.00
   -8   15    6     -1.69      0.00
   18   15    6     -1.89      0.00
   -4   18    6     -1.22      0.00
   20   18    6      9.02      0.00
   -2   19    6      5.31      0.00
    0   20    6      1.86      0.00
    8   20    6      0.63      0.00
    9   20    6     -3.71      0.00
   10   20    6     -4.61      0.00
   11   20    6     -7.42      0.00
   17   20    6     -4.98      0.00
   18   20    6     -4.20      0.00
    3   21    6     -0.74      0.00
    4   21    6     -3.82      0.00
    5   21    6      0.89      0.00
    6   21    6      3.57      0.00
    7   21    6     -3.82      0.00
    8   21    6     -2.25      0.00
    9   21    6      2.80      0.00
   10   21    6      1.28      0.00
   11   21    6     -0.67      0.00
   12   21    6      0.56      0.00
   13   21    6      1.67      0.00
   14   21    6      1.72      0.00
   15   21    6      2.53      0.00
   16   21    6      2.14      0.00
    6   22    6     -2.69      0.00
    7   22    6      0.49      0.00
    8   22    6      1.66      0.00
    9   22    6     -1.70      0.00
   10   22    6     -3.21      0.00
   11   22    6     -2.18      0.00
   12   22    6     -2.96      0.00
   13   22    6     -2.73      0.00
   14   22    6     -0.79      0.00
  -10  -17    7     -0.82      0.00
   -9  -17    7      0.44      0.00
   -8  -17    7     -1.39      0.00
   -7  -17    7     -1.09      0.00
   -6  -17    7     -3.97      0.00
   -5  -17    7     -2.43      0.00
  -13  -16    7      2.89      0.00
  -12  -16    7      0.55      0.00
  -11  -16    7     -0.53      0.00
  -10  -16    7      3.84      0.00
   -9  -16    7      1.80      0.00
   -1  -16    7      3.47      0.00
  -15  -15    7      0.76      0.00
  -14  -15    7      0.22      0.00
  -13  -15    7      0.75      0.00
  -12  -15    7      2.04      0.00
  -11  -15    7     -0.62      0.00
  -10  -15    7     -8.77      0.00
    2  -15    7      9.78      0.00
  -16  -14    7      2.68      0.00
  -15  -14    7      3.75      0.00
  -14  -14    7      2.99      0.00
  -13  -14    7     -0.98      0.00
  -12  -14    7     -2.35      0.00
  -11  -14    7      2.30      0.00
  -10  -14    7     11.23      0.00
    4  -14    7     -1.42      0.00
  -17  -13    7      0.86      0.00
  -16  -13    7     -0.80      0.00
  -15  -13    7     -1.28      0.00
  -14  -13    7     -0.27      0.00
  -13  -13    7      3.67      0.00
  -12  -13    7      2.87      0.00
  -11  -13    7     -1.24      0.00
  -10  -13    7     -3.87      0.00
    6  -13    7      2.39      0.00
  -17  -12    7     -0.36      0.00
  -16  -12    7     -3.20      0.00
  -15  -12    7     -1.57      0.00
  -14  -12    7      1.32      0.00
  -13  -12    7     -0.05      0.00
  -12  -12    7      2.72      0.00
  -11  -12    7      6.34      0.00
  -10  -12    7      1.13      0.00
  -18  -11    7     -2.70      0.00
  -17  -11    7     -5.00      0.00
   -2  -10    7      1.55      0.00
  -19   -9    7     -4.60      0.00
   16   -3    7     -8.81      0.00
  -19   -2    7     -3.95      0.00
   19    0    7     -0.81      0.00
  -17    4    7      3.04      0.00
   21    4    7      1.43      0.00
  -15    7    7     10.05      0.00
   22    7    7      0.62      0.00
   22    8    7      0.38      0.00
  -13   10    7      3.23      0.00
   22   14    7     -4.68      0.00
   -8   15    7      2.94      0.00
    6   17    7     -5.29      0.00
   20   17    7     -5.72      0.00
   21   17    7     -0.76      0.00
   -4   18    7      7.48      0.00
   -2   19    7      1.24      0.00
    0   20    7      0.09      0.00
    7   20    7     -1.51      0.00
    8   20    7     -5.79      0.00
    9   20    7     -2.66      0.00
   10   20    7     -2.13      0.00
    2   21    7     -0.54      0.00
    3   21    7     -2.91      0.00
    4   21    7     -0.77      0.00
    8   21    7     -0.07      0.00
    9   21    7     -0.62      0.00
   10   21    7     -2.46      0.00
   11   21    7     -1.82      0.00
   13   21    7     -3.67      0.00
   14   21    7     -3.23      0.00
   15   21    7     -1.19      0.00
   16   21    7     -2.10      0.00
   17   21    7     -0.79      0.00
    6   22    7     -3.08      0.00
    7   22    7      0.72      0.00
    8   22    7     -3.85      0.00
    9   22    7     -3.24      0.00
   10   22    7      2.44      0.00
   11   22    7      4.13      0.00
   12   22    7      2.12      0.00
   13   22    7     -0.21      0.00
   14   22    7      0.38      0.00
  -11  -16    8      3.03      0.00
  -10  -16    8      6.60      0.00
   -9  -16    8      4.32      0.00
   -3  -16    8     -2.73      0.00
  -13  -15    8     -1.11      0.00
  -12  -15    8      0.74      0.00
  -11  -15    8     -1.41      0.00
  -10  -15    8     -0.98      0.00
    1  -15    8      3.26      0.00
  -15  -14    8     -0.04      0.00
  -14  -14    8     -0.35      0.00
  -13  -14    8      2.08      0.00
  -12  -14    8      4.49      0.00
  -11  -14    8      6.63      0.00
  -10  -14    8      1.44      0.00
    3  -14    8      3.30      0.00
  -16  -13    8      0.63      0.00
  -15  -13    8      1.73      0.00
  -14  -13    8      3.99      0.00
  -13  -13    8      4.15      0.00
  -12  -13    8     -0.29      0.00
  -11  -13    8     -2.91      0.00
    5  -13    8     -3.63      0.00
  -17  -12    8      1.39      0.00
  -16  -12    8      1.59      0.00
  -15  -12    8      0.04      0.00
  -14  -12    8     -3.10      0.00
  -13  -12    8     -4.14      0.00
  -12  -12    8      2.31      0.00
  -11  -12    8      3.59      0.00
    7  -12    8      2.42      0.00
  -17  -11    8      1.36      0.00
  -16  -11    8      0.06      0.00
  -13  -11    8      1.86      0.00
  -18  -10    8      0.10      0.00
   10  -10    8      0.88      0.00
   11   -9    8      1.39      0.00
   -1   -7    8     -4.18      0.00
    0   -7    8     -2.14      0.00
  -19   -6    8      1.38      0.00
  -16   -6    8     -4.50      0.00
  -19   -5    8      8.19      0.00
  -19   -4    8     -8.25      0.00
   16   -4    8      2.01      0.00
  -18    1    8      1.86      0.00
   20    2    8     -9.80      0.00
  -17    3    8     -1.34      0.00
  -16    5    8      4.67      0.00
   21    5    8      0.63      0.00
  -15    7    8     -4.53      0.00
   22    8    8      6.33      0.00
   22    9    8     -5.94      0.00
  -12   11    8      0.59      0.00
  -11   12    8     -3.81      0.00
  -10   13    8     -1.31      0.00
   -9   14    8      1.52      0.00
   22   14    8      3.15      0.00
   -8   15    8     -5.14      0.00
   21   15    8     -0.46      0.00
   21   17    8      4.35      0.00
   -4   18    8     -3.27      0.00
   -2   19    8      0.99      0.00
    6   20    8      8.91      0.00
    7   20    8     -0.24      0.00
    2   21    8     -2.72      0.00
    8   21    8      8.39      0.00
    9   21    8      4.32      0.00
   10   21    8      5.48      0.00
   11   21    8      4.87      0.00
   17   21    8      4.10      0.00
    5   22    8     -2.63      0.00
    6   22    8      4.24      0.00
    7   22    8      3.53      0.00
    8   22    8     -1.56      0.00
    9   22    8      0.72      0.00
   10   22    8      0.63      0.00
   11   22    8      1.60      0.00
   12   22    8      3.87      0.00
   13   22    8      1.81      0.00
   14   22    8      1.91      0.00
   15   22    8      0.06      0.00
  -11  -15    9     -3.67      0.00
  -10  -15    9      0.20      0.00
   -1  -15    9     -5.57      0.00
  -13  -14    9      2.88      0.00
  -12  -14    9      2.65      0.00
  -11  -14    9      3.62      0.00
    2  -14    9     -2.72      0.00
  -15  -13    9     -1.14      0.00
  -14  -13    9     -1.11      0.00
  -13  -13    9     -3.63      0.00
  -12  -13    9     -3.94      0.00
  -11  -13    9     -1.47      0.00
    4  -13    9      4.64      0.00
  -16  -12    9      1.95      0.00
  -15  -12    9      1.38      0.00
  -14  -12    9     -0.45      0.00
  -13  -12    9      0.65      0.00
  -12  -12    9      2.63      0.00
  -11  -12    9     -1.34      0.00
    6  -12    9     -4.09      0.00
  -16  -11    9     -0.14      0.00
  -15  -11    9      0.30      0.00
  -14  -11    9      2.49      0.00
  -13  -11    9     -0.08      0.00
  -12  -11    9     -5.84      0.00
  -11  -11    9     -0.95      0.00
  -17  -10    9     -0.38      0.00
  -16  -10    9      3.71      0.00
    9  -10    9      5.46      0.00
  -18   -8    9      0.33      0.00
  -18   -1    9     -1.15      0.00
   19    1    9      2.79      0.00
  -17    2    9      2.14      0.00
   20    3    9     -2.57      0.00
   21    5    9     -5.14      0.00
  -15    6    9      0.95      0.00
  -14    8    9     -3.45      0.00
   22    9    9     -6.73      0.00
   22   10    9     -3.68      0.00
  -11   12    9      7.22      0.00
  -10   13    9     -2.73      0.00
   22   13    9     -2.16      0.00
   -9   14    9      1.73      0.00
   22   14    9     -0.26      0.00
   21   17    9      2.48      0.00
   -4   18    9     -3.01      0.00
   -2   19    9      0.64      0.00
    0   20    9      4.51      0.00
    2   21    9      4.76      0.00
    7   21    9      7.83      0.00
    8   21    9      1.85      0.00
    9   21    9     -1.31      0.00
   10   21    9      3.41      0.00
   17   21    9      1.32      0.00
    5   22    9      3.14      0.00
    8   22    9     -2.81      0.00
    9   22    9      1.13      0.00
   10   22    9     -1.81      0.00
   11   22    9      0.17      0.00
   13   22    9     -1.94      0.00
   14   22    9      0.48      0.00
   15   22    9     -1.97      0.00
   -8  -15   10     -2.96      0.00
   -7  -15   10     -1.96      0.00
   -6  -15   10     -0.30      0.00
   -5  -15   10      2.50      0.00
   -4  -15   10      0.16      0.00
  -12  -14   10      0.21      0.00
  -11  -14   10      0.26      0.00
   -9  -14   10      2.41      0.00
    0  -14   10     -2.63      0.00
  -13  -13   10      0.08      0.00
  -12  -13   10     -2.37      0.00
  -11  -13   10     -4.53      0.00
    3  -13   10     -0.48      0.00
  -14  -12   10     -1.96      0.00
  -13  -12   10     -3.09      0.00
  -12  -12   10     -5.60      0.00
  -11  -12   10     -5.63      0.00
    5  -12   10      7.10      0.00
  -15  -11   10     -0.96      0.00
  -14  -11   10      2.03      0.00
  -13  -11   10      4.62      0.00
  -12  -11   10      9.13      0.00
    6  -11   10     -4.63      0.00
  -16  -10   10      2.34      0.00
  -15  -10   10      1.77      0.00
  -14  -10   10     -1.42      0.00
  -13  -10   10     -0.83      0.00
    8  -10   10     -2.03      0.00
  -17   -8   10      4.36      0.00
   11   -8   10     -0.48      0.00
  -15   -7   10     -5.50      0.00
   12   -7   10     -5.62      0.00
   15   -4   10      0.03      0.00
   16   -3   10     -3.74      0.00
   18    0   10      5.24      0.00
  -17    1   10      2.14      0.00
  -16    4   10     -2.15      0.00
  -15    6   10     -2.00      0.00
   10    6   10     -4.52      0.00
   21    6   10     -5.00      0.00
  -13    9   10      0.41      0.00
   22   10   10      0.77      0.00
   22   11   10      0.44      0.00
   22   12   10     -2.17      0.00
   22   13   10      1.78      0.00
   -5   17   10      0.34      0.00
   -2   19   10      3.00      0.00
    0   20   10     -4.93      0.00
    2   21   10     -2.16      0.00
    6   21   10     -0.52      0.00
    7   21   10     -0.55      0.00
    8   21   10     -6.64      0.00
    9   21   10     -5.92      0.00
   10   21   10     -6.29      0.00
   17   21   10     -3.46      0.00
    5   22   10      3.38      0.00
    7   22   10     -1.96      0.00
    8   22   10      1.48      0.00
    9   22   10     -0.43      0.00
   10   22   10     -2.12      0.00
   11   22   10      1.70      0.00
   15   22   10     -4.07      0.00
   -9  -14   11      4.28      0.00
   -8  -14   11      0.63      0.00
   -7  -14   11     -4.65      0.00
   -4  -14   11      2.51      0.00
   -3  -14   11     -0.19      0.00
    1  -13   11     -3.47      0.00
  -13  -12   11      2.36      0.00
  -12  -12   11      6.91      0.00
  -14  -11   11      0.65      0.00
  -13  -11   11     -0.26      0.00
  -12  -11   11     -2.58      0.00
  -15  -10   11     -1.01      0.00
  -14  -10   11     -3.89      0.00
  -13  -10   11     -3.45      0.00
  -12  -10   11     -3.16      0.00
    7  -10   11     -0.70      0.00
  -16   -9   11      0.65      0.00
  -15   -9   11      2.55      0.00
  -14   -9   11      5.25      0.00
   10   -8   11     -1.15      0.00
  -17   -6   11      7.45      0.00
  -17   -5   11     -1.89      0.00
  -17   -4   11     -2.18      0.00
   12   -4   11    -11.71      0.00
   13   -4   11    -11.31      0.00
  -17   -3   11      5.11      0.00
  -17   -2   11    -10.07      0.00
  -17   -1   11     -1.03      0.00
   17   -1   11      2.54      0.00
  -16    3   11      6.07      0.00
  -15    5   11      0.98      0.00
  -14    7   11      3.84      0.00
   21    7   11     -3.67      0.00
  -13    8   11     -1.53      0.00
   21    8   11     -4.87      0.00
  -12   10   11     -0.67      0.00
   21   14   11     -0.53      0.00
   -6   16   11     -0.80      0.00
   21   16   11      5.52      0.00
   -5   17   11     10.09      0.00
    3   18   11      1.08      0.00
    6   18   11      6.68      0.00
   16   18   11      1.12      0.00
   20   18   11     -5.01      0.00
   -2   19   11      0.76      0.00
    4   19   11      5.72      0.00
    0   20   11      0.56      0.00
    5   20   11     -9.69      0.00
    6   20   11     -4.57      0.00
    2   21   11      0.25      0.00
    6   21   11      5.34      0.00
    7   21   11     -0.79      0.00
    8   21   11     -1.34      0.00
    9   21   11      6.00      0.00
   10   21   11      5.27      0.00
   17   21   11     -1.59      0.00
    5   22   11     -7.99      0.00
    7   22   11     -3.00      0.00
    8   22   11      1.75      0.00
    9   22   11      0.08      0.00
   10   22   11      1.38      0.00
   11   22   11      3.77      0.00
   15   22   11      2.32      0.00
   -9  -13   12     -2.92      0.00
   -8  -13   12      1.89      0.00
   -2  -13   12      6.56      0.00
  -11  -12   12      2.36      0.00
    2  -12   12     -4.27      0.00
  -13  -11   12      0.03      0.00
  -12  -11   12     -0.16      0.00
    4  -11   12     -1.44      0.00
  -14  -10   12     -1.86      0.00
  -13  -10   12     -2.13      0.00
  -12  -10   12     -5.94      0.00
    6  -10   12     -3.16      0.00
  -14   -9   12      0.96      0.00
  -13   -9   12     -1.71      0.00
  -12   -9   12      0.09      0.00
  -15   -8   12      1.00      0.00
  -14   -8   12      1.02      0.00
  -12   -8   12      2.08      0.00
    1   -8   12     -4.56      0.00
    9   -8   12     -1.18      0.00
  -16   -6   12     -2.22      0.00
  -16    1   12     -6.86      0.00
   19    3   12      2.41      0.00
  -15    4   12     -7.50      0.00
   20    5   12     -4.29      0.00
  -14    6   12     -1.47      0.00
   17    6   12      2.22      0.00
   20    6   12     -2.55      0.00
  -13    8   12     -1.50      0.00
   21    8   12     -5.93      0.00
  -12    9   12    -10.49      0.00
   21    9   12      3.42      0.00
   21   10   12     -0.20      0.00
  -10   12   12     -4.70      0.00
   -9   13   12      1.42      0.00
   -8   14   12      1.55      0.00
   -7   14   12      1.38      0.00
   16   14   12      0.83      0.00
   -7   15   12      7.52      0.00
    0   15   12      1.24      0.00
   17   15   12      0.85      0.00
   21   15   12     -0.48      0.00
   -6   16   12     -7.06      0.00
    1   16   12     -1.89      0.00
   21   16   12     -0.03      0.00
    2   17   12      0.04      0.00
    3   17   12      5.71      0.00
   13   17   12      0.41      0.00
   -3   18   12      3.49      0.00
    3   18   12     -0.54      0.00
    4   18   12     -2.02      0.00
    5   18   12      3.52      0.00
   20   18   12      1.87      0.00
    3   19   12     -0.66      0.00
    4   19   12      5.34      0.00
    5   19   12     -0.25      0.00
    6   19   12      3.11      0.00
    7   19   12      6.66      0.00
   19   19   12     -3.79      0.00
    4   20   12     -1.26      0.00
    5   20   12     -0.26      0.00
    6   20   12      0.76      0.00
    7   20   12     -0.98      0.00
    8   20   12      0.24      0.00
   18   20   12     -6.78      0.00
    5   21   12      6.80      0.00
    6   21   12      1.32      0.00
    7   21   12     -0.72      0.00
    8   21   12     -0.07      0.00
    9   21   12      1.61      0.00
   17   21   12      0.01      0.00
    6   22   12      2.95      0.00
    7   22   12      4.06      0.00
    8   22   12      0.79      0.00
    9   22   12     -1.28      0.00
   10   22   12      2.89      0.00
   13   22   12      1.41      0.00
   15   22   12      2.58      0.00
   -9  -12   13     -4.79      0.00
   -8  -12   13     -2.61      0.00
   -1  -12   13     -0.19      0.00
  -11  -11   13     -4.84      0.00
    2  -11   13     -0.99      0.00
  -12  -10   13      3.00      0.00
    3  -10   13      0.96      0.00
  -13   -9   13     -3.83      0.00
  -12   -9   13      0.43      0.00
  -14   -8   13      1.39      0.00
  -13   -8   13      5.05      0.00
  -12   -8   13     -3.17      0.00
    8   -8   13      1.91      0.00
  -15   -6   13     -0.42      0.00
   11   -6   13      0.59      0.00
   12   -5   13     -1.77      0.00
   13   -4   13     -1.24      0.00
   14   -3   13      4.95      0.00
   15   -2   13     -8.33      0.00
  -15    2   13     -3.01      0.00
   18    2   13      3.21      0.00
   19    4   13      0.39      0.00
  -14    5   13     -1.11      0.00
  -13    7   13     -6.45      0.00
   20    7   13      0.63      0.00
  -11   10   13     -3.76      0.00
   21   10   13      1.07      0.00
   21   11   13     -0.31      0.00
   -2   12   13      0.07      0.00
   21   12   13      4.26      0.00
   -1   13   13     -1.93      0.00
   21   13   13     -9.15      0.00
   -1   14   13      2.85      0.00
    0   14   13      0.39      0.00
   21   14   13     -4.62      0.00
    0   15   13     -1.60      0.00
    1   15   13      0.11      0.00
    2   15   13      3.90      0.00
    1   16   13      6.16      0.00
    2   16   13      3.34      0.00
    3   16   13      2.14      0.00
   -4   17   13     -0.44      0.00
    1   17   13     -3.46      0.00
    2   17   13     -2.72      0.00
    3   17   13     -1.92      0.00
    4   17   13     -8.03      0.00
    5   17   13     -3.89      0.00
   20   17   13     -5.25      0.00
    2   18   13      0.46      0.00
    3   18   13     -2.21      0.00
    4   18   13      4.34      0.00
    5   18   13      1.76      0.00
    6   18   13     -4.55      0.00
   -1   19   13      4.95      0.00
    3   19   13      3.12      0.00
    4   19   13     -4.34      0.00
    5   19   13     -7.52      0.00
    6   19   13     -0.48      0.00
    7   19   13     -4.70      0.00
   19   19   13     -0.44      0.00
    4   20   13     -7.09      0.00
    5   20   13      1.27      0.00
    6   20   13      0.99      0.00
    7   20   13      1.31      0.00
    8   20   13      2.06      0.00
   15   20   13      2.65      0.00
   18   20   13     -0.21      0.00
    3   21   13     -2.85      0.00
    5   21   13     -3.08      0.00
    6   21   13     -2.67      0.00
    7   21   13     -0.09      0.00
    8   21   13      0.06      0.00
    9   21   13      0.56      0.00
    6   22   13     -1.38      0.00
    7   22   13     -1.95      0.00
    8   22   13     -2.95      0.00
    9   22   13     -4.02      0.00
   10   22   13     -5.11      0.00
   12   22   13     -5.83      0.00
   14   22   13     -4.35      0.00
   -8  -11   14      1.13      0.00
   -1  -11   14      0.94      0.00
    0  -11   14      0.94      0.00
  -10  -10   14     -3.36      0.00
    3  -10   14     -1.89      0.00
  -12   -9   14      5.24      0.00
    5   -9   14      0.25      0.00
  -13   -8   14     -2.10      0.00
  -12   -8   14     -8.16      0.00
    7   -8   14      3.37      0.00
  -13   -7   14     -1.83      0.00
  -12   -7   14     10.25      0.00
  -14   -6   14      0.21      0.00
   10   -6   14      4.55      0.00
   11   -5   14     -4.47      0.00
  -15   -2   14      7.06      0.00
  -15   -1   14     -5.60      0.00
   15   -1   14      3.14      0.00
   16    0   14     -0.34      0.00
   18    3   14     -4.36      0.00
   19    5   14     -0.15      0.00
  -13    6   14     -2.37      0.00
  -12    8   14     -3.91      0.00
   20    8   14      3.46      0.00
  -11    9   14      4.43      0.00
   20    9   14      5.30      0.00
   -3   10   14     -2.96      0.00
  -10   11   14     -4.96      0.00
   -2   11   14      2.05      0.00
   -9   12   14      3.66      0.00
   -2   12   14      3.30      0.00
   -1   12   14      0.40      0.00
   -1   13   14      1.07      0.00
    0   13   14      0.34      0.00
   -1   14   14      3.92      0.00
    0   14   14      0.77      0.00
    1   14   14      0.03      0.00
    2   14   14     -1.98      0.00
    0   15   14     -1.82      0.00
    1   15   14     -6.67      0.00
    2   15   14     -7.05      0.00
    3   15   14     -6.19      0.00
   -5   16   14     -1.30      0.00
    0   16   14     -2.38      0.00
    1   16   14     -0.94      0.00
    2   16   14     -1.34      0.00
    3   16   14      1.50      0.00
    4   16   14      2.37      0.00
   20   16   14      2.69      0.00
    1   17   14      3.18      0.00
    2   17   14      4.85      0.00
    3   17   14      3.19      0.00
    4   17   14      3.51      0.00
    5   17   14      8.74      0.00
    2   18   14     -5.18      0.00
    3   18   14     -4.27      0.00
    4   18   14     -1.66      0.00
    5   18   14     -6.78      0.00
    6   18   14     -1.60      0.00
    3   19   14      2.83      0.00
    4   19   14     -1.30      0.00
    5   19   14      3.78      0.00
    6   19   14      5.30      0.00
    7   19   14      1.01      0.00
    1   20   14     -4.35      0.00
    4   20   14      3.33      0.00
    5   20   14      3.81      0.00
    6   20   14      1.25      0.00
    7   20   14      3.52      0.00
    8   20   14      1.02      0.00
   13   20   14     -3.21      0.00
    4   21   14     -3.26      0.00
    5   21   14     -4.01      0.00
    6   21   14     -1.56      0.00
    7   21   14     -2.31      0.00
    8   21   14     -2.64      0.00
    9   21   14      1.74      0.00
   16   21   14      2.40      0.00
    7   22   14     -0.18      0.00
    8   22   14      2.99      0.00
    9   22   14      4.70      0.00
   10   22   14      5.38      0.00
   13   22   14      0.27      0.00
   -8  -10   15     -4.74      0.00
   -7  -10   15     -3.66      0.00
   -1  -10   15     -0.74      0.00
    0  -10   15      0.39      0.00
  -10   -9   15     -1.24      0.00
    3   -9   15     -2.47      0.00
  -11   -8   15      3.71      0.00
    5   -8   15      1.82      0.00
  -12   -7   15     -0.16      0.00
  -11   -7   15     -6.80      0.00
    7   -7   15      0.41      0.00
  -12   -6   15     -3.32      0.00
   10   -5   15      0.75      0.00
  -14   -2   15     -0.75      0.00
  -14   -1   15      2.58      0.00
  -14    0   15      1.57      0.00
   14    0   15      1.49      0.00
   16    1   15     -1.21      0.00
  -12    5   15      1.77      0.00
   11    6   15      0.00      0.00
  -10   10   15     -2.79      0.00
   -3   10   15     -1.15      0.00
   20   10   15      1.53      0.00
   -9   11   15      2.76      0.00
   -2   11   15     -1.23      0.00
   20   11   15     -3.82      0.00
   -2   12   15      1.45      0.00
   -1   12   15      0.97      0.00
   20   12   15     -1.60      0.00
   -1   13   15     -3.52      0.00
    0   13   15     -4.69      0.00
    1   13   15     -3.00      0.00
    2   13   15      4.45      0.00
   20   13   15     -4.25      0.00
   -1   14   15      1.11      0.00
    0   14   15      2.15      0.00
    1   14   15      5.28      0.00
    2   14   15      3.28      0.00
    3   14   15     -1.60      0.00
   20   14   15      0.04      0.00
    0   15   15      0.15      0.00
    1   15   15      2.35      0.00
    2   15   15      2.84      0.00
    3   15   15      0.85      0.00
   20   15   15      1.39      0.00
    0   16   15      2.37      0.00
    1   16   15      1.05      0.00
    2   16   15     -2.26      0.00
    3   16   15     -2.45      0.00
    4   16   15     -5.88      0.00
    1   17   15     -8.53      0.00
    2   17   15     -3.53      0.00
    3   17   15     -3.75      0.00
    4   17   15     -0.41      0.00
    5   17   15      0.31      0.00
    2   18   15     -1.25      0.00
    3   18   15      0.52      0.00
    4   18   15      1.34      0.00
    5   18   15      0.74      0.00
    6   18   15      3.76      0.00
    0   19   15      0.96      0.00
    2   19   15      6.37      0.00
    3   19   15      3.31      0.00
    4   19   15      0.24      0.00
    5   19   15      1.80      0.00
    6   19   15     -2.39      0.00
   18   19   15     -1.58      0.00
    2   20   15     -3.04      0.00
    3   20   15     -0.48      0.00
    4   20   15      2.49      0.00
    5   20   15     -1.90      0.00
    6   20   15     -2.64      0.00
    7   20   15     -0.77      0.00
   13   20   15     -1.55      0.00
   17   20   15      3.01      0.00
    5   21   15      5.57      0.00
    6   21   15      4.53      0.00
    7   21   15      2.51      0.00
    8   21   15      2.38      0.00
   15   21   15     -1.71      0.00
    9   22   15     -2.23      0.00
   10   22   15     -0.67      0.00
   11   22   15      0.82      0.00
   12   22   15      1.49      0.00
   -7   -9   16     -2.37      0.00
   -6   -9   16     -4.46      0.00
   -1   -9   16     -0.57      0.00
    0   -9   16     -4.20      0.00
   -9   -8   16     -3.73      0.00
    3   -8   16     -4.04      0.00
  -10   -7   16     -0.50      0.00
   -7   -7   16      5.45      0.00
    5   -7   16      3.31      0.00
  -11   -6   16     -7.37      0.00
  -10   -6   16    -13.80      0.00
    7   -6   16      2.64      0.00
  -12   -5   16      2.52      0.00
  -11   -5   16      3.78      0.00
   10   -4   16     -6.37      0.00
  -13   -2   16     -3.03      0.00
  -13   -1   16     -3.40      0.00
  -13    0   16     -1.63      0.00
  -13    1   16     -4.41      0.00
   15    1   16      3.16      0.00
  -10    2   16     -8.35      0.00
   17    4   16     -0.71      0.00
  -12    5   16     -0.36      0.00
  -11    7   16     -2.58      0.00
   11    8   16      0.97      0.00
   19    8   16      1.38      0.00
  -10    9   16      5.14      0.00
   19    9   16      3.38      0.00
   -3   10   16      5.92      0.00
   19   10   16     -2.95      0.00
   -2   11   16      1.87      0.00
   -8   12   16      0.38      0.00
   -2   12   16     -3.03      0.00
   -1   12   16     -4.38      0.00
   -7   13   16     -1.02      0.00
   -2   13   16     -3.53      0.00
   -1   13   16     -1.75      0.00
    0   13   16     -2.39      0.00
    1   13   16      0.05      0.00
   -6   14   16     -4.87      0.00
   -1   14   16      0.05      0.00
    0   14   16     -4.21      0.00
    1   14   16     -8.24      0.00
    2   14   16     -9.46      0.00
    3   14   16     -2.36      0.00
   -5   15   16      7.01      0.00
    0   15   16     -1.33      0.00
    1   15   16      1.70      0.00
    2   15   16      7.03      0.00
    3   15   16      7.92      0.00
   -4   16   16      1.13      0.00
    0   16   16      0.91      0.00
    1   16   16      2.54      0.00
    2   16   16      2.46      0.00
    3   16   16      0.74      0.00
    4   16   16     -3.04      0.00
   19   16   16      0.88      0.00
    1   17   16      1.93      0.00
    2   17   16      2.31      0.00
    3   17   16     -1.25      0.00
    4   17   16      0.43      0.00
    5   17   16     -3.28      0.00
   -1   18   16      7.97      0.00
    1   18   16      2.77      0.00
    2   18   16     -0.32      0.00
    3   18   16      3.19      0.00
    4   18   16      0.15      0.00
    5   18   16     -0.67      0.00
    6   18   16     -1.65      0.00
   18   18   16     -0.01      0.00
    2   19   16     -0.76      0.00
    3   19   16     -4.09      0.00
    4   19   16     -1.83      0.00
    5   19   16      3.52      0.00
    6   19   16      5.91      0.00
    3   20   16      2.84      0.00
    4   20   16      1.34      0.00
    5   20   16     -3.76      0.00
    6   20   16     -5.17      0.00
    7   20   16     -4.53      0.00
   16   20   16     -1.19      0.00
    6   21   16     -1.75      0.00
    7   21   16     -2.53      0.00
    8   21   16     -2.45      0.00
   14   21   16     -0.44      0.00
   -5   -8   17     -1.34      0.00
   -4   -8   17     -0.36      0.00
   -3   -8   17      2.56      0.00
   -2   -8   17      0.36      0.00
   -1   -8   17      0.73      0.00
    0   -8   17      1.98      0.00
   -8   -7   17      2.67      0.00
    3   -7   17      2.19      0.00
   -9   -6   17      8.33      0.00
    5   -6   17      1.61      0.00
  -10   -5   17     -0.48      0.00
   -9   -5   17     -3.52      0.00
    7   -5   17     -2.77      0.00
  -11   -4   17      0.59      0.00
   -2   -4   17      0.77      0.00
   10   -3   17     -6.38      0.00
  -12   -1   17      4.84      0.00
  -12    0   17      2.95      0.00
  -12    1   17      0.03      0.00
  -12    2   17      1.03      0.00
   15    2   17     -4.45      0.00
   -8    4   17      5.50      0.00
   17    5   17     -1.60      0.00
   18    8   17      0.61      0.00
   12   10   17     -1.47      0.00
   -8   11   17     -5.24      0.00
   -3   11   17      1.95      0.00
   19   11   17     -2.43      0.00
   -7   12   17      5.28      0.00
   -2   12   17      0.83      0.00
   19   12   17     -0.20      0.00
   -6   13   17      5.46      0.00
   -2   13   17      1.75      0.00
   -1   13   17      2.55      0.00
    0   13   17      1.67      0.00
   15   13   17     -0.62      0.00
   19   13   17     -0.89      0.00
   -1   14   17      1.03      0.00
    0   14   17      2.62      0.00
    1   14   17      3.03      0.00
    2   14   17      5.44      0.00
   19   14   17     -0.33      0.00
   -1   15   17     -2.00      0.00
    0   15   17      2.82      0.00
    1   15   17      1.50      0.00
    2   15   17     -5.43      0.00
    3   15   17    -11.70      0.00
   -3   16   17     -0.16      0.00
    0   16   17      4.54      0.00
    1   16   17      0.85      0.00
    2   16   17      1.24      0.00
    3   16   17      6.95      0.00
    4   16   17     10.58      0.00
    1   17   17     -0.47      0.00
    2   17   17     -0.39      0.00
    3   17   17     -1.69      0.00
    4   17   17     -1.92      0.00
    5   17   17     -3.94      0.00
   18   17   17     -0.68      0.00
    1   18   17      1.81      0.00
    2   18   17      3.29      0.00
    3   18   17      5.96      0.00
    4   18   17      3.89      0.00
    5   18   17      3.97      0.00
    2   19   17     -1.16      0.00
    3   19   17     -2.79      0.00
    4   19   17      0.17      0.00
    5   19   17     -1.33      0.00
    6   19   17     -1.34      0.00
    4   20   17     -1.43      0.00
    5   20   17      0.33      0.00
    6   20   17      5.29      0.00
    7   20   17     11.09      0.00
   15   20   17      0.77      0.00
    7   21   17     -1.98      0.00
    8   21   17     -0.54      0.00
   12   21   17     -0.03      0.00
   13   21   17     -1.08      0.00
   -3   -7   18      5.72      0.00
   -2   -7   18      7.63      0.00
   -6   -6   18      2.59      0.00
    2   -6   18      2.19      0.00
    3   -6   18      4.14      0.00
   -8   -5   18     -0.63      0.00
   -7   -5   18     -4.15      0.00
    5   -5   18      3.58      0.00
   -9   -4   18     -6.68      0.00
   -8   -4   18     -7.79      0.00
   -7   -4   18     -3.93      0.00
    7   -4   18     -1.97      0.00
  -10   -3   18      1.12      0.00
   10   -2   18      5.62      0.00
   11   -1   18      4.73      0.00
   12    0   18     -7.02      0.00
   13    1   18     -1.20      0.00
   14    2   18      1.06      0.00
   16    5   18     -4.92      0.00
  -10    6   18     -6.30      0.00
   17    7   18      3.36      0.00
   -9    8   18     -3.48      0.00
   -3   10   18     -6.66      0.00
   11   10   18     -0.10      0.00
   18   10   18      7.28      0.00
   -7   11   18      3.49      0.00
   -3   11   18      0.04      0.00
   12   11   18     -2.59      0.00
   17   11   18     -2.25      0.00
   18   11   18     -7.46      0.00
   -6   12   18     -4.50      0.00
   -2   12   18     -4.25      0.00
   18   12   18      6.63      0.00
   -2   13   18     -1.14      0.00
   -1   13   18      1.08      0.00
   18   13   18     -2.53      0.00
   -1   14   18     -2.93      0.00
    0   14   18     -3.52      0.00
    1   14   18     -4.58      0.00
    2   14   18     -0.39      0.00
   18   14   18      6.06      0.00
   -1   15   18      0.71      0.00
    0   15   18     -0.35      0.00
    1   15   18      2.36      0.00
    2   15   18      1.51      0.00
    3   15   18      3.99      0.00
   18   15   18     -4.82      0.00
    0   16   18     -2.44      0.00
    1   16   18     -3.00      0.00
    2   16   18     -4.49      0.00
    3   16   18     -8.92      0.00
    4   16   18    -14.58      0.00
   -1   17   18      5.95      0.00
    1   17   18      1.16      0.00
    2   17   18     -0.14      0.00
    3   17   18      0.66      0.00
    4   17   18      5.40      0.00
    5   17   18      8.98      0.00
   17   17   18      0.53      0.00
    1   18   18     -4.29      0.00
    2   18   18     -6.34      0.00
    3   18   18     -6.37      0.00
    4   18   18     -6.34      0.00
    5   18   18     -6.15      0.00
   14   18   18     -3.05      0.00
    3   19   18     -0.25      0.00
    4   19   18     -0.23      0.00
    5   19   18     -2.22      0.00
    6   19   18     -4.39      0.00
    5   20   18      0.37      0.00
    6   20   18     -0.36      0.00
    7   20   18      3.21      0.00
   14   20   18     -3.98      0.00
   -5   -5   19     -0.19      0.00
   -4   -5   19     -0.45      0.00
   -3   -5   19     -3.31      0.00
    0   -5   19     -9.93      0.00
    1   -5   19     -5.64      0.00
    2   -5   19     -3.01      0.00
   -7   -4   19      0.75      0.00
   -6   -4   19      1.48      0.00
   -5   -4   19      7.45      0.00
    4   -4   19      6.55      0.00
   -8   -3   19      1.25      0.00
   -7   -3   19      1.44      0.00
   -9   -1   19      0.05      0.00
   -4    4   19     -2.89      0.00
   -9    5   19     -4.10      0.00
   -4    5   19    -12.68      0.00
   15    5   19      0.17      0.00
   -4    6   19      6.05      0.00
   -3    6   19      5.82      0.00
   -3    7   19      3.74      0.00
   16    7   19     -0.84      0.00
   -8    8   19      1.03      0.00
   -3    8   19     -2.16      0.00
   -2    8   19     -2.29      0.00
   -3    9   19      0.27      0.00
   -2    9   19      4.35      0.00
   -3   10   19      0.91      0.00
   -2   10   19      1.36      0.00
   -1   10   19     -3.36      0.00
   17   10   19     -0.26      0.00
   -6   11   19      0.81      0.00
   -3   11   19     -2.17      0.00
   -2   11   19     -2.95      0.00
   -1   11   19     -2.64      0.00
    0   11   19     -2.13      0.00
   17   11   19     -7.20      0.00
   -5   12   19     -2.95      0.00
   -2   12   19      6.13      0.00
   -1   12   19      5.66      0.00
    0   12   19      3.64      0.00
    1   12   19      4.14      0.00
   17   12   19      3.16      0.00
   -2   13   19     -2.98      0.00
   -1   13   19     -2.58      0.00
    0   13   19     -0.29      0.00
    1   13   19     -3.14      0.00
    2   13   19     -4.31      0.00
   10   13   19     -0.55      0.00
   17   13   19     -7.41      0.00
   -1   14   19     -2.84      0.00
    0   14   19     -3.71      0.00
    1   14   19     -0.86      0.00
    2   14   19     -0.46      0.00
    3   14   19     -6.97      0.00
   17   14   19      4.35      0.00
   -1   15   19      8.50      0.00
    0   15   19      5.27      0.00
    1   15   19     -0.52      0.00
    2   15   19     -5.43      0.00
    3   15   19      0.19      0.00
   17   15   19     -6.51      0.00
   -1   16   19     -1.69      0.00
    0   16   19     -2.85      0.00
    1   16   19     -3.86      0.00
    2   16   19      0.89      0.00
    3   16   19      1.92      0.00
    4   16   19      3.16      0.00
   10   16   19      0.96      0.00
    0   17   19     -4.55      0.00
    1   17   19      0.39      0.00
    2   17   19      3.14      0.00
    3   17   19      3.09      0.00
    4   17   19     -0.71      0.00
    5   17   19     -5.94      0.00
   16   17   19     -1.87      0.00
    2   18   19      1.83      0.00
    3   18   19      2.27      0.00
    4   18   19      1.63      0.00
    5   18   19      1.66      0.00
    6   18   19      5.97      0.00
    4   19   19      1.08      0.00
    5   19   19      3.80      0.00
    6   19   19      3.17      0.00
   14   19   19     -1.16      0.00
    8   20   19     -4.91      0.00
    9   20   19     -4.71      0.00
   10   20   19     -5.00      0.00
   11   20   19     -6.29      0.00
   -2   -4   20     -2.34      0.00
   -1   -4   20      0.65      0.00
    0   -4   20      1.25      0.00
   -5   -3   20     -1.05      0.00
   -4   -3   20      5.55      0.00
   -3   -3   20     11.39      0.00
    3   -3   20      4.22      0.00
    4   -3   20      3.47      0.00
   -3   -2   20    -14.16      0.00
    6   -2   20     -7.55      0.00
   -7   -1   20      3.71      0.00
   -3   -1   20     11.56      0.00
   -3    0   20    -14.02      0.00
    9    0   20      5.28      0.00
   -8    1   20     -1.02      0.00
   -3    1   20      3.10      0.00
   -8    2   20      0.74      0.00
   -4    2   20     -7.97      0.00
   -3    2   20     -3.56      0.00
   -2    2   20     -1.35      0.00
   -8    3   20     -6.79      0.00
   -4    3   20      5.05      0.00
   -3    3   20      6.82      0.00
   -2    3   20      6.36      0.00
   -8    4   20     -7.53      0.00
   -4    4   20     -0.57      0.00
   -3    4   20     -1.83      0.00
   -2    4   20     -0.44      0.00
   13    4   20     -5.49      0.00
   -8    5   20      2.36      0.00
   -4    5   20      6.65      0.00
   -3    5   20      2.66      0.00
   -2    5   20     -2.86      0.00
   -1    5   20      5.46      0.00
   -3    6   20     -5.68      0.00
   -2    6   20     -1.02      0.00
   -1    6   20     -2.99      0.00
   -5    7   20      2.49      0.00
   -3    7   20     -9.26      0.00
   -2    7   20     -6.89      0.00
   -1    7   20     -1.06      0.00
    0    7   20      1.49      0.00
   15    7   20      5.98      0.00
   -3    8   20      0.49      0.00
   -2    8   20      0.22      0.00
   -1    8   20      2.27      0.00
    0    8   20      2.85      0.00
   -3    9   20     -8.12      0.00
   -2    9   20     -7.30      0.00
   -1    9   20    -10.82      0.00
    0    9   20    -11.35      0.00
    1    9   20     -0.14      0.00
   -3   10   20     -3.13      0.00
   -2   10   20     -3.65      0.00
   -1   10   20      1.87      0.00
    0   10   20      8.89      0.00
    1   10   20      6.94      0.00
   16   10   20      2.38      0.00
   -5   11   20      1.42      0.00
   -2   11   20      1.48      0.00
   -1   11   20      1.07      0.00
    0   11   20     -2.69      0.00
    1   11   20     -6.30      0.00
    2   11   20     -5.36      0.00
   16   11   20      3.15      0.00
   -4   12   20      4.91      0.00
   -2   12   20      1.01      0.00
   -1   12   20     -3.54      0.00
    0   12   20     -4.35      0.00
    1   12   20      0.77      0.00
    2   12   20      1.45      0.00
   16   12   20      6.01      0.00
   -3   13   20      0.75      0.00
   -2   13   20      3.97      0.00
   -1   13   20      5.88      0.00
    0   13   20      3.93      0.00
    1   13   20     -4.62      0.00
    2   13   20     -6.83      0.00
    3   13   20     -3.45      0.00
   16   13   20     -7.91      0.00
   -2   14   20     -0.34      0.00
   -1   14   20     -2.18      0.00
    0   14   20     -2.61      0.00
    1   14   20      1.53      0.00
    2   14   20      3.42      0.00
    3   14   20      4.63      0.00
   16   14   20      3.27      0.00
   -1   15   20      0.82      0.00
    0   15   20     -2.36      0.00
    1   15   20     -3.26      0.00
    2   15   20     -0.20      0.00
    3   15   20      2.35      0.00
    4   15   20     -4.35      0.00
   15   15   20     -1.14      0.00
   16   15   20     -0.46      0.00
    0   16   20      3.48      0.00
    1   16   20      4.32      0.00
    2   16   20      3.72      0.00
    3   16   20      0.10      0.00
    4   16   20      1.65      0.00
   15   16   20      5.30      0.00
    2   17   20     -0.24      0.00
    3   17   20      1.27      0.00
    4   17   20      2.39      0.00
    5   17   20      6.34      0.00
   15   17   20     -2.75      0.00
    4   18   20     -0.45      0.00
    5   18   20     -4.32      0.00
    6   18   20     -7.45      0.00
   14   18   20      3.00      0.00
    7   19   20      4.89      0.00
    8   19   20     10.52      0.00
   11   19   20      8.33      0.00
   12   19   20      2.83      0.00
   -2   -2   21      3.77      0.00
   -1   -2   21      1.17      0.00
    0   -2   21      0.73      0.00
    1   -2   21     -1.16      0.00
    2   -2   21      3.67      0.00
   -4   -1   21     -0.64      0.00
   -3   -1   21     -0.29      0.00
   -2   -1   21     -2.92      0.00
   -1   -1   21      5.69      0.00
    0   -1   21      7.72      0.00
    1   -1   21      6.71      0.00
    5   -1   21     -0.70      0.00
   -5    0   21      2.65      0.00
   -3    0   21      8.62      0.00
   -2    0   21     13.61      0.00
   -1    0   21      4.09      0.00
    0    0   21     -2.59      0.00
    1    0   21     -3.47      0.00
    7    0   21      7.93      0.00
   -6    1   21      5.13      0.00
   -3    1   21      3.29      0.00
   -2    1   21     -2.90      0.00
   -1    1   21     -0.60      0.00
    0    1   21      5.51      0.00
    1    1   21      6.29      0.00
    8    1   21     -2.19      0.00
   -3    2   21      1.45      0.00
   -2    2   21      3.56      0.00
   -1    2   21      7.41      0.00
    0    2   21      7.24      0.00
    1    2   21      8.41      0.00
   -3    3   21     -3.73      0.00
   -2    3   21     -1.70      0.00
   -1    3   21     -1.83      0.00
    0    3   21     -0.56      0.00
   -3    4   21      5.31      0.00
   -2    4   21      3.60      0.00
   -1    4   21     -0.69      0.00
    0    4   21     -1.97      0.00
   -3    5   21      5.64      0.00
   -2    5   21      4.81      0.00
   -1    5   21      6.45      0.00
    0    5   21      0.85      0.00
    1    5   21     -3.05      0.00
   -3    6   21     12.25      0.00
   -2    6   21      7.02      0.00
   -1    6   21     -3.08      0.00
    0    6   21     -3.06      0.00
    1    6   21     -3.52      0.00
   13    6   21     -1.21      0.00
   -6    7   21     -3.53      0.00
   -3    7   21     -4.15      0.00
   -2    7   21     -2.59      0.00
   -1    7   21     -0.25      0.00
    0    7   21     -0.59      0.00
    1    7   21      0.30      0.00
   -3    8   21      1.37      0.00
   -2    8   21     -0.61      0.00
   -1    8   21      1.38      0.00
    0    8   21     -1.52      0.00
    1    8   21     -6.35      0.00
   14    8   21     -1.26      0.00
   -5    9   21      1.74      0.00
   -3    9   21      6.89      0.00
   -2    9   21      9.30      0.00
   -1    9   21      3.72      0.00
    0    9   21      0.67      0.00
    1    9   21      1.39      0.00
   -3   10   21      2.09      0.00
   -2   10   21      1.15      0.00
   -1   10   21      0.71      0.00
    0   10   21     -1.60      0.00
    1   10   21     -3.95      0.00
    2   10   21      0.70      0.00
   -2   11   21      3.50      0.00
   -1   11   21      4.61      0.00
    0   11   21      4.72      0.00
    1   11   21      6.17      0.00
    2   11   21      7.85      0.00
   15   11   21     -0.31      0.00
   -3   12   21     -1.59      0.00
   -2   12   21     -1.83      0.00
   -1   12   21     -2.32      0.00
    0   12   21     -0.54      0.00
    1   12   21      1.30      0.00
    2   12   21     -1.44      0.00
   15   12   21     -0.51      0.00
   -2   13   21      1.56      0.00
   -1   13   21      1.34      0.00
    0   13   21     -1.04      0.00
    1   13   21     -3.06      0.00
    2   13   21      2.10      0.00
    3   13   21      2.86      0.00
   15   13   21      4.19      0.00
   -1   14   21      0.85      0.00
    0   14   21      2.00      0.00
    1   14   21      3.75      0.00
    2   14   21      0.77      0.00
    3   14   21      1.02      0.00
   15   14   21      5.84      0.00
    0   15   21     -3.76      0.00
    1   15   21     -2.05      0.00
    2   15   21      0.77      0.00
    3   15   21      0.22      0.00
    4   15   21     -4.29      0.00
   14   15   21      0.19      0.00
    2   16   21     -1.83      0.00
    3   16   21     -1.64      0.00
    4   16   21      1.94      0.00
   14   16   21      3.00      0.00
    4   17   21     -3.39      0.00
    5   17   21     -3.20      0.00
   12   17   21     -2.12      0.00
   13   17   21     -5.65      0.00
    6   18   21      3.20      0.00
    7   18   21      6.46      0.00
    8   18   21      5.19      0.00
    9   18   21      1.78      0.00
   10   18   21      4.11      0.00
   11   18   21      2.98      0.00
   -1    0   22     -6.34      0.00
    0    0   22     -0.71      0.00
    1    0   22      2.92      0.00
    2    0   22      4.66      0.00
   -3    1   22      0.09      0.00
   -2    1   22      0.08      0.00
   -1    1   22      4.58      0.00
    0    1   22     -0.53      0.00
    1    1   22     -5.31      0.00
    5    1   22      4.21      0.00
   -3    2   22     -2.02      0.00
   -2    2   22     -2.21      0.00
   -1    2   22     -8.50      0.00
    0    2   22    -10.51      0.00
    1    2   22     -4.39      0.00
    3    2   22      1.40      0.00
    7    2   22     -4.25      0.00
   -4    3   22      4.94      0.00
   -3    3   22      4.68      0.00
   -2    3   22     -0.45      0.00
   -1    3   22     -1.20      0.00
    0    3   22      2.85      0.00
    1    3   22      3.14      0.00
   -3    4   22     -7.46      0.00
   -2    4   22     -6.66      0.00
   -1    4   22     -4.74      0.00
    0    4   22     -4.16      0.00
    1    4   22     -0.45      0.00
   -3    5   22     -4.85      0.00
   -2    5   22     -1.49      0.00
   -1    5   22      0.54      0.00
    0    5   22     -0.01      0.00
    1    5   22     -0.04      0.00
    3    5   22     -4.83      0.00
   -3    6   22     -8.60      0.00
   -2    6   22     -7.40      0.00
   -1    6   22     -6.01      0.00
    0    6   22     -2.48      0.00
    1    6   22     -3.23      0.00
   -4    7   22      0.76      0.00
   -3    7   22      4.12      0.00
   -2    7   22      5.94      0.00
   -1    7   22      3.62      0.00
    0    7   22      0.43      0.00
    1    7   22      1.38      0.00
   12    7   22     -5.51      0.00
   -3    8   22      3.23      0.00
   -2    8   22      1.15      0.00
   -1    8   22      0.50      0.00
    0    8   22     -2.60      0.00
    1    8   22     -3.66      0.00
   -3    9   22     -1.21      0.00
   -2    9   22     -1.51      0.00
   -1    9   22     -4.73      0.00
    0    9   22      0.25      0.00
    1    9   22      5.21      0.00
    2    9   22      3.88      0.00
   13    9   22     -3.23      0.00
   -2   10   22      1.36      0.00
   -1   10   22      5.28      0.00
    0   10   22      5.01      0.00
    1   10   22     -0.33      0.00
    2   10   22     -4.62      0.00
   13   10   22      1.91      0.00
   -2   11   22     -0.41      0.00
   -1   11   22     -2.04      0.00
    0   11   22     -5.57      0.00
    1   11   22     -4.95      0.00
    2   11   22     -1.36      0.00
   -1   12   22     -2.88      0.00
    0   12   22     -0.25      0.00
    1   12   22     -0.91      0.00
    2   12   22     -5.58      0.00
    3   12   22     -6.52      0.00
    0   13   22     -0.76      0.00
    1   13   22     -0.29      0.00
    2   13   22      3.17      0.00
    3   13   22      3.07      0.00
   13   13   22      0.32      0.00
    1   14   22      1.46      0.00
    2   14   22      0.30      0.00
    3   14   22      0.60      0.00
    4   14   22     -1.69      0.00
   13   14   22     -5.67      0.00
    2   15   22      1.72      0.00
    3   15   22     -0.87      0.00
    4   15   22     -0.80      0.00
   12   15   22     -1.79      0.00
    4   16   22      1.74      0.00
    5   16   22     -0.34      0.00
    6   16   22     -1.14      0.00
   10   16   22     -0.14      0.00
   11   16   22      1.07      0.00
   12   16   22      1.76      0.00
    7   17   22     -1.56      0.00
    8   17   22      3.16      0.00
    9   17   22      0.84      0.00
   10   17   22     -1.35      0.00
    0    3   23      1.62      0.00
    1    3   23     -3.51      0.00
    2    3   23     -4.76      0.00
    3    3   23     -1.88      0.00
    4    3   23      4.05      0.00
    5    3   23      6.04      0.00
   -1    4   23      2.21      0.00
    0    4   23      3.32      0.00
    1    4   23      9.07      0.00
    6    4   23     -4.40      0.00
   -1    5   23     -2.07      0.00
    0    5   23     -1.37      0.00
    1    5   23     -2.78      0.00
    8    5   23      2.75      0.00
   -2    6   23      0.14      0.00
   -1    6   23      1.72      0.00
    0    6   23      2.95      0.00
    1    6   23      4.64      0.00
    2    6   23      9.79      0.00
    9    6   23     -4.23      0.00
   -2    7   23     -3.99      0.00
   -1    7   23     -3.38      0.00
    0    7   23     -1.11      0.00
    1    7   23      1.34      0.00
    2    7   23     -0.69      0.00
   -1    8   23      5.61      0.00
    0    8   23      5.19      0.00
    1    8   23      4.93      0.00
    2    8   23      5.94      0.00
   10    8   23      3.89      0.00
   -1    9   23     -4.80      0.00
    0    9   23     -2.30      0.00
    1    9   23     -0.55      0.00
    2    9   23     -2.18      0.00
   11    9   23      2.47      0.00
    0   10   23     -1.90      0.00
    1   10   23     -0.92      0.00
    2   10   23      2.58      0.00
   11   10   23     -2.73      0.00
    0   11   23     -0.64      0.00
    1   11   23      2.08      0.00
    2   11   23      0.73      0.00
    3   11   23     -4.75      0.00
   11   11   23     -4.27      0.00
    1   12   23      2.60      0.00
    2   12   23      2.36      0.00
    3   12   23      4.47      0.00
   11   12   23      0.95      0.00
    2   13   23      0.88      0.00
    3   13   23     -1.56      0.00
   10   13   23     -6.07      0.00
   11   13   23     -2.87      0.00
    4   14   23     -0.24      0.00
    5   14   23      0.87      0.00
    6   14   23      4.86      0.00
    7   14   23     -1.08      0.00
    8   14   23     -4.62      0.00
    9   14   23      1.57      0.00
   10   14   23      2.80      0.00
    6   15   23     -6.58      0.00
    7   15   23     -6.09      0.00
    8   15   23     -0.30      0.00
    9   15   23     -0.51      0.00
    0    0    0      0.00      0.00
# SQUEEZE RESULTS (Version = 230916)
# Note: Data are Listed for all Voids in the P1 Unit Cell
# i.e. Centre of Gravity, Solvent Accessible Volume,
# Recovered number of Electrons in the Void and
# Details about the Squeezed Material
loop_
  _platon_squeeze_void_nr
  _platon_squeeze_void_average_x
  _platon_squeeze_void_average_y
  _platon_squeeze_void_average_z
  _platon_squeeze_void_volume
  _platon_squeeze_void_count_electrons
  _platon_squeeze_void_content
   1  0.000 -0.165  0.345      1204       350 ' '
# Missing Reflections Below sin(th)/lambda = 0.25
loop_
  _platon_missing_refln_index_h
  _platon_missing_refln_index_k
  _platon_missing_refln_index_l
  _platon_missing_refln_theta
    1    0    0     1.375
    0    1    0     1.449
    1    1    0     1.527
   -1   -2    1     3.349
   -1   -1    1     2.302
    0   -1    1     2.218
   -1    0    1     1.894
    0    0    1     1.244
    1    0    1     1.814
    0    1    1     1.542
    1    1    1     1.568
    1    2    1     2.415
    0    4    1     5.492
   -1    3    2     4.969
_platon_squeeze_void_probe_radius                  1.20
_platon_squeeze_details
)
TITL T         P -1         R = 0.12
CELL   16.7130   16.9270   17.9440     65.93     77.11     62.49
SPGR P-1
# Solvent Accessible Volume =      1201
# Electrons Found in S.A.V. =       349
# Note: Atoms in Void as Cxxx and Qxxx all others
C101 0.294 0.505 0.138 !       4.34 eA-3
C102 0.073 0.058 0.232 !       3.98 eA-3
C103 0.075 0.123 0.202 !       3.94 eA-3
C104 0.027 0.560 0.325 !       3.90 eA-3
C105 1.002 0.054 0.293 !       3.89 eA-3
C106 0.318 0.345 0.222 !       3.86 eA-3
Q107 0.970 0.419 0.220 !       3.81 eA-3
C108 0.378 0.466 0.140 !       3.64 eA-3
C109 0.219 0.595 0.112 !       3.47 eA-3
C110 1.002 0.970 0.311 !       3.47 eA-3
C111 1.005 0.129 0.269 !       3.30 eA-3
C112 0.953 0.295 0.215 !       3.21 eA-3
Q113 0.032 0.436 0.235 !       3.06 eA-3
C114 0.261 0.435 0.204 !       3.04 eA-3
C115 0.204 0.516 0.188 !       2.81 eA-3
C116 0.936 0.706 0.442 !       2.64 eA-3
C117 0.946 0.191 0.280 !       2.63 eA-3
C118 0.251 0.491 0.183 !       2.61 eA-3
Q119 0.638 0.527 0.297 !       2.61 eA-3
C120 0.027 0.533 0.375 !       2.57 eA-3
Q121 0.625 0.093 0.076 !       2.50 eA-3
C122 0.260 0.574 0.127 !       2.49 eA-3
C123 0.951 0.778 0.401 !       2.48 eA-3
C124 0.962 0.504 0.391 !       2.48 eA-3
C125 0.237 0.486 0.154 !       2.47 eA-3
C126 0.271 0.403 0.254 !       2.45 eA-3
C127 0.108 0.474 0.396 !       2.44 eA-3
C128 0.030 0.615 0.265 !       2.43 eA-3
C129 0.014 0.638 0.342 !       2.42 eA-3
C130 0.032 0.917 0.364 !       2.36 eA-3
C131 0.921 0.153 0.307 !       2.36 eA-3
Q132 0.830 0.716 0.014 !       2.36 eA-3
C133 0.044 0.672 0.248 !       2.36 eA-3
C134 0.031 0.093 0.237 !       2.32 eA-3
C135 0.048 0.667 0.219 !       2.31 eA-3
C136 0.958 0.547 0.378 !       2.29 eA-3
C137 0.855 0.729 0.464 !       2.27 eA-3
Q138 0.026 0.509 0.169 !       2.24 eA-3
Q139 0.497 0.725 0.137 !       2.24 eA-3
C140 0.245 0.556 0.152 !       2.21 eA-3
C141 0.875 0.782 0.420 !       2.20 eA-3
C142 0.923 0.789 0.373 !       2.19 eA-3
C143 0.809 0.847 0.436 !       2.16 eA-3
Q144 0.501 0.686 0.109 !       2.16 eA-3
C145 0.048 0.830 0.346 !       2.15 eA-3
C146 0.170 0.468 0.298 !       2.13 eA-3
C147 0.158 0.612 0.156 !       2.12 eA-3
C148 0.022 0.621 0.298 !       2.07 eA-3
Q149 0.043 0.422 0.141 !       2.07 eA-3
Q150 0.905 0.721 0.486 !       2.05 eA-3
Q151 0.905 0.723 0.035 !       2.02 eA-3
C152 0.063 0.726 0.374 !       2.02 eA-3
C153 0.986 0.684 0.358 !       2.02 eA-3
C154 0.158 0.424 0.391 !       2.01 eA-3
Q155 0.097 0.331-0.003 !       2.01 eA-3
C156 0.984 0.637 0.301 !       2.00 eA-3
C157 0.909 0.062 0.344 !       2.00 eA-3
C158 0.327 0.397 0.184 !       1.98 eA-3
Q159 1.004 0.377 0.193 !       1.98 eA-3
Q160 0.482 0.731 0.081 !       1.96 eA-3
C161 0.094 0.436 0.455 !       1.96 eA-3
C162 0.017 0.754 0.385 !       1.95 eA-3
C163 0.131 0.517 0.343 !       1.94 eA-3
C164 0.336 0.426 0.141 !       1.93 eA-3
Q165 0.133 0.218 0.376 !       1.93 eA-3
C166 0.984 0.899 0.342 !       1.93 eA-3
C167 0.986 0.594 0.281 !       1.92 eA-3
Q168 0.675 0.530 0.205 !       1.91 eA-3
C169 0.020 0.185 0.182 !       1.91 eA-3
C170 0.120 0.383 0.480 !       1.91 eA-3
Q171 0.185 0.234 0.392 !       1.90 eA-3
Q172 0.922 0.112 0.426 !       1.89 eA-3
C173 0.938 0.614 0.324 !       1.88 eA-3
Q174 0.849 0.344 0.434 !       1.88 eA-3
C175 0.129 0.453 0.176 !       1.87 eA-3
Q176 0.061 0.957 0.452 !       1.86 eA-3
C177 0.962 0.778 0.340 !       1.85 eA-3
C178 0.939 0.529 0.435 !       1.85 eA-3
Q179 0.875 0.496 0.230 !       1.85 eA-3
Q180 0.126 0.331 0.487 !       1.84 eA-3
C181 0.978 0.089 0.326 !       1.84 eA-3
Q182 0.093 0.856 0.364 !       1.84 eA-3
C183 0.033 0.678 0.376 !       1.84 eA-3
C184 0.875 0.685 0.470 !       1.84 eA-3
C185 0.175 0.519 0.358 !       1.84 eA-3
C186 0.982 0.550 0.485 !       1.83 eA-3
Q187 0.153 0.828 0.345 !       1.83 eA-3
C188 0.063 0.366 0.475 !       1.81 eA-3
C189 0.140 0.604 0.217 !       1.80 eA-3
Q190 0.232 0.378 0.297 !       1.80 eA-3
C191 0.106 0.675 0.285 !       1.80 eA-3
C192 0.127 0.466 0.369 !       1.78 eA-3
Q193 0.829 0.610 0.028 !       1.78 eA-3
Q194 0.956 0.489 0.367 !       1.78 eA-3
Q195 0.860 0.548 0.017 !       1.78 eA-3
Q196 0.781 0.361 0.473 !       1.77 eA-3
Q197 0.948 0.296 0.418 !       1.77 eA-3
C198 0.145 0.561 0.202 !       1.77 eA-3
Q199 0.051 0.433 0.189 !       1.76 eA-3
)
;
_shelx_fab_checksum              64584
loop_
_space_group_symop_operation_xyz
'x, y, z'
'-x, -y, -z'
loop_
_atom_site_label
_atom_site_type_symbol
_atom_site_fract_x
_atom_site_fract_y
_atom_site_fract_z
_atom_site_U_iso_or_equiv
_atom_site_adp_type
_atom_site_occupancy
_atom_site_site_symmetry_order
_atom_site_calc_flag
_atom_site_refinement_flags_posn
_atom_site_refinement_flags_adp
_atom_site_refinement_flags_occupancy
_atom_site_disorder_assembly
_atom_site_disorder_group
Cd1 Cd 0.51144(4) 0.72326(4) 0.09539(4) 0.0313(2) Uani 1 1 d . . . . .
Cd2 Cd 0.67110(5) 0.52871(4) 0.25172(5) 0.0376(2) Uani 1 1 d . . . . .
Cd3 Cd 0.80410(5) 0.33925(5) 0.43214(5) 0.0377(2) Uani 1 1 d . . . . .
O1 O 0.5504(4) 0.7816(4) 0.1679(4) 0.0380(16) Uani 1 1 d . . . . .
O2 O 0.6814(4) 0.6610(4) 0.2228(4) 0.0432(18) Uani 1 1 d . . . . .
O3 O 0.5378(5) 1.5978(5) 0.0494(5) 0.052(2) Uani 1 1 d . . . . .
O4 O 0.6457(4) 1.5780(4) 0.1164(4) 0.0353(16) Uani 1 1 d . . . . .
O5 O 1.3740(4) 0.8747(5) 0.0579(5) 0.052(2) Uani 1 1 d . . . . .
O6 O 1.3679(4) 0.7391(5) 0.1257(5) 0.055(2) Uani 1 1 d . . . . .
O7 O 0.6494(4) 0.4015(4) 0.2822(4) 0.0451(18) Uani 1 1 d . . . . .
O8 O 0.7571(5) 0.2803(4) 0.3684(4) 0.0446(18) Uani 1 1 d . . . . .
O9 O -0.0547(5) 0.3262(6) 0.3972(5) 0.072(3) Uani 1 1 d . . . . .
O10 O -0.0563(5) 0.1875(6) 0.4604(5) 0.073(3) Uani 1 1 d . . . . .
O11 O 0.6849(5) -0.5111(4) 0.3915(4) 0.0476(19) Uani 1 1 d . . . . .
O12 O 0.7689(4) -0.5345(4) 0.4820(4) 0.0488(19) Uani 1 1 d . . . . .
O13 O 0.5101(4) 0.5974(4) 0.2553(4) 0.0448(18) Uani 1 1 d . . . . .
O14 O 0.8270(5) 0.4529(5) 0.2455(6) 0.089(3) Uani 1 1 d . . . . .
H14A H 0.852530 0.402332 0.236349 0.107 Uiso 1 1 d R U . . .
H14B H 0.857480 0.476362 0.252589 0.107 Uiso 1 1 d R U . . .
N1 N 0.5725(5) 0.8082(5) -0.0225(5) 0.0352(19) Uani 1 1 d . . . . .
N2 N 0.7555(6) 1.2513(5) -0.4445(5) 0.043(2) Uani 1 1 d . . . . .
N3 N 0.4391(6) 0.5034(6) 0.3378(6) 0.050(2) Uani 1 1 d . . . . .
C1 C 0.5771(7) 0.8832(7) -0.0196(6) 0.043(3) Uani 1 1 d . . . . .
H1 H 0.554836 0.897210 0.028601 0.052 Uiso 1 1 calc R U . . .
C2 C 0.6116(7) 0.9422(7) -0.0811(6) 0.043(3) Uani 1 1 d . . . . .
H2 H 0.615116 0.992348 -0.073732 0.051 Uiso 1 1 calc R U . . .
C3 C 0.6402(7) 0.9263(7) -0.1522(6) 0.042(3) Uani 1 1 d . . . . .
C4 C 0.6372(8) 0.8465(8) -0.1563(7) 0.060(4) Uani 1 1 d . . . . .
H4 H 0.658519 0.830900 -0.203778 0.072 Uiso 1 1 calc R U . . .
C5 C 0.6026(8) 0.7906(8) -0.0894(7) 0.058(3) Uani 1 1 d . . . . .
H5 H 0.600953 0.737565 -0.093174 0.069 Uiso 1 1 calc R U . . .
C6 C 0.6760(7) 0.9845(7) -0.2224(6) 0.040(3) Uani 1 1 d . . . . .
H6 H 0.708173 0.959460 -0.263684 0.048 Uiso 1 1 calc R U . . .
C7 C 0.6665(6) 1.0696(7) -0.2323(6) 0.038(2) Uani 1 1 d . . . . .
H7 H 0.637207 1.092342 -0.189288 0.046 Uiso 1 1 calc R U . . .
C8 C 0.6981(6) 1.1336(7) -0.3055(5) 0.034(2) Uani 1 1 d . . . . .
C9 C 0.7605(7) 1.0990(7) -0.3620(6) 0.052(3) Uani 1 1 d . . . . .
H9 H 0.786598 1.033497 -0.352702 0.062 Uiso 1 1 calc R U . . .
C10 C 0.7850(7) 1.1589(7) -0.4312(6) 0.049(3) Uani 1 1 d . . . . .
H10 H 0.823735 1.134237 -0.470685 0.058 Uiso 1 1 calc R U . . .
C11 C 0.7018(7) 1.2814(8) -0.3852(7) 0.053(3) Uani 1 1 d . . . . .
H11 H 0.682244 1.345567 -0.391800 0.064 Uiso 1 1 calc R U . . .
C12 C 0.6741(7) 1.2261(7) -0.3169(6) 0.052(3) Uani 1 1 d . . . . .
H12 H 0.637950 1.251421 -0.276850 0.062 Uiso 1 1 calc R U . . .
C13 C 0.6281(6) 0.7468(6) 0.1956(5) 0.028(2) Uani 1 1 d . . . . .
C14 C 0.6622(6) 0.8162(6) 0.1945(6) 0.038(2) Uani 1 1 d . . . . .
C15 C 0.7444(7) 0.7798(7) 0.2316(7) 0.057(3) Uani 1 1 d . . . . .
H15 H 0.772729 0.714395 0.261711 0.069 Uiso 1 1 calc R U . . .
C16 C 0.7830(7) 0.8381(7) 0.2245(8) 0.059(3) Uani 1 1 d . . . . .
H16 H 0.836396 0.812964 0.251335 0.071 Uiso 1 1 calc R U . . .
C17 C 0.7426(6) 0.9379(7) 0.1762(7) 0.041(3) Uani 1 1 d . . . . .
C18 C 0.6587(6) 0.9727(6) 0.1452(6) 0.041(3) Uani 1 1 d . . . . .
H18 H 0.628837 1.038340 0.116676 0.049 Uiso 1 1 calc R U . . .
C19 C 0.6184(6) 0.9149(7) 0.1549(6) 0.043(3) Uani 1 1 d . . . . .
H19 H 0.560710 0.941545 0.134931 0.051 Uiso 1 1 calc R U . . .
C20 C 0.6120(6) 1.5454(6) 0.0840(6) 0.031(2) Uani 1 1 d . . . . .
C21 C 0.6605(6) 1.4460(6) 0.0876(6) 0.033(2) Uani 1 1 d . . . . .
C22 C 0.6185(7) 1.4028(6) 0.0674(6) 0.043(3) Uani 1 1 d . . . . .
H22 H 0.559417 1.438385 0.048843 0.052 Uiso 1 1 calc R U . . .
C23 C 0.6643(7) 1.3066(7) 0.0749(6) 0.046(3) Uani 1 1 d . . . . .
H23 H 0.635755 1.278498 0.060604 0.055 Uiso 1 1 calc R U . . .
C24 C 0.7517(6) 1.2524(6) 0.1032(6) 0.035(2) Uani 1 1 d . . . . .
C25 C 0.7926(6) 1.2977(6) 0.1201(6) 0.039(2) Uani 1 1 d . . . . .
H25 H 0.852276 1.262692 0.137213 0.046 Uiso 1 1 calc R U . . .
C26 C 0.7486(6) 1.3935(6) 0.1126(6) 0.037(2) Uani 1 1 d . . . . .
H26 H 0.778589 1.422050 0.124405 0.044 Uiso 1 1 calc R U . . .
C27 C 1.3304(6) 0.8281(7) 0.0917(5) 0.030(2) Uani 1 1 d . . . . .
C28 C 1.2294(6) 0.8754(6) 0.0971(6) 0.031(2) Uani 1 1 d . . . . .
C29 C 1.1838(7) 0.9700(7) 0.0584(7) 0.050(3) Uani 1 1 d . . . . .
H29 H 1.215688 1.007520 0.028194 0.060 Uiso 1 1 calc R U . . .
C30 C 1.0878(7) 1.0130(7) 0.0632(7) 0.048(3) Uani 1 1 d . . . . .
H30 H 1.057842 1.078015 0.032562 0.058 Uiso 1 1 calc R U . . .
C31 C 1.0381(6) 0.9653(6) 0.1093(6) 0.032(2) Uani 1 1 d . . . . .
C32 C 1.0852(7) 0.8664(7) 0.1524(8) 0.059(3) Uani 1 1 d . . . . .
H32 H 1.053562 0.829595 0.185558 0.071 Uiso 1 1 calc R U . . .
C33 C 1.1783(7) 0.8255(7) 0.1447(7) 0.049(3) Uani 1 1 d . . . . .
H33 H 1.208810 0.759987 0.173401 0.058 Uiso 1 1 calc R U . . .
C34 C 0.7955(6) 0.9947(6) 0.1566(6) 0.032(2) Uani 1 1 d . . . . .
C35 C 0.7506(6) 1.0937(6) 0.1413(6) 0.034(2) Uani 1 1 d . . . . .
H35 H 0.687375 1.122108 0.148261 0.040 Uiso 1 1 calc R U . . .
C36 C 0.7989(6) 1.1499(6) 0.1159(6) 0.032(2) Uani 1 1 d . . . . .
C37 C 0.8918(6) 1.1061(6) 0.1044(5) 0.030(2) Uani 1 1 d . . . . .
H37 H 0.924376 1.143958 0.084234 0.036 Uiso 1 1 calc R U . . .
C38 C 0.9390(6) 1.0086(6) 0.1212(5) 0.028(2) Uani 1 1 d . . . . .
C39 C 0.8884(6) 0.9560(6) 0.1437(6) 0.038(2) Uani 1 1 d . . . . .
H39 H 0.918558 0.891020 0.150585 0.046 Uiso 1 1 calc R U . . .
C40 C 0.6916(7) 0.3138(6) 0.3263(6) 0.035(2) Uani 1 1 d . . . . .
C41 C 0.6533(6) 0.2487(6) 0.3272(6) 0.032(2) Uani 1 1 d . . . . .
C42 C 0.5743(7) 0.2854(6) 0.2874(6) 0.042(3) Uani 1 1 d . . . . .
H42 H 0.549316 0.349818 0.253582 0.051 Uiso 1 1 calc R U . . .
C43 C 0.5321(7) 0.2269(6) 0.2976(6) 0.043(3) Uani 1 1 d . . . . .
H43 H 0.478277 0.252341 0.271195 0.051 Uiso 1 1 calc R U . . .
C44 C 0.5691(7) 0.1316(6) 0.3462(6) 0.038(2) Uani 1 1 d . . . . .
C45 C 0.6531(7) 0.0958(6) 0.3771(7) 0.046(3) Uani 1 1 d . . . . .
H45 H 0.683267 0.029765 0.403967 0.055 Uiso 1 1 calc R U . . .
C46 C 0.6938(7) 0.1532(6) 0.3699(7) 0.048(3) Uani 1 1 d . . . . .
H46 H 0.749069 0.126963 0.394199 0.057 Uiso 1 1 calc R U . . .
C47 C -0.0159(7) 0.2391(9) 0.4259(7) 0.054(3) Uani 1 1 d . . . . .
C48 C 0.0867(7) 0.1914(8) 0.4166(8) 0.071(2) Uani 1 1 d . . . . .
C49 C 0.1335(7) 0.0945(8) 0.4540(6) 0.051(3) Uani 1 1 d . . . . .
H49 H 0.101374 0.057398 0.484496 0.061 Uiso 1 1 calc R U . . .
C50 C 0.2257(6) 0.0513(7) 0.4476(7) 0.047(3) Uani 1 1 d . . . . .
H50 H 0.256354 -0.014783 0.473572 0.056 Uiso 1 1 calc R U . . .
C51 C 0.2743(6) 0.1060(6) 0.4023(6) 0.038(2) Uani 1 1 d . . . . .
C52 C 0.2270(7) 0.2017(7) 0.3632(7) 0.071(2) Uani 1 1 d . . . . .
H52 H 0.257720 0.239908 0.331126 0.085 Uiso 1 1 calc R U . . .
C53 C 0.1330(7) 0.2420(8) 0.3715(7) 0.071(2) Uani 1 1 d . . . . .
H53 H 0.101266 0.307531 0.343905 0.085 Uiso 1 1 calc R U . . .
C54 C 0.7081(6) -0.4804(6) 0.4334(6) 0.034(2) Uani 1 1 d . . . . .
C55 C 0.6581(6) -0.3757(6) 0.4253(6) 0.035(2) Uani 1 1 d . . . . .
C56 C 0.6924(6) -0.3365(6) 0.4554(6) 0.040(3) Uani 1 1 d . . . . .
H56 H 0.747233 -0.374261 0.482152 0.048 Uiso 1 1 calc R U . . .
C57 C 0.6470(6) -0.2412(7) 0.4468(6) 0.041(3) Uani 1 1 d . . . . .
H57 H 0.672276 -0.214978 0.467270 0.049 Uiso 1 1 calc R U . . .
C58 C 0.5656(6) -0.1836(7) 0.4089(6) 0.035(2) Uani 1 1 d . . . . .
C59 C 0.5291(6) -0.2258(6) 0.3797(6) 0.036(2) Uani 1 1 d . . . . .
H59 H 0.473287 -0.189558 0.354542 0.044 Uiso 1 1 calc R U . . .
C60 C 0.5756(6) -0.3188(6) 0.3883(6) 0.039(2) Uani 1 1 d . . . . .
H60 H 0.551014 -0.346115 0.368450 0.047 Uiso 1 1 calc R U . . .
C61 C 0.5217(6) 0.0694(6) 0.3639(6) 0.042(3) Uani 1 1 d . . . . .
C62 C 0.4269(6) 0.1125(6) 0.3729(6) 0.037(2) Uani 1 1 d . . . . .
H62 H 0.397172 0.177781 0.364934 0.044 Uiso 1 1 calc R U . . .
C63 C 0.3765(6) 0.0588(7) 0.3937(6) 0.039(2) Uani 1 1 d . . . . .
C64 C 0.4235(6) -0.0392(6) 0.4058(6) 0.035(2) Uani 1 1 d . . . . .
H64 H 0.391016 -0.076553 0.420395 0.043 Uiso 1 1 calc R U . . .
C65 C 0.5176(6) -0.0815(6) 0.3965(6) 0.031(2) Uani 1 1 d . . . . .
C66 C 0.5632(6) -0.0248(6) 0.3762(6) 0.039(2) Uani 1 1 d . . . . .
H66 H 0.626502 -0.053091 0.370536 0.047 Uiso 1 1 calc R U . . .
C67 C 0.3682(8) 0.4716(8) 0.3423(8) 0.073(4) Uani 1 1 d . . . . .
H67A H 0.363444 0.428548 0.397176 0.109 Uiso 1 1 calc R U . . .
H67B H 0.310694 0.526463 0.328607 0.109 Uiso 1 1 calc R U . . .
H67C H 0.384184 0.439011 0.303900 0.109 Uiso 1 1 calc R U . . .
C68 C 0.4855(7) 0.4691(8) 0.4109(6) 0.057(3) Uani 1 1 d . . . . .
H68A H 0.462931 0.426567 0.455155 0.086 Uiso 1 1 calc R U . . .
H68B H 0.549703 0.435078 0.401432 0.086 Uiso 1 1 calc R U . . .
H68C H 0.474923 0.522519 0.425434 0.086 Uiso 1 1 calc R U . . .
C69 C 0.4562(7) 0.5646(7) 0.2653(7) 0.046(3) Uani 1 1 d . . . . .
H69 H 0.423920 0.582534 0.220107 0.055 Uiso 1 1 calc R U . . .
O15 O 0.9174(18) 0.558(2) 0.1686(18) 0.065(5) Uani 0.25 1 d D . P . .
N4 N 0.8926(18) 0.692(2) 0.043(2) 0.065(5) Uani 0.25 1 d D . P . .
C70 C 0.822(2) 0.778(3) -0.001(3) 0.065(5) Uani 0.25 1 d D . P . .
H70A H 0.847314 0.817533 -0.044901 0.097 Uiso 0.25 1 calc R U P . .
H70B H 0.784523 0.763309 -0.022907 0.097 Uiso 0.25 1 calc R U P . .
H70C H 0.784870 0.811857 0.036013 0.097 Uiso 0.25 1 calc R U P . .
C71 C 0.977(2) 0.707(3) 0.022(3) 0.065(5) Uani 0.25 1 d D . P . .
H71A H 0.969406 0.760620 -0.028782 0.097 Uiso 0.25 1 calc R U P . .
H71B H 0.989105 0.718953 0.065125 0.097 Uiso 0.25 1 calc R U P . .
H71C H 1.026366 0.650108 0.014558 0.097 Uiso 0.25 1 calc R U P . .
C72 C 0.873(3) 0.624(3) 0.109(2) 0.065(5) Uani 0.25 1 d D . P . .
H72 H 0.814464 0.629109 0.108765 0.078 Uiso 0.25 1 calc R U P . .
loop_
_atom_site_aniso_label
_atom_site_aniso_U_11
_atom_site_aniso_U_22
_atom_site_aniso_U_33
_atom_site_aniso_U_23
_atom_site_aniso_U_13
_atom_site_aniso_U_12
Cd1 0.0223(4) 0.0194(3) 0.0494(5) -0.0123(3) -0.0033(3) -0.0055(3)
Cd2 0.0361(4) 0.0172(3) 0.0564(5) -0.0054(3) -0.0142(4) -0.0099(3)
Cd3 0.0234(4) 0.0232(4) 0.0588(5) -0.0133(3) -0.0034(3) -0.0039(3)
O1 0.038(4) 0.031(4) 0.052(4) -0.013(3) -0.001(3) -0.021(3)
O2 0.045(4) 0.017(3) 0.062(5) -0.006(3) -0.013(4) -0.010(3)
O3 0.046(5) 0.030(4) 0.085(6) -0.031(4) -0.012(4) -0.005(3)
O4 0.041(4) 0.024(3) 0.045(4) -0.015(3) -0.006(3) -0.012(3)
O5 0.030(4) 0.043(4) 0.081(5) -0.020(4) -0.001(4) -0.016(4)
O6 0.024(4) 0.037(4) 0.083(6) -0.014(4) -0.001(4) -0.004(3)
O7 0.034(4) 0.031(4) 0.071(5) -0.013(4) -0.001(4) -0.018(3)
O8 0.037(4) 0.031(4) 0.064(5) -0.011(3) -0.019(4) -0.010(3)
O9 0.023(4) 0.047(5) 0.101(7) -0.007(5) 0.000(4) 0.003(4)
O10 0.027(4) 0.061(5) 0.095(7) -0.008(5) -0.007(4) -0.005(4)
O11 0.054(5) 0.024(4) 0.062(5) -0.014(3) -0.019(4) -0.007(3)
O12 0.034(4) 0.029(4) 0.074(5) -0.014(4) -0.022(4) 0.000(3)
O13 0.034(4) 0.032(4) 0.069(5) -0.015(4) -0.004(4) -0.016(3)
O14 0.042(5) 0.055(5) 0.172(10) -0.051(6) -0.036(6) 0.001(4)
N1 0.037(5) 0.024(4) 0.041(5) -0.012(4) 0.001(4) -0.011(4)
N2 0.048(5) 0.026(4) 0.042(5) -0.009(4) -0.001(4) -0.008(4)
N3 0.035(5) 0.042(5) 0.073(7) -0.025(5) 0.008(5) -0.017(4)
C1 0.049(7) 0.033(6) 0.046(6) -0.019(5) 0.008(5) -0.017(5)
C2 0.045(6) 0.041(6) 0.038(6) -0.017(5) 0.011(5) -0.018(5)
C3 0.042(6) 0.033(6) 0.055(7) -0.020(5) 0.007(5) -0.018(5)
C4 0.090(10) 0.071(8) 0.046(7) -0.038(7) 0.027(7) -0.053(8)
C5 0.069(8) 0.045(7) 0.055(7) -0.022(6) 0.015(6) -0.024(6)
C6 0.053(7) 0.042(6) 0.035(6) -0.014(5) 0.007(5) -0.029(5)
C7 0.031(6) 0.046(6) 0.045(6) -0.024(5) -0.002(5) -0.013(5)
C8 0.034(6) 0.042(6) 0.030(5) -0.017(5) 0.001(4) -0.016(5)
C9 0.053(7) 0.025(5) 0.063(7) -0.008(5) 0.011(6) -0.017(5)
C10 0.063(8) 0.034(6) 0.052(7) -0.024(5) 0.021(6) -0.025(6)
C11 0.052(7) 0.042(7) 0.062(8) -0.024(6) -0.003(6) -0.012(6)
C12 0.058(7) 0.027(6) 0.051(7) -0.013(5) 0.019(6) -0.014(5)
C13 0.035(6) 0.030(5) 0.035(5) -0.013(4) -0.004(4) -0.023(4)
C14 0.024(5) 0.024(5) 0.062(7) -0.014(5) -0.010(5) -0.004(4)
C15 0.049(7) 0.021(5) 0.092(9) 0.004(6) -0.024(6) -0.018(5)
C16 0.036(6) 0.036(6) 0.100(10) -0.010(6) -0.026(6) -0.014(5)
C17 0.018(5) 0.034(6) 0.072(7) -0.027(5) -0.005(5) -0.004(4)
C18 0.019(5) 0.020(5) 0.072(7) -0.015(5) -0.002(5) -0.001(4)
C19 0.019(5) 0.036(6) 0.071(7) -0.017(5) -0.013(5) -0.007(4)
C20 0.026(5) 0.023(5) 0.041(6) -0.016(4) 0.008(4) -0.006(4)
C21 0.029(5) 0.023(5) 0.057(6) -0.024(5) 0.002(5) -0.012(4)
C22 0.037(6) 0.021(5) 0.066(7) -0.020(5) -0.014(5) 0.001(4)
C23 0.038(6) 0.032(6) 0.073(8) -0.023(6) -0.010(6) -0.011(5)
C24 0.027(5) 0.023(5) 0.052(6) -0.016(5) -0.003(5) -0.006(4)
C25 0.022(5) 0.029(5) 0.072(7) -0.026(5) -0.010(5) -0.005(4)
C26 0.024(5) 0.029(5) 0.069(7) -0.027(5) -0.001(5) -0.011(4)
C27 0.028(5) 0.035(6) 0.023(5) -0.010(4) -0.003(4) -0.009(4)
C28 0.024(5) 0.028(5) 0.042(6) -0.015(4) 0.002(4) -0.011(4)
C29 0.030(6) 0.033(6) 0.080(8) -0.012(6) 0.006(6) -0.018(5)
C30 0.034(6) 0.027(5) 0.073(8) -0.015(5) -0.001(6) -0.008(5)
C31 0.015(5) 0.032(5) 0.050(6) -0.020(5) 0.000(4) -0.007(4)
C32 0.037(6) 0.026(6) 0.112(10) -0.021(6) 0.008(6) -0.021(5)
C33 0.033(6) 0.022(5) 0.098(9) -0.024(6) -0.009(6) -0.012(4)
C34 0.030(5) 0.032(5) 0.049(6) -0.023(5) -0.002(5) -0.018(4)
C35 0.018(5) 0.039(5) 0.056(6) -0.029(5) -0.006(4) -0.009(4)
C36 0.024(5) 0.031(5) 0.050(6) -0.024(5) 0.004(4) -0.012(4)
C37 0.027(5) 0.033(5) 0.042(6) -0.023(5) 0.003(4) -0.015(4)
C38 0.023(5) 0.025(5) 0.037(5) -0.011(4) -0.005(4) -0.007(4)
C39 0.032(6) 0.027(5) 0.053(7) -0.022(5) -0.005(5) -0.003(4)
C40 0.036(6) 0.014(4) 0.049(6) -0.011(4) 0.011(5) -0.011(4)
C41 0.037(6) 0.017(4) 0.042(6) -0.007(4) -0.007(5) -0.013(4)
C42 0.044(6) 0.015(5) 0.068(7) -0.007(5) -0.013(5) -0.015(4)
C43 0.036(6) 0.029(5) 0.062(7) -0.008(5) -0.021(5) -0.011(5)
C44 0.041(6) 0.017(5) 0.052(6) -0.010(5) -0.006(5) -0.011(4)
C45 0.042(6) 0.015(5) 0.076(8) -0.011(5) -0.016(6) -0.005(4)
C46 0.038(6) 0.020(5) 0.081(8) -0.002(5) -0.027(6) -0.012(4)
C47 0.025(6) 0.071(9) 0.049(7) -0.007(6) 0.000(5) -0.019(6)
C48 0.025(3) 0.035(4) 0.090(5) 0.011(4) -0.001(4) 0.007(3)
C49 0.035(6) 0.053(7) 0.053(7) -0.012(6) -0.005(5) -0.014(5)
C50 0.025(5) 0.031(6) 0.079(8) -0.017(6) 0.004(5) -0.012(4)
C51 0.027(5) 0.030(5) 0.054(6) -0.022(5) 0.004(5) -0.005(4)
C52 0.025(3) 0.035(4) 0.090(5) 0.011(4) -0.001(4) 0.007(3)
C53 0.025(3) 0.035(4) 0.090(5) 0.011(4) -0.001(4) 0.007(3)
C54 0.028(5) 0.021(5) 0.045(6) -0.008(5) 0.006(5) -0.010(4)
C55 0.031(5) 0.024(5) 0.036(6) -0.007(4) -0.003(4) -0.004(4)
C56 0.031(5) 0.024(5) 0.066(7) -0.017(5) -0.019(5) -0.005(4)
C57 0.031(6) 0.034(6) 0.061(7) -0.013(5) -0.010(5) -0.017(5)
C58 0.021(5) 0.035(5) 0.047(6) -0.006(5) -0.005(4) -0.014(4)
C59 0.021(5) 0.028(5) 0.059(7) -0.021(5) -0.009(5) -0.002(4)
C60 0.034(6) 0.020(5) 0.057(7) -0.016(5) -0.010(5) -0.001(4)
C61 0.019(5) 0.025(5) 0.065(7) -0.006(5) 0.002(5) -0.007(4)
C62 0.033(6) 0.027(5) 0.055(6) -0.015(5) -0.002(5) -0.018(4)
C63 0.031(6) 0.032(5) 0.049(6) -0.017(5) -0.003(5) -0.006(4)
C64 0.028(5) 0.031(5) 0.051(6) -0.015(5) -0.005(5) -0.013(4)
C65 0.017(5) 0.019(4) 0.052(6) -0.016(4) 0.002(4) -0.002(4)
C66 0.019(5) 0.034(6) 0.066(7) -0.020(5) -0.005(5) -0.010(4)
C67 0.076(9) 0.058(8) 0.093(10) -0.021(8) 0.009(8) -0.044(8)
C68 0.049(7) 0.054(7) 0.054(7) -0.008(6) -0.010(6) -0.017(6)
C69 0.040(6) 0.028(6) 0.063(7) -0.015(5) 0.009(6) -0.015(5)
O15 0.025(9) 0.055(12) 0.088(15) -0.007(10) -0.007(9) -0.009(8)
N4 0.025(9) 0.055(12) 0.088(15) -0.007(10) -0.007(9) -0.009(8)
C70 0.025(9) 0.055(12) 0.088(15) -0.007(10) -0.007(9) -0.009(8)
C71 0.025(9) 0.055(12) 0.088(15) -0.007(10) -0.007(9) -0.009(8)
C72 0.025(9) 0.055(12) 0.088(15) -0.007(10) -0.007(9) -0.009(8)
loop_
_atom_type_symbol
_atom_type_description
_atom_type_scat_dispersion_real
_atom_type_scat_dispersion_imag
_atom_type_scat_source
C C 0.0033 0.0016 'International Tables Vol C Tables 4.2.6.8 and 6.1.1.4'
H H 0.0000 0.0000 'International Tables Vol C Tables 4.2.6.8 and 6.1.1.4'
N N 0.0061 0.0033 'International Tables Vol C Tables 4.2.6.8 and 6.1.1.4'
O O 0.0106 0.0060 'International Tables Vol C Tables 4.2.6.8 and 6.1.1.4'
Cd Cd -0.8075 1.2024 'International Tables Vol C Tables 4.2.6.8 and 6.1.1.4'
loop_
_geom_angle_atom_site_label_1
_geom_angle_atom_site_label_2
_geom_angle_atom_site_label_3
_geom_angle
_geom_angle_site_symmetry_1
_geom_angle_site_symmetry_3
_geom_angle_publ_flag
O6 Cd1 O1 111.4(3) 1_455 . ?
O6 Cd1 N1 129.2(3) 1_455 . ?
O1 Cd1 N1 88.6(2) . . ?
O6 Cd1 O4 127.3(2) 1_455 1_545 ?
O1 Cd1 O4 96.8(2) . 1_545 ?
N1 Cd1 O4 93.5(2) . 1_545 ?
O6 Cd1 O3 87.2(3) 1_455 1_545 ?
O1 Cd1 O3 151.3(2) . 1_545 ?
N1 Cd1 O3 96.3(3) . 1_545 ?
O4 Cd1 O3 54.8(2) 1_545 1_545 ?
O6 Cd1 O5 53.9(2) 1_455 1_455 ?
O1 Cd1 O5 87.9(2) . 1_455 ?
N1 Cd1 O5 82.4(2) . 1_455 ?
O4 Cd1 O5 173.7(2) 1_545 1_455 ?
O3 Cd1 O5 120.8(2) 1_545 1_455 ?
O6 Cd1 C27 27.4(2) 1_455 1_455 ?
O1 Cd1 C27 100.6(3) . 1_455 ?
N1 Cd1 C27 105.8(3) . 1_455 ?
O4 Cd1 C27 154.2(3) 1_545 1_455 ?
O3 Cd1 C27 105.2(3) 1_545 1_455 ?
O5 Cd1 C27 26.5(2) 1_455 1_455 ?
O6 Cd1 C20 106.7(3) 1_455 1_545 ?
O1 Cd1 C20 124.2(3) . 1_545 ?
N1 Cd1 C20 97.5(3) . 1_545 ?
O4 Cd1 C20 27.8(2) 1_545 1_545 ?
O3 Cd1 C20 27.2(2) 1_545 1_545 ?
O5 Cd1 C20 148.0(3) 1_455 1_545 ?
C27 Cd1 C20 129.8(3) 1_455 1_545 ?
O2 Cd2 O7 175.5(2) . . ?
O2 Cd2 O4 87.2(2) . 1_545 ?
O7 Cd2 O4 92.6(2) . 1_545 ?
O2 Cd2 O14 89.0(3) . . ?
O7 Cd2 O14 95.5(3) . . ?
O4 Cd2 O14 98.9(3) 1_545 . ?
O2 Cd2 O11 90.9(2) . 1_565 ?
O7 Cd2 O11 89.0(3) . 1_565 ?
O4 Cd2 O11 175.0(2) 1_545 1_565 ?
O14 Cd2 O11 85.7(3) . 1_565 ?
O2 Cd2 O13 95.1(2) . . ?
O7 Cd2 O13 80.5(2) . . ?
O4 Cd2 O13 79.3(2) 1_545 . ?
O14 Cd2 O13 175.5(3) . . ?
O11 Cd2 O13 96.3(2) 1_565 . ?
O8 Cd3 O9 114.4(3) . 1_655 ?
O8 Cd3 O11 94.2(2) . 1_565 ?
O9 Cd3 O11 119.1(3) 1_655 1_565 ?
O8 Cd3 N2 88.7(3) . 1_546 ?
O9 Cd3 N2 126.1(3) 1_655 1_546 ?
O11 Cd3 N2 105.8(3) 1_565 1_546 ?
O8 Cd3 O12 147.6(2) . 1_565 ?
O9 Cd3 O12 91.1(3) 1_655 1_565 ?
O11 Cd3 O12 54.6(2) 1_565 1_565 ?
N2 Cd3 O12 91.9(3) 1_546 1_565 ?
O8 Cd3 O10 86.8(3) . 1_655 ?
O9 Cd3 O10 54.1(3) 1_655 1_655 ?
O11 Cd3 O10 172.5(3) 1_565 1_655 ?
N2 Cd3 O10 81.6(3) 1_546 1_655 ?
O12 Cd3 O10 125.4(3) 1_565 1_655 ?
O8 Cd3 C47 101.8(3) . 1_655 ?
O9 Cd3 C47 26.9(3) 1_655 1_655 ?
O11 Cd3 C47 146.0(3) 1_565 1_655 ?
N2 Cd3 C47 104.4(3) 1_546 1_655 ?
O12 Cd3 C47 109.4(3) 1_565 1_655 ?
O10 Cd3 C47 27.2(3) 1_655 1_655 ?
O8 Cd3 C54 121.9(3) . 1_565 ?
O9 Cd3 C54 104.6(3) 1_655 1_565 ?
O11 Cd3 C54 27.8(3) 1_565 1_565 ?
N2 Cd3 C54 101.8(3) 1_546 1_565 ?
O12 Cd3 C54 26.9(2) 1_565 1_565 ?
O10 Cd3 C54 151.0(3) 1_655 1_565 ?
C47 Cd3 C54 129.0(3) 1_655 1_565 ?
C13 O1 Cd1 125.2(6) . . ?
C13 O2 Cd2 134.0(6) . . ?
C20 O3 Cd1 92.1(6) . 1_565 ?
C20 O4 Cd2 127.4(6) . 1_565 ?
C20 O4 Cd1 91.9(5) . 1_565 ?
Cd2 O4 Cd1 103.3(2) 1_565 1_565 ?
C27 O5 Cd1 87.5(6) . 1_655 ?
C27 O6 Cd1 97.0(6) . 1_655 ?
C40 O7 Cd2 133.2(6) . . ?
C40 O8 Cd3 133.8(6) . . ?
C47 O9 Cd3 97.8(7) . 1_455 ?
C47 O10 Cd3 85.2(7) . 1_455 ?
C54 O11 Cd3 93.9(6) . 1_545 ?
C54 O11 Cd2 135.6(6) . 1_545 ?
Cd3 O11 Cd2 105.6(3) 1_545 1_545 ?
C54 O12 Cd3 90.2(6) . 1_545 ?
C69 O13 Cd2 132.5(6) . . ?
Cd2 O14 H14A 120.1 . . ?
Cd2 O14 H14B 119.9 . . ?
H14A O14 H14B 120.0 . . ?
C5 N1 C1 116.4(9) . . ?
C5 N1 Cd1 127.9(7) . . ?
C1 N1 Cd1 115.8(6) . . ?
C11 N2 C10 115.9(9) . . ?
C11 N2 Cd3 128.3(7) . 1_564 ?
C10 N2 Cd3 115.8(6) . 1_564 ?
C69 N3 C68 123.2(9) . . ?
C69 N3 C67 118.5(10) . . ?
C68 N3 C67 118.3(9) . . ?
N1 C1 C2 125.6(9) . . ?
N1 C1 H1 117.2 . . ?
C2 C1 H1 117.2 . . ?
C3 C2 C1 118.5(10) . . ?
C3 C2 H2 120.8 . . ?
C1 C2 H2 120.8 . . ?
C2 C3 C4 116.9(9) . . ?
C2 C3 C6 123.9(9) . . ?
C4 C3 C6 119.1(9) . . ?
C5 C4 C3 119.5(10) . . ?
C5 C4 H4 120.2 . . ?
C3 C4 H4 120.2 . . ?
N1 C5 C4 123.1(10) . . ?
N1 C5 H5 118.4 . . ?
C4 C5 H5 118.4 . . ?
C7 C6 C3 124.5(9) . . ?
C7 C6 H6 117.7 . . ?
C3 C6 H6 117.7 . . ?
C6 C7 C8 126.1(9) . . ?
C6 C7 H7 117.0 . . ?
C8 C7 H7 117.0 . . ?
C12 C8 C9 115.9(9) . . ?
C12 C8 C7 122.6(8) . . ?
C9 C8 C7 121.2(9) . . ?
C10 C9 C8 120.8(9) . . ?
C10 C9 H9 119.6 . . ?
C8 C9 H9 119.6 . . ?
N2 C10 C9 122.1(9) . . ?
N2 C10 H10 118.9 . . ?
C9 C10 H10 118.9 . . ?
N2 C11 C12 124.3(10) . . ?
N2 C11 H11 117.8 . . ?
C12 C11 H11 117.8 . . ?
C11 C12 C8 120.2(10) . . ?
C11 C12 H12 119.9 . . ?
C8 C12 H12 119.9 . . ?
O2 C13 O1 127.6(8) . . ?
O2 C13 C14 115.1(8) . . ?
O1 C13 C14 117.3(8) . . ?
C19 C14 C15 118.0(9) . . ?
C19 C14 C13 123.1(9) . . ?
C15 C14 C13 118.8(8) . . ?
C16 C15 C14 121.0(9) . . ?
C16 C15 H15 119.5 . . ?
C14 C15 H15 119.5 . . ?
C15 C16 C17 120.5(10) . . ?
C15 C16 H16 119.7 . . ?
C17 C16 H16 119.7 . . ?
C18 C17 C16 117.0(9) . . ?
C18 C17 C34 124.2(9) . . ?
C16 C17 C34 118.6(8) . . ?
C19 C18 C17 122.3(9) . . ?
C19 C18 H18 118.9 . . ?
C17 C18 H18 118.9 . . ?
C18 C19 C14 120.7(9) . . ?
C18 C19 H19 119.7 . . ?
C14 C19 H19 119.7 . . ?
O3 C20 O4 120.6(8) . . ?
O3 C20 C21 119.8(9) . . ?
O4 C20 C21 119.6(8) . . ?
O3 C20 Cd1 60.7(5) . 1_565 ?
O4 C20 Cd1 60.3(4) . 1_565 ?
C21 C20 Cd1 173.1(6) . 1_565 ?
C26 C21 C22 119.2(8) . . ?
C26 C21 C20 119.8(8) . . ?
C22 C21 C20 121.0(8) . . ?
C21 C22 C23 120.3(9) . . ?
C21 C22 H22 119.8 . . ?
C23 C22 H22 119.8 . . ?
C24 C23 C22 120.7(9) . . ?
C24 C23 H23 119.6 . . ?
C22 C23 H23 119.6 . . ?
C25 C24 C23 117.7(8) . . ?
C25 C24 C36 120.8(8) . . ?
C23 C24 C36 121.5(9) . . ?
C24 C25 C26 122.6(9) . . ?
C24 C25 H25 118.7 . . ?
C26 C25 H25 118.7 . . ?
C21 C26 C25 119.4(8) . . ?
C21 C26 H26 120.3 . . ?
C25 C26 H26 120.3 . . ?
O5 C27 O6 121.5(9) . . ?
O5 C27 C28 120.7(8) . . ?
O6 C27 C28 117.7(8) . . ?
O5 C27 Cd1 66.0(5) . 1_655 ?
O6 C27 Cd1 55.5(5) . 1_655 ?
C28 C27 Cd1 173.1(7) . 1_655 ?
C29 C28 C33 116.7(8) . . ?
C29 C28 C27 121.4(8) . . ?
C33 C28 C27 121.8(8) . . ?
C28 C29 C30 120.3(9) . . ?
C28 C29 H29 119.8 . . ?
C30 C29 H29 119.8 . . ?
C31 C30 C29 123.1(9) . . ?
C31 C30 H30 118.5 . . ?
C29 C30 H30 118.5 . . ?
C30 C31 C32 117.2(8) . . ?
C30 C31 C38 124.8(8) . . ?
C32 C31 C38 117.9(8) . . ?
C33 C32 C31 118.7(9) . . ?
C33 C32 H32 120.6 . . ?
C31 C32 H32 120.6 . . ?
C32 C33 C28 123.8(9) . . ?
C32 C33 H33 118.1 . . ?
C28 C33 H33 118.1 . . ?
C39 C34 C35 117.7(8) . . ?
C39 C34 C17 121.8(8) . . ?
C35 C34 C17 120.1(8) . . ?
C36 C35 C34 120.9(8) . . ?
C36 C35 H35 119.5 . . ?
C34 C35 H35 119.5 . . ?
C37 C36 C35 118.0(8) . . ?
C37 C36 C24 121.6(8) . . ?
C35 C36 C24 120.4(8) . . ?
C36 C37 C38 122.9(8) . . ?
C36 C37 H37 118.5 . . ?
C38 C37 H37 118.5 . . ?
C39 C38 C37 117.1(8) . . ?
C39 C38 C31 122.0(8) . . ?
C37 C38 C31 120.8(8) . . ?
C34 C39 C38 123.0(8) . . ?
C34 C39 H39 118.5 . . ?
C38 C39 H39 118.5 . . ?
O8 C40 O7 126.5(9) . . ?
O8 C40 C41 118.9(8) . . ?
O7 C40 C41 114.5(9) . . ?
C46 C41 C42 119.4(8) . . ?
C46 C41 C40 120.2(9) . . ?
C42 C41 C40 120.4(8) . . ?
C41 C42 C43 120.2(8) . . ?
C41 C42 H42 119.9 . . ?
C43 C42 H42 119.9 . . ?
C44 C43 C42 120.4(9) . . ?
C44 C43 H43 119.8 . . ?
C42 C43 H43 119.8 . . ?
C43 C44 C45 117.2(9) . . ?
C43 C44 C61 121.6(9) . . ?
C45 C44 C61 121.2(8) . . ?
C46 C45 C44 122.5(9) . . ?
C46 C45 H45 118.7 . . ?
C44 C45 H45 118.7 . . ?
C41 C46 C45 119.6(9) . . ?
C41 C46 H46 120.2 . . ?
C45 C46 H46 120.2 . . ?
O9 C47 O10 123.0(10) . . ?
O9 C47 C48 119.1(10) . . ?
O10 C47 C48 117.9(11) . . ?
O9 C47 Cd3 55.3(5) . 1_455 ?
O10 C47 Cd3 67.6(6) . 1_455 ?
C48 C47 Cd3 174.4(9) . 1_455 ?
C53 C48 C49 118.3(10) . . ?
C53 C48 C47 120.7(10) . . ?
C49 C48 C47 121.0(10) . . ?
C50 C49 C48 121.5(10) . . ?
C50 C49 H49 119.3 . . ?
C48 C49 H49 119.3 . . ?
C49 C50 C51 119.7(9) . . ?
C49 C50 H50 120.1 . . ?
C51 C50 H50 120.1 . . ?
C52 C51 C50 118.4(9) . . ?
C52 C51 C63 121.3(9) . . ?
C50 C51 C63 120.3(8) . . ?
C51 C52 C53 119.4(10) . . ?
C51 C52 H52 120.3 . . ?
C53 C52 H52 120.3 . . ?
C48 C53 C52 122.6(10) . . ?
C48 C53 H53 118.7 . . ?
C52 C53 H53 118.7 . . ?
O12 C54 O11 120.8(8) . . ?
O12 C54 C55 119.4(9) . . ?
O11 C54 C55 119.8(9) . . ?
O12 C54 Cd3 62.9(5) . 1_545 ?
O11 C54 Cd3 58.3(4) . 1_545 ?
C55 C54 Cd3 174.2(6) . 1_545 ?
C56 C55 C60 118.5(9) . . ?
C56 C55 C54 120.8(9) . . ?
C60 C55 C54 120.7(9) . . ?
C55 C56 C57 120.3(9) . . ?
C55 C56 H56 119.8 . . ?
C57 C56 H56 119.8 . . ?
C58 C57 C56 121.6(9) . . ?
C58 C57 H57 119.2 . . ?
C56 C57 H57 119.2 . . ?
C57 C58 C59 117.6(9) . . ?
C57 C58 C65 122.8(9) . . ?
C59 C58 C65 119.6(8) . . ?
C60 C59 C58 119.2(9) . . ?
C60 C59 H59 120.4 . . ?
C58 C59 H59 120.4 . . ?
C59 C60 C55 122.7(10) . . ?
C59 C60 H60 118.6 . . ?
C55 C60 H60 118.6 . . ?
C66 C61 C62 118.8(9) . . ?
C66 C61 C44 124.9(8) . . ?
C62 C61 C44 116.2(8) . . ?
C63 C62 C61 120.5(9) . . ?
C63 C62 H62 119.8 . . ?
C61 C62 H62 119.8 . . ?
C62 C63 C64 118.2(9) . . ?
C62 C63 C51 120.1(8) . . ?
C64 C63 C51 121.7(9) . . ?
C65 C64 C63 121.1(9) . . ?
C65 C64 H64 119.4 . . ?
C63 C64 H64 119.4 . . ?
C66 C65 C64 117.9(8) . . ?
C66 C65 C58 121.6(8) . . ?
C64 C65 C58 120.5(8) . . ?
C61 C66 C65 123.6(9) . . ?
C61 C66 H66 118.2 . . ?
C65 C66 H66 118.2 . . ?
N3 C67 H67A 109.5 . . ?
N3 C67 H67B 109.5 . . ?
H67A C67 H67B 109.5 . . ?
N3 C67 H67C 109.5 . . ?
H67A C67 H67C 109.5 . . ?
H67B C67 H67C 109.5 . . ?
N3 C68 H68A 109.5 . . ?
N3 C68 H68B 109.5 . . ?
H68A C68 H68B 109.5 . . ?
N3 C68 H68C 109.5 . . ?
H68A C68 H68C 109.5 . . ?
H68B C68 H68C 109.5 . . ?
O13 C69 N3 124.2(11) . . ?
O13 C69 H69 117.9 . . ?
N3 C69 H69 117.9 . . ?
C72 N4 C70 120(3) . . ?
C72 N4 C71 129(3) . . ?
C70 N4 C71 108(3) . . ?
N4 C70 H70A 109.5 . . ?
N4 C70 H70B 109.5 . . ?
H70A C70 H70B 109.5 . . ?
N4 C70 H70C 109.5 . . ?
H70A C70 H70C 109.5 . . ?
H70B C70 H70C 109.5 . . ?
N4 C71 H71A 109.5 . . ?
N4 C71 H71B 109.5 . . ?
H71A C71 H71B 109.5 . . ?
N4 C71 H71C 109.5 . . ?
H71A C71 H71C 109.5 . . ?
H71B C71 H71C 109.5 . . ?
O15 C72 N4 132(4) . . ?
O15 C72 H72 113.8 . . ?
N4 C72 H72 113.8 . . ?
loop_
_geom_bond_atom_site_label_1
_geom_bond_atom_site_label_2
_geom_bond_distance
_geom_bond_site_symmetry_2
_geom_bond_publ_flag
Cd1 O6 2.251(7) 1_455 ?
Cd1 O1 2.262(6) . ?
Cd1 N1 2.344(7) . ?
Cd1 O4 2.397(6) 1_545 ?
Cd1 O3 2.406(6) 1_545 ?
Cd1 O5 2.478(7) 1_455 ?
Cd1 C27 2.710(9) 1_455 ?
Cd1 C20 2.757(8) 1_545 ?
Cd2 O2 2.164(6) . ?
Cd2 O7 2.177(6) . ?
Cd2 O4 2.292(6) 1_545 ?
Cd2 O14 2.312(7) . ?
Cd2 O11 2.353(7) 1_565 ?
Cd2 O13 2.386(7) . ?
Cd3 O8 2.230(7) . ?
Cd3 O9 2.233(7) 1_655 ?
Cd3 O11 2.322(6) 1_565 ?
Cd3 N2 2.324(8) 1_546 ?
Cd3 O12 2.424(7) 1_565 ?
Cd3 O10 2.496(7) 1_655 ?
Cd3 C47 2.689(11) 1_655 ?
Cd3 C54 2.722(9) 1_565 ?
O1 C13 1.273(10) . ?
O2 C13 1.250(10) . ?
O3 C20 1.261(11) . ?
O4 C20 1.286(11) . ?
O5 C27 1.211(10) . ?
O6 C27 1.258(10) . ?
O7 C40 1.286(10) . ?
O8 C40 1.239(11) . ?
O9 C47 1.228(13) . ?
O10 C47 1.233(12) . ?
O11 C54 1.272(11) . ?
O12 C54 1.232(11) . ?
O13 C69 1.208(11) . ?
O14 H14A 0.8299 . ?
O14 H14B 0.8301 . ?
N1 C5 1.292(12) . ?
N1 C1 1.329(11) . ?
N2 C11 1.338(12) . ?
N2 C10 1.335(11) . ?
N3 C69 1.362(12) . ?
N3 C68 1.440(13) . ?
N3 C67 1.489(13) . ?
C1 C2 1.378(13) . ?
C1 H1 0.9400 . ?
C2 C3 1.348(13) . ?
C2 H2 0.9400 . ?
C3 C4 1.407(13) . ?
C3 C6 1.453(13) . ?
C4 C5 1.393(14) . ?
C4 H4 0.9400 . ?
C5 H5 0.9400 . ?
C6 C7 1.314(13) . ?
C6 H6 0.9400 . ?
C7 C8 1.496(13) . ?
C7 H7 0.9400 . ?
C8 C12 1.361(12) . ?
C8 C9 1.380(13) . ?
C9 C10 1.365(13) . ?
C9 H9 0.9400 . ?
C10 H10 0.9400 . ?
C11 C12 1.344(13) . ?
C11 H11 0.9400 . ?
C12 H12 0.9400 . ?
C13 C14 1.516(12) . ?
C14 C19 1.403(12) . ?
C14 C15 1.414(13) . ?
C15 C16 1.362(13) . ?
C15 H15 0.9400 . ?
C16 C17 1.440(13) . ?
C16 H16 0.9400 . ?
C17 C18 1.393(13) . ?
C17 C34 1.483(12) . ?
C18 C19 1.363(12) . ?
C18 H18 0.9400 . ?
C19 H19 0.9400 . ?
C20 C21 1.473(11) . ?
C21 C26 1.385(12) . ?
C21 C22 1.401(12) . ?
C22 C23 1.404(12) . ?
C22 H22 0.9400 . ?
C23 C24 1.395(13) . ?
C23 H23 0.9400 . ?
C24 C25 1.384(12) . ?
C24 C36 1.476(11) . ?
C25 C26 1.397(12) . ?
C25 H25 0.9400 . ?
C26 H26 0.9400 . ?
C27 C28 1.496(12) . ?
C28 C29 1.353(12) . ?
C28 C33 1.388(12) . ?
C29 C30 1.421(13) . ?
C29 H29 0.9400 . ?
C30 C31 1.340(12) . ?
C30 H30 0.9400 . ?
C31 C32 1.420(13) . ?
C31 C38 1.476(11) . ?
C32 C33 1.381(13) . ?
C32 H32 0.9400 . ?
C33 H33 0.9400 . ?
C34 C39 1.385(12) . ?
C34 C35 1.415(11) . ?
C35 C36 1.400(12) . ?
C35 H35 0.9400 . ?
C36 C37 1.386(12) . ?
C37 C38 1.390(11) . ?
C37 H37 0.9400 . ?
C38 C39 1.386(12) . ?
C39 H39 0.9400 . ?
C40 C41 1.503(12) . ?
C41 C46 1.366(11) . ?
C41 C42 1.393(13) . ?
C42 C43 1.398(12) . ?
C42 H42 0.9400 . ?
C43 C44 1.384(12) . ?
C43 H43 0.9400 . ?
C44 C45 1.391(13) . ?
C44 C61 1.491(13) . ?
C45 C46 1.376(12) . ?
C45 H45 0.9400 . ?
C46 H46 0.9400 . ?
C47 C48 1.523(14) . ?
C48 C53 1.325(14) . ?
C48 C49 1.379(14) . ?
C49 C50 1.368(13) . ?
C49 H49 0.9400 . ?
C50 C51 1.401(13) . ?
C50 H50 0.9400 . ?
C51 C52 1.370(13) . ?
C51 C63 1.517(13) . ?
C52 C53 1.394(14) . ?
C52 H52 0.9400 . ?
C53 H53 0.9400 . ?
C54 C55 1.529(12) . ?
C55 C56 1.356(13) . ?
C55 C60 1.389(12) . ?
C56 C57 1.387(12) . ?
C56 H56 0.9400 . ?
C57 C58 1.382(12) . ?
C57 H57 0.9400 . ?
C58 C59 1.417(12) . ?
C58 C65 1.472(12) . ?
C59 C60 1.354(11) . ?
C59 H59 0.9400 . ?
C60 H60 0.9400 . ?
C61 C66 1.353(12) . ?
C61 C62 1.408(12) . ?
C62 C63 1.402(12) . ?
C62 H62 0.9400 . ?
C63 C64 1.411(12) . ?
C64 C65 1.397(12) . ?
C64 H64 0.9400 . ?
C65 C66 1.378(12) . ?
C66 H66 0.9400 . ?
C67 H67A 0.9700 . ?
C67 H67B 0.9700 . ?
C67 H67C 0.9700 . ?
C68 H68A 0.9700 . ?
C68 H68B 0.9700 . ?
C68 H68C 0.9700 . ?
C69 H69 0.9400 . ?
O15 C72 1.257(19) . ?
N4 C72 1.369(19) . ?
N4 C70 1.427(19) . ?
N4 C71 1.478(19) . ?
C70 H70A 0.9700 . ?
C70 H70B 0.9700 . ?
C70 H70C 0.9700 . ?
C71 H71A 0.9700 . ?
C71 H71B 0.9700 . ?
C71 H71C 0.9700 . ?
C72 H72 0.9400 . ?
