#------------------------------------------------------------------------------
#$Date: 2020-10-06 09:21:12 +0300 (Tue, 06 Oct 2020) $
#$Revision: 257270 $
#$URL: file:///home/coder/svn-repositories/cod/cif/7/12/69/7126984.cif $
#------------------------------------------------------------------------------
#
# This file is available in the Crystallography Open Database (COD),
# http://www.crystallography.net/
#
# All data on this site have been placed in the public domain by the
# contributors.
#
data_7126984
loop_
_publ_author_name
'Zhang, Xiurong'
'Fan, Weidong'
'Fu, Mingyue'
'Jiang, Weifeng'
'Lu, Kebin'
'Wang, Yutong'
'Sun, Daofeng'
_publ_section_title
;
 Optimizing zirconium metal-organic frameworks through steric tuning for
 efficient removal of Cr<sub>2</sub>O<sub>7</sub><sup>2</sup>.
;
_journal_issue                   72
_journal_name_full
'Chemical communications (Cambridge, England)'
_journal_page_first              10513
_journal_page_last               10516
_journal_paper_doi               10.1039/d0cc04007j
_journal_volume                  56
_journal_year                    2020
_chemical_formula_moiety         'C42 H40 N2 O16 Zr3'
_chemical_formula_sum            'C42 H40 N2 O16 Zr3'
_chemical_formula_weight         1102.42
_space_group_crystal_system      orthorhombic
_space_group_IT_number           69
_space_group_name_Hall           '-F 2 2'
_space_group_name_H-M_alt        'F m m m'
_atom_sites_solution_hydrogens   mixed
_atom_sites_solution_primary     dual
_audit_creation_date             2020-07-16
_audit_creation_method
;
Olex2 1.3
(compiled 2020.06.28 svn.raecde09e for OlexSys, GUI svn.r6132)
;
_audit_update_record
;
2020-07-19 deposited with the CCDC.	2020-07-22 downloaded from the CCDC.
;
_cell_angle_alpha                90
_cell_angle_beta                 90
_cell_angle_gamma                90
_cell_formula_units_Z            8
_cell_length_a                   20.717(2)
_cell_length_b                   31.9589(11)
_cell_length_c                   34.5056(8)
_cell_measurement_reflns_used    2058
_cell_measurement_temperature    150.04(10)
_cell_measurement_theta_max      65.1710
_cell_measurement_theta_min      4.2700
_cell_volume                     22846(2)
_computing_cell_refinement       'CrysAlisPro 1.171.40.53 (Rigaku OD, 2019)'
_computing_data_collection       'CrysAlisPro 1.171.40.53 (Rigaku OD, 2019)'
_computing_data_reduction        'CrysAlisPro 1.171.40.53 (Rigaku OD, 2019)'
_computing_molecular_graphics    'Olex2 1.3 (Dolomanov et al., 2009)'
_computing_publication_material  'Olex2 1.3 (Dolomanov et al., 2009)'
_computing_structure_refinement  'SHELXL 2018/3 (Sheldrick, 2015)'
_computing_structure_solution    'SHELXT  (Sheldrick, 2015)'
_diffrn_ambient_environment      N~2~
_diffrn_ambient_temperature      150.04(10)
_diffrn_detector                 'CCD plate'
_diffrn_detector_area_resol_mean 16.0450
_diffrn_detector_type            Eos
_diffrn_measured_fraction_theta_full 0.981
_diffrn_measured_fraction_theta_max 0.958
_diffrn_measurement_details
;
List of Runs (angles in degrees, time in seconds):

  # Type    Start    End  Width  t~exp~   \w     \q     \k     \f   Frames
#--------------------------------------------------------------------------
  1  \w    -10.00  17.00   1.00   30.06    --    0.00  57.00  30.00   27
  2  \w     23.00  59.00   1.00   30.06    --    0.00  57.00  30.00   36
  3  \w    -16.00  11.00   1.00   30.06    --    0.00 -84.00-173.00   27
  4  \w     12.00 128.00   1.00   30.24    --   53.63  19.00 150.00  116
  5  \w     44.00 110.00   1.00   30.24    --   53.63-125.00-150.00   66
  6  \w    115.00 145.00   1.00   20.24    --  107.26 111.00  90.00   30
  7  \w     59.00 115.00   1.00   20.24    --  107.26 -91.00  60.00   56
  8  \w     45.00 130.00   1.00   20.24    --  107.26 -63.00 -60.00   85
  9  \w     46.00 126.00   1.00   20.24    --  107.26 -63.00-180.00   80
 10  \w     69.00 111.00   1.00   20.24    --  107.26-111.00  30.00   42
;
_diffrn_measurement_device       'four-circle diffractometer'
_diffrn_measurement_device_type  'SuperNova, Dual, Cu at home/near, Eos'
_diffrn_measurement_method       '\w scans'
_diffrn_orient_matrix_type
'CrysAlisPro convention (1999,Acta A55,543-557)'
_diffrn_orient_matrix_UB_11      -0.0389700000
_diffrn_orient_matrix_UB_12      0.0373933000
_diffrn_orient_matrix_UB_13      0.0157423000
_diffrn_orient_matrix_UB_21      -0.0188020000
_diffrn_orient_matrix_UB_22      -0.0258646000
_diffrn_orient_matrix_UB_23      0.0359474000
_diffrn_orient_matrix_UB_31      0.0604004000
_diffrn_orient_matrix_UB_32      0.0160306000
_diffrn_orient_matrix_UB_33      0.0213528000
_diffrn_radiation_monochromator  mirror
_diffrn_radiation_probe          x-ray
_diffrn_radiation_type           'Cu K\a'
_diffrn_radiation_wavelength     1.54184
_diffrn_reflns_av_R_equivalents  0.0776
_diffrn_reflns_av_unetI/netI     0.1070
_diffrn_reflns_Laue_measured_fraction_full 0.981
_diffrn_reflns_Laue_measured_fraction_max 0.958
_diffrn_reflns_limit_h_max       25
_diffrn_reflns_limit_h_min       -12
_diffrn_reflns_limit_k_max       38
_diffrn_reflns_limit_k_min       -16
_diffrn_reflns_limit_l_max       41
_diffrn_reflns_limit_l_min       -31
_diffrn_reflns_number            12770
_diffrn_reflns_point_group_measured_fraction_full 0.981
_diffrn_reflns_point_group_measured_fraction_max 0.958
_diffrn_reflns_theta_full        67.684
_diffrn_reflns_theta_max         70.808
_diffrn_reflns_theta_min         4.841
_diffrn_source                   'micro-focus sealed X-ray tube'
_diffrn_source_type              'SuperNova (Cu) X-ray Source'
_diffrn_standards_number         0
_exptl_absorpt_coefficient_mu    2.448
_exptl_absorpt_correction_T_max  1.00000
_exptl_absorpt_correction_T_min  0.72319
_exptl_absorpt_correction_type   multi-scan
_exptl_absorpt_process_details
;
CrysAlisPro 1.171.40.53 (Rigaku Oxford Diffraction, 2019)
Empirical absorption correction using spherical harmonics,
 implemented in SCALE3 ABSPACK scaling algorithm.
;
_exptl_crystal_colour            colourless
_exptl_crystal_colour_primary    colourless
_exptl_crystal_density_diffrn    0.641
_exptl_crystal_description       block
_exptl_crystal_F_000             4432
_exptl_crystal_size_max          0.1
_exptl_crystal_size_mid          0.08
_exptl_crystal_size_min          0.05
_refine_diff_density_max         0.562
_refine_diff_density_min         -0.814
_refine_diff_density_rms         0.064
_refine_ls_extinction_method     none
_refine_ls_goodness_of_fit_ref   0.911
_refine_ls_hydrogen_treatment    constr
_refine_ls_matrix_type           full
_refine_ls_number_parameters     162
_refine_ls_number_reflns         5641
_refine_ls_number_restraints     0
_refine_ls_restrained_S_all      0.911
_refine_ls_R_factor_all          0.1198
_refine_ls_R_factor_gt           0.0671
_refine_ls_shift/su_max          0.000
_refine_ls_shift/su_mean         0.000
_refine_ls_structure_factor_coef Fsqd
_refine_ls_weighting_details
'w=1/[\s^2^(Fo^2^)+(0.0896P)^2^] where P=(Fo^2^+2Fc^2^)/3'
_refine_ls_weighting_scheme      calc
_refine_ls_wR_factor_gt          0.1597
_refine_ls_wR_factor_ref         0.1918
_reflns_Friedel_coverage         0.000
_reflns_number_gt                2734
_reflns_number_total             5641
_reflns_threshold_expression     'I > 2\s(I)'
_cod_data_source_file            d0cc04007j2.cif
_cod_data_source_block           UPC-48
_cod_depositor_comments          'Adding full bibliography for 7126984.cif.'
_cod_original_cell_volume        22845(3)
_cod_database_code               7126984
_shelx_shelxl_version_number     2018/3
_chemical_oxdiff_formula         'C H O N Zr'
_shelx_space_group_comment
;
The symmetry employed for this shelxl refinement is uniquely defined
by the following loop, which should always be used as a source of
symmetry information in preference to the above space-group names.
They are only intended as comments.
;
_shelx_estimated_absorpt_t_max   0.792
_shelx_estimated_absorpt_t_min   0.640
_reflns_odcompleteness_completeness 99.47
_reflns_odcompleteness_iscentric 1
_reflns_odcompleteness_theta     66.97
_olex2_refinement_description
;
1. Fixed Uiso
 At 1.2 times of:
  All C(H) groups, All N(H,H) groups
 At 1.5 times of:
  All C(H,H,H) groups, All O(H) groups, All O(H,H) groups
2. Others
 Fixed Sof: H6A(0.5) H6B(0.5) H1A(0.5) H1B(0.5) H5A(0.5) H5B(0.5) H10(0.5)
 C12(0.5) H12A(0.5) H12B(0.5) H12C(0.5)
3.a Riding coordinates:
 O1(H1), O2(H2)
3.b Rotating group:
 O6(H6A,H6B), N1(H1A,H1B), O5(H5A,H5B)
3.c Aromatic/amide H refined with riding coordinates:
 C10(H10), C3(H3), C4(H4), C7(H7), C6(H6)
3.d Idealised Me refined as rotating group:
 C12(H12A,H12B,H12C)
;
_shelx_res_file
;
TITL CF solution in Fmmm
    zxr-zr-1_sq.res
    created by SHELXL-2018/3 at 07:49:54 on 15-Jul-2020
CELL 1.54184 20.716644 31.958864 34.505597 90 90 90
ZERR 8 0.002138 0.001137 0.000768 0 0 0
LATT 4
SYMM -X,-Y,+Z
SYMM +X,-Y,-Z
SYMM -X,+Y,-Z
SFAC C H N O Zr
UNIT 336 320 16 128 24

L.S. 5 0 65
PLAN  31
SIZE 0.1 0.18 0.2
CONF
MORE -1
ABIN
fmap 2
acta
BOND $H
OMIT 0 2 6
OMIT 2 0 6
OMIT 2 2 8
OMIT 3 3 11
OMIT 3 5 3
OMIT 2 8 4
OMIT 0 6 2
OMIT 5 7 7
OMIT 2 2 6
OMIT 2 0 0
OMIT 2 2 2
OMIT 1 3 7
OMIT 4 8 4
OMIT 4 0 8
OMIT 2 2 4
OMIT 0 12 2
OMIT 5 3 1
OMIT 0 10 0
OMIT 2 8 2
OMIT 2 18 10
OMIT 0 6 0
OMIT 4 4 4
OMIT 2 4 4
OMIT 4 12 0
OMIT 5 5 3
OMIT 3 13 3
OMIT 1 25 1
OMIT 1 3 9
OMIT 3 3 9
OMIT 1 1 3
OMIT 5 3 3
OMIT 4 4 0
OMIT 0 4 0
OMIT 0 26 0
OMIT 0 26 2
OMIT 5 5 5
OMIT 1 3 5
OMIT 3 1 1
OMIT 5 7 3
OMIT 4 2 4
OMIT 6 4 6
OMIT 2 6 0
OMIT 10 4 0
OMIT 3 5 9
OMIT 0 0 8
OMIT 3 3 5
OMIT 8 0 4
OMIT 3 7 3
OMIT 0 2 4
OMIT 5 3 11
OMIT 4 0 4
OMIT 1 5 13
OMIT 2 4 0
OMIT 0 10 2
OMIT 2 2 0
OMIT 0 24 2
OMIT 6 14 12
OMIT 0 0 6
OMIT 8 4 12
OMIT 1 5 1
OMIT 0 0 4
OMIT 4 2 16
OMIT 5 5 9
OMIT 0 12 4
OMIT 3 3 1
OMIT 2 4 14
OMIT 2 10 2
OMIT 2 4 6
OMIT 1 5 3
OMIT 1 27 1
OMIT 4 10 0
OMIT 1 1 5
OMIT 4 6 4
OMIT 2 4 8
REM <olex2.extras>
REM <HklSrc "%.\\zxr-zr-1_sq.hkl">
REM </olex2.extras>

WGHT    0.089600
FVAR       0.07591
ZR1   5    0.500000    0.000000    0.070805    10.25000    0.13953    0.05536 =
         0.03354    0.00000    0.00000    0.00000
ZR2   5    0.414482    0.055362    0.000000    10.50000    0.14521    0.06107 =
         0.03586    0.00000    0.00000    0.00787
O1    4    0.414330    0.000000    0.034882    10.50000    0.19784    0.09256 =
         0.05974    0.00000   -0.03908    0.00000
AFIX   3
H1    2    0.380240    0.000000    0.048582    10.50000   -1.50000
AFIX   0
O2    4    0.500000    0.052840    0.033636    10.50000    0.11624    0.15572 =
         0.05831    0.03084    0.00000    0.00000
AFIX   3
H2    2    0.500000    0.074830    0.047476    10.50000   -1.50000
AFIX   0
O3    4    0.435815    0.041728    0.104045    11.00000    0.15919    0.05728 =
         0.04249   -0.00289    0.00405    0.00077
O6    4    0.423458    0.123808    0.000000    10.50000    0.22635    0.06647 =
         0.04985    0.00000    0.00000    0.01242
AFIX   7
H6A   2    0.460426    0.131248   -0.010043    10.50000   -1.50000
H6B   2    0.425682    0.133628    0.023650    10.50000   -1.50000
AFIX   0
O4    4    0.380903    0.078992    0.058580    11.00000    0.17113    0.08208 =
         0.05165   -0.00854   -0.00118    0.03297
N1    3    0.250000    0.095060    0.250000    10.50000    0.27144    0.06024 =
         0.09876    0.00000    0.05568    0.00000
AFIX   7
H1A   2    0.219949    0.084630    0.265492    10.50000   -1.20000
H1B   2    0.242667    0.084630    0.226628    10.50000   -1.20000
AFIX   0
C11   1    0.250000    0.226399    0.250000    10.50000    0.13967    0.04940 =
         0.03739    0.00000    0.00479    0.00000
C2    1    0.368829    0.094048    0.125623    11.00000    0.18205    0.06220 =
         0.03842   -0.00248    0.00446    0.01236
C8    1    0.279035    0.161528    0.219298    11.00000    0.17304    0.06036 =
         0.04635   -0.00962    0.01746    0.00618
O5    4    0.310221    0.051659    0.000000    10.50000    0.20864    0.09783 =
         0.06004    0.00000    0.00000    0.00530
AFIX   7
H5A   2    0.297721    0.027649    0.009110    10.50000   -1.50000
H5B   2    0.295301    0.051608   -0.023560    10.50000   -1.50000
AFIX   0
C5    1    0.310264    0.137623    0.186842    11.00000    0.15378    0.06277 =
         0.04417   -0.00209    0.01520    0.01450
C10   1    0.279771    0.204312    0.220000    11.00000    0.16249    0.05209 =
         0.04444    0.00261    0.00661    0.00867
PART 2
AFIX  43
H10   2    0.300379    0.218895    0.200229    10.50000   -1.20000
AFIX   0
PART 0
C9    1    0.250000    0.138893    0.250000    10.50000    0.18087    0.05651 =
         0.05751    0.00000    0.01820    0.00000
C3    1    0.390764    0.089973    0.162282    11.00000    0.19095    0.09317 =
         0.04629   -0.01222   -0.00291    0.03594
AFIX  43
H3    2    0.424678    0.071808    0.167646    11.00000   -1.20000
AFIX   0
C4    1    0.362197    0.113277    0.192373    11.00000    0.18410    0.09725 =
         0.04617   -0.01984   -0.00583    0.03707
AFIX  43
H4    2    0.380046    0.111726    0.217062    11.00000   -1.20000
AFIX   0
C7    1    0.315992    0.119764    0.119087    11.00000    0.19152    0.11216 =
         0.04286   -0.00267    0.00855    0.03753
AFIX  43
H7    2    0.298812    0.121921    0.094267    11.00000   -1.20000
AFIX   0
C6    1    0.288181    0.142598    0.149658    11.00000    0.18484    0.09856 =
         0.05272   -0.00176    0.00872    0.03698
AFIX  43
H6    2    0.254644    0.161167    0.144636    11.00000   -1.20000
AFIX   0
C1    1    0.398231    0.068824    0.094038    11.00000    0.14986    0.07512 =
         0.04153   -0.00774    0.00878    0.00160
PART 1
C12   1    0.321576    0.226972    0.186779    10.50000    0.25191    0.07601 =
         0.05765    0.01341    0.04784    0.01105
AFIX 137
H12A  2    0.299584    0.224584    0.162390    10.50000   -1.50000
H12B  2    0.363152    0.213855    0.184947    10.50000   -1.50000
H12C  2    0.326935    0.255998    0.193178    10.50000   -1.50000
AFIX   0
HKLF 4




REM  CF solution in Fmmm
REM wR2 = 0.1918, GooF = S = 0.911, Restrained GooF = 0.911 for all data
REM R1 = 0.0671 for 2734 Fo > 4sig(Fo) and 0.1198 for all 5641 data
REM 162 parameters refined using 0 restraints

END

WGHT      0.0897      0.0000

REM Highest difference peak  0.562,  deepest hole -0.814,  1-sigma level  0.064
Q1    1   0.5000  0.0618  0.0000  10.25000  0.05    0.56
Q2    1   0.4083  0.0892 -0.0234  11.00000  0.05    0.49
Q3    1   0.3677  0.0371  0.0065  11.00000  0.05    0.47
Q4    1   0.4201  0.0000  0.0733  10.50000  0.05    0.47
Q5    1   0.3682  0.0726  0.0090  11.00000  0.05    0.42
Q6    1   0.4119  0.1119  0.0724  11.00000  0.05    0.40
Q7    1   0.5000  0.0343  0.0958  10.50000  0.05    0.39
Q8    1   0.4275  0.1524  0.0251  11.00000  0.05    0.35
Q9    1   0.2632  0.0478 -0.0223  11.00000  0.05    0.35
Q10   1   0.4114  0.0000  0.0443  10.50000  0.05    0.34
Q11   1   0.4206  0.1007  0.0508  11.00000  0.05    0.32
Q12   1   0.5000  0.0279  0.0523  10.50000  0.05    0.30
Q13   1   0.4016  0.0209  0.0169  11.00000  0.05    0.29
Q14   1   0.2372  0.0603  0.0000  10.50000  0.05    0.29
Q15   1   0.5000  0.0744  0.1706  10.50000  0.05    0.25
Q16   1   0.3747  0.1510  0.0000  10.50000  0.05    0.24
Q17   1   0.4126  0.1184  0.1108  11.00000  0.05    0.23
Q18   1   0.4138  0.0784  0.1167  11.00000  0.05    0.23
Q19   1   0.4595  0.0134  0.0276  11.00000  0.05    0.21
Q20   1   0.3208  0.0000  0.0751  10.50000  0.05    0.20
Q21   1   0.3932  0.0643  0.0470  11.00000  0.05    0.20
Q22   1   0.3762  0.0575  0.0945  11.00000  0.05    0.20
Q23   1   0.5000  0.1404  0.0000  10.25000  0.05    0.19
Q24   1   0.5000  0.0784  0.1334  10.50000  0.05    0.19
Q25   1   0.4130  0.0591  0.1442  11.00000  0.05    0.19
Q26   1   0.4538  0.0805  0.1535  11.00000  0.05    0.19
Q27   1   0.3177  0.1131  0.0750  11.00000  0.05    0.18
Q28   1   0.4196  0.0867  0.1379  11.00000  0.05    0.18
Q29   1   0.3515  0.0980  0.0363  11.00000  0.05    0.17
Q30   1   0.2500  0.1280  0.2500  10.50000  0.05    0.17
Q31   1   0.3731  0.2406  0.1695  11.00000  0.05    0.17
;
_shelx_res_checksum              36721
_shelx_hkl_file
;
   0   0 -30  489.45   31.23
   0   0 -28 1160.00   47.15
   0   0 -26  869.24   38.68
   0   0 -24  353.20   23.64
   0   0 -22  215.23   18.05
   0   0 -20 1065.96   35.90
   0   0 -18 1456.16   38.30
   0   0 -16 3285.53   52.54
   0   0 -14 1697.33   35.05
   0   0   4 3839.49   26.43
   0   0   6  252.52    8.56
   0   0   8 2980.33   33.56
   0   0  10 2311.21   33.70
   0   0  12 2654.82   39.64
   0   0  14 1504.46   32.86
   0   0  28 1010.51   62.51
   0   0  30  366.40   38.48
   0   0  32 1122.84   68.98
   0   0  34   28.27   13.32
   0   0  36  102.33   20.06
   0   0  38   27.90   10.58
   0  -2 -30  948.13   43.27
   0   2 -30  992.24   44.49
   0   2 -28  472.35   30.20
   0  -2 -28  493.72   30.09
   0  -2 -26  447.81   27.75
   0   2 -26  410.47   27.01
   0  -2 -24  192.00   17.53
   0   2 -24  185.51   17.41
   0  -2 -22   33.23    7.42
   0   2 -22   27.90    7.79
   0  -2 -20  389.64   21.26
   0   2 -20  373.84   21.51
   0   2 -18  752.90   27.74
   0   2 -16  815.57   26.74
   0   2 -14  617.24   21.24
   0   2 -12 1442.78   29.98
   0  -2  -6  532.93   13.73
   0   2   4  277.38    8.88
   0   2   6  497.91   12.89
   0   2   8  365.54   12.62
   0   2  10  943.47   22.24
   0   2  12 1334.49   28.93
   0  -2  12 1323.99   27.07
   0  -2  14  540.67   19.29
   0  -2  28  356.65   37.73
   0   2  28  399.45   39.20
   0  -2  30  757.87   55.62
   0   2  30  891.25   58.58
   0  -2  32   81.68   19.42
   0   2  32  109.10   21.80
   0  -2  34   53.60   16.29
   0   2  34   57.69   15.81
   0  -2  36    2.62    8.40
   0   2  36   -4.29    8.47
   0   2  38   47.92   13.89
   0   4 -30  239.93   22.73
   0  -4 -30  249.61   22.92
   0   4 -28  432.12   29.11
   0  -4 -28  460.74   29.40
   0  -4 -26   32.64    9.56
   0   4 -26   17.29    7.33
   0   4 -24    3.44    5.56
   0  -4 -24    6.27    4.58
   0   4 -22   61.08    9.70
   0  -4 -22   50.53    8.66
   0   4 -20   72.86    9.55
   0   4 -18   -0.78    5.05
   0   4 -16   45.24    6.70
   0   4 -14  131.51   10.34
   0   4 -12  165.37   10.57
   0  -4 -10    0.94    3.05
   0  -4   0  137.40    6.53
   0   4   2 1423.66   20.21
   0   4   4  241.76    9.96
   0   4  10    2.27    3.08
   0   4  12  155.88   10.63
   0  -4  14  102.88    8.40
   0   4  28  452.04   41.45
   0  -4  28  319.47   35.68
   0   4  30  194.94   28.57
   0  -4  30  183.83   28.29
   0  -4  32   22.01   11.20
   0   4  32   21.80   12.19
   0   4  34   11.52    9.19
   0  -4  34   10.73    9.09
   0   4  36   22.84    9.20
   0   4  38   -8.85    9.52
   0   4  40  -12.35    8.35
   0  -6 -30   60.89   11.68
   0   6 -30   61.06   11.78
   0   6 -28  178.69   19.30
   0  -6 -28  142.97   16.86
   0  -6 -26    6.51    5.98
   0   6 -26    4.25    5.92
   0   6 -24  334.98   23.90
   0  -6 -24  368.06   24.46
   0   6 -22  345.16   23.35
   0   6 -20 1093.99   37.51
   0   6 -18  560.06   25.19
   0   6 -16 1006.48   31.30
   0   6 -14   92.93    8.97
   0  -6 -12  581.18   22.46
   0   6 -12  523.73   19.21
   0  -6 -10  256.84   14.13
   0   6 -10  240.72   12.34
   0  -6   0   58.68    5.07
   0   6   2 1411.97   24.64
   0   6   4   45.03    6.86
   0   6   6  711.07   19.92
   0   6   8  919.09   24.62
   0   6  10  231.98   13.34
   0   6  28  181.07   27.32
   0  -6  28  150.56   26.58
   0   6  30   50.80   17.44
   0  -6  30   38.53   14.94
   0  -6  32   90.88   20.42
   0   6  32  134.21   23.48
   0   6  34  146.92   24.32
   0   6  36  124.37   21.15
   0   6  38   14.90    9.08
   0   6  40  -12.36    8.34
   0  -8 -28   25.32    6.47
   0   8 -28   43.75   11.64
   0   8 -26    3.90    5.06
   0  -8 -26    0.36    5.47
   0   8 -24  294.51   22.51
   0   8 -22 1304.70   44.66
   0   8 -20 1148.66   39.80
   0   8 -18 2195.84   52.11
   0   8 -16   34.35    7.22
   0   8 -14  295.80   17.10
   0   8 -12  337.87   16.55
   0   8 -10 1296.79   29.31
   0  -8 -10 1108.82   31.60
   0  -8  -8 2552.64   44.18
   0   8  -8 2460.36   39.31
   0  -8   0   46.07    5.08
   0   8   4 1437.33   29.62
   0   8   4 1393.22   23.75
   0   8   6  730.70   22.30
   0   8   8 2293.81   41.40
   0   8  26    1.34    8.50
   0  -8  26   -4.07   10.29
   0   8  28   66.84   17.42
   0  -8  28   10.70    9.82
   0   8  30  231.48   30.75
   0   8  32  129.56   22.64
   0   8  34  256.90   30.77
   0   8  36  219.73   26.74
   0   8  38   67.36   14.35
   0   8  40   16.16    6.31
   0 -10 -28  253.31   22.01
   0  10 -28  259.89   23.37
   0 -10 -26   95.12   13.05
   0  10 -26  131.18   15.84
   0  10 -24  114.67   14.80
   0  10 -22 1277.10   45.87
   0  10 -20 1941.75   52.92
   0  10 -18  597.91   27.81
   0  10 -16   77.99   10.60
   0  10 -14   92.15   10.77
   0  10 -12 1741.89   39.23
   0  10 -10 2766.64   47.89
   0  10  -8 2508.84   40.78
   0 -10  -6 2452.56   43.81
   0  10  -6 2516.13   39.47
   0  10  -4  963.91   22.95
   0  10  -2 2548.76   35.82
   0 -10  -2 2570.62   41.25
   0  10   0    4.15    3.08
   0 -10   0    2.35    3.14
   0 -10   2 2424.60   38.36
   0  10   2 2465.43   34.21
   0  10   4  930.59   21.61
   0  10   6 2361.14   44.28
   0  10  26  140.24   22.82
   0  10  28  245.50   31.13
   0  10  30   49.31   14.79
   0  10  32  108.65   19.54
   0  10  34  249.58   29.40
   0  10  36  140.34   21.07
   0  10  38  131.12   18.70
   0  10  40   25.49    7.94
   0  12 -28   66.48   12.45
   0  12 -26  143.29   17.08
   0  12 -24   38.68    9.02
   0  12 -22  572.07   31.85
   0  12 -20  862.86   37.73
   0  12 -18  309.16   21.61
   0  12 -16  216.53   17.39
   0  12 -14   43.12   10.29
   0  12 -12  197.61   15.06
   0  12 -10 3108.12   52.07
   0  12  -8 2424.38   44.20
   0  12  -6 1528.29   33.04
   0  12  -4  118.41    8.87
   0  12  -2  168.22   10.21
   0 -12  -2  111.95   12.19
   0  12   0   97.72    7.77
   0 -12   0   99.92    9.04
   0 -12   2  181.52   11.68
   0  12   2  177.10   10.10
   0 -12   4  117.09    9.34
   0  12   4  117.72    8.96
   0  12   6 1477.09   30.77
   0  12  26  146.00   23.81
   0  12  28   48.92   14.36
   0  12  30   -7.58    9.05
   0  12  32   32.15   12.58
   0  12  34   46.97   14.17
   0  12  36  100.44   17.75
   0  12  38   57.46   12.73
   0  14 -26    5.38    5.59
   0  14 -24   -5.11    6.03
   0  14 -22   12.40    7.30
   0  14 -20   18.94    9.34
   0  14 -18    2.29    8.22
   0  14 -16   75.76   14.97
   0  14 -14  510.93   25.33
   0  14 -12  317.67   19.25
   0  14 -10  271.18   16.88
   0  14  -8  722.31   25.88
   0  14  -6  140.20   11.10
   0  14  -4  210.01   12.88
   0  14  -2   80.47    8.14
   0  14   0 2260.95   39.58
   0  14   2   69.86    7.11
   0  14   4  208.29   12.64
   0  14   6  131.23   10.26
   0  14  24   14.66   11.27
   0  14  26    2.72   10.48
   0  14  28  106.97   20.99
   0  14  30  -11.90   10.79
   0  14  32   38.50   12.48
   0  14  34    1.55    7.57
   0  14  36    4.92    6.10
   0  14  38   10.96    6.60
   0  16 -24  119.93   16.61
   0  16 -22  122.00   16.14
   0  16 -20   84.74   13.58
   0  16 -18   89.49   15.52
   0  16 -16  625.86   31.78
   0  16 -14  693.45   31.39
   0  16 -12  558.19   26.67
   0  16 -10  890.63   32.04
   0  16  -8   10.61    5.51
   0  16  -6  261.21   16.02
   0  16  -4  469.72   20.82
   0  16  -2 1937.83   40.48
   0  16   0 1145.39   30.48
   0  16   2 1951.21   40.15
   0  16   4  491.61   20.45
   0  16   6  228.84   14.37
   0  16  22  120.12   21.59
   0  16  24  115.97   21.10
   0  16  26  434.27   40.19
   0  16  28  301.36   33.67
   0  16  30  183.52   26.33
   0  16  32   44.20   12.79
   0  16  34   27.94   10.45
   0  16  36  -11.76    6.50
   0  16  38    1.47    4.43
   0  18 -24  234.68   22.75
   0  18 -22   79.04   13.22
   0  18 -20   47.20   10.60
   0  18 -18  122.42   15.66
   0  18 -16  386.25   25.62
   0  18 -14  617.34   31.22
   0  18 -12  492.16   26.90
   0  18 -10  903.33   34.12
   0  18  -8  296.35   19.04
   0  18  -6  202.21   14.78
   0  18  -4 1006.97   31.62
   0  18  -2  911.31   29.39
   0  18   0 1327.58   35.81
   0  18   2  907.37   29.55
   0  18   4  964.81   30.80
   0  18   6  185.77   13.89
   0  18  20   45.62   12.83
   0  18  22   97.15   20.36
   0  18  24  234.08   30.51
   0  18  26  397.23   39.00
   0  18  28  381.43   37.14
   0  18  30  234.37   27.51
   0  18  32   68.34   15.48
   0  18  34   10.38    7.31
   0  18  36   18.75    7.20
   0  20 -22    7.88    6.12
   0  20 -20   -2.12    5.25
   0  20 -18  109.33   15.50
   0  20 -16   55.86   11.24
   0  20 -14  444.48   27.19
   0  20 -12  187.10   17.94
   0  20 -10  152.89   16.49
   0  20  -8  199.39   16.29
   0  20  -6  100.13   11.54
   0  20  -4  218.03   16.52
   0  20  -2  195.93   15.00
   0  20   0 1073.32   33.95
   0  20   2  199.40   14.92
   0  20   4  216.69   15.83
   0  20  18   79.06   18.79
   0  20  20   -8.92   10.11
   0  20  22   -4.00    7.95
   0  20  24   70.35   16.32
   0  20  26  172.63   25.60
   0  20  28  236.96   28.21
   0  20  30  138.15   21.00
   0  20  32   32.41   10.57
   0  20  34   -5.67    5.21
   0  22 -20   -5.69    5.75
   0  22 -18   30.50    8.94
   0  22 -16  188.75   19.20
   0  22 -14    0.31    4.66
   0  22 -12  171.30   17.40
   0  22 -10   36.90    8.62
   0  22  -8   11.73    6.61
   0  22  -6    0.58    4.64
   0  22  -4   12.65    5.50
   0  22  -2   57.50    9.19
   0  22   0  598.75   27.02
   0  22   2   43.81    8.19
   0  22   4    0.07    5.89
   0  22  14   -1.08    8.15
   0  22  16  214.37   27.64
   0  22  18   41.34   13.94
   0  22  20    2.10    8.64
   0  22  22   65.68   16.34
   0  22  24   -7.91    9.11
   0  22  26   -3.16    9.92
   0  22  28   71.40   15.11
   0  22  30   27.15    9.27
   0  22  32    0.06    5.27
   0  22  34    9.01    5.39
   0  24 -16   38.11    9.34
   0  24 -14    0.41    4.49
   0  24 -12   25.82    8.13
   0  24 -10   -6.10   13.84
   0  24 -10    5.73    4.68
   0  24  -8  108.79   13.42
   0  24  -6  223.51   19.10
   0  24  -4   53.10    9.54
   0  24  -2   62.94   11.53
   0  24   0  187.13   16.58
   0  24   2   60.15   11.91
   0  24  12   38.68   13.16
   0  24  14   20.98   11.39
   0  24  16   35.62   13.52
   0  24  18   18.75   10.56
   0  24  20  150.03   24.56
   0  24  22  103.15   20.29
   0  24  24   44.08   11.68
   0  24  26    0.83    6.90
   0  24  28   -0.46    7.02
   0  24  30   -0.36    5.85
   0  24  32    9.53    5.59
   0  26 -12   70.87   11.55
   0  26 -10   58.25   11.26
   0  26  -8  358.94   24.73
   0  26  -6  401.44   25.49
   0  26  -4  204.81   18.99
   0  26  -2   62.38   12.21
   0  26   0  101.49   13.63
   0  26   2   52.58   10.60
   0  26   6  446.05   34.00
   0  26   8  444.28   33.49
   0  26  10   78.43   15.08
   0  26  12   95.46   19.64
   0  26  14   43.02   13.58
   0  26  16   62.85   15.94
   0  26  18   60.94   16.50
   0  26  20  105.53   18.55
   0  26  22  154.14   22.66
   0  26  24  143.68   20.91
   0  26  26   18.49    8.54
   0  26  28    3.17    5.93
   0  26  30    6.72    5.48
   0  28  -6  250.33   20.53
   0  28  -4  179.75   17.36
   0  28  -2   32.50    8.04
   0  28   4  211.61   24.57
   0  28   6  293.85   27.93
   0  28   8  397.91   31.72
   0  28  10  127.28   17.87
   0  28  10  120.25   21.86
   0  28  12   37.49   13.38
   0  28  14   27.71   11.38
   0  28  16   40.67   14.05
   0  28  18  150.49   22.68
   0  28  20   66.94   15.51
   0  28  22  118.23   18.50
   0  28  24  106.22   16.59
   0  28  26   13.32    5.92
   0  28  28   -8.94    4.06
   0  30   2   26.26   11.07
   0  30   4   24.37    9.73
   0  30   6  144.79   19.88
   0  30   8   86.45   15.44
   0  30  10   24.21    8.67
   0  30  10   38.06   13.24
   0  30  12  -18.70   10.85
   0  30  14    0.20    7.86
   0  30  16    2.71    8.16
   0  30  18   42.23   11.62
   0  30  20   52.49   12.12
   0  30  22   18.96    8.89
   0  30  24    8.47    4.62
   0  32  -2   34.13   10.27
   0  32   0   38.09   11.05
   0  32   2   31.97    9.76
   0  32   4    8.33    6.91
   0  32   6   20.27    9.59
   0  32   8   -1.77    4.87
   0  32   8    5.24    8.24
   0  32  10    2.22    6.51
   0  32  10    2.02    7.35
   0  32  12    3.49    6.63
   0  32  14   21.48    9.23
   0  32  16   -0.81    6.77
   0  32  18   12.11    5.87
   0  32  20    1.76    4.27
   0  32  22    2.27    3.85
   0  34 -18    6.19    4.13
   0  34 -16   32.43    8.13
   0  34 -14   75.98   12.19
   0  34 -12   32.39    9.22
   0  34 -10    2.99    5.67
   0  34  -8    4.63    5.72
   0  34  -6   18.16    8.69
   0  34  -4   26.53    9.87
   0  34  -2   50.06   11.66
   0  34   0   75.67   13.95
   0  34   2   41.42   10.92
   0  34   4   28.20    8.94
   0  34   6   20.98    8.67
   0  34   6    0.41    6.46
   0  34   8    4.31    6.01
   0  34   8   13.60    8.03
   0  34  10    2.02    5.51
   0  34  10    8.96    7.11
   0  34  12   31.78    9.28
   0  34  14   47.97   10.92
   0  34  16   38.51    9.21
   0  36 -14   49.28    9.26
   0  36 -12   45.25    9.32
   0  36 -10    6.84    6.00
   0  36  -8   11.81    6.57
   0  36  -6    6.82    5.94
   0  36  -4   36.93    9.63
   0  36  -2   30.67    8.97
   0  36   0   66.17   12.19
   0  36   2   37.08    9.30
   0  36   2   18.89    7.97
   0  36   4   41.80    8.99
   0  36   4   21.31    7.66
   0  36   6   17.29    6.97
   0  36   6    9.25    5.70
   0  36   8   -4.86    5.75
   0  38  -8   -1.27    3.76
   0  38  -6    0.25    3.66
   0  38  -4   21.38    6.34
   0  38  -2   31.15    7.84
   0  38   0   12.20    5.26
   0  38   2   35.47    7.73
   0  38   4   16.80    5.40
  -1   1 -31  645.27   36.00
   1  -1 -31  611.17   35.68
  -1  -1 -31  662.67   36.63
   1   1 -31  667.01   36.69
   1   1 -29  679.02   36.53
  -1   1 -29  707.75   36.70
   1  -1 -29  635.04   35.37
  -1  -1 -29  688.17   36.78
  -1  -1 -27  669.78   34.30
  -1   1 -27  690.03   35.03
   1  -1 -27  662.58   34.53
   1   1 -27  653.73   34.33
   1  -1 -25  336.03   23.93
  -1  -1 -25  344.35   24.12
   1   1 -25  373.07   25.06
  -1   1 -25  378.49   24.65
  -1   1 -23  103.21   13.08
   1  -1 -23  117.22   13.76
   1   1 -23  109.28   14.12
  -1  -1 -23  109.69   13.41
   1  -1 -21  167.96   15.12
  -1   1 -21  166.26   15.02
   1   1 -21  189.80   16.07
  -1  -1 -21  168.70   15.02
  -1   1 -19  697.26   27.49
   1  -1 -19  669.80   27.33
   1   1 -19  693.28   28.13
  -1  -1 -19  685.53   27.26
   1   1 -17 1055.13   31.94
  -1   1 -17 1068.38   31.68
  -1  -1 -17 1049.65   30.81
  -1  -1 -15 1110.67   29.00
  -1   1 -15 1104.10   29.73
   1   1 -15 1150.11   30.27
   1   1 -13  990.23   26.35
  -1   1 -13  970.32   25.48
  -1   1 -11 2204.52   35.01
  -1   1  -9  731.74   17.77
  -1  -1  -7  125.29    6.78
  -1  -1  -7  120.10    3.23
  -1  -1  -5  102.72    5.40
   1  -1  -5  105.73    3.18
  -1  -1  -3 3082.13   21.83
  -1   1   3 2896.87   23.86
   1   1   3 2894.23   22.35
   1  -1   5  104.54    4.40
   1  -1   5  111.45    3.10
  -1   1   5  106.28    5.78
   1   1   5  101.72    5.14
   1   1   7  108.96    6.42
   1  -1   7  104.22    5.58
  -1  -1   7  122.62    3.15
  -1   1   7  113.95    7.13
   1   1   9  650.02   16.63
  -1   1   9  618.31   17.90
   1   1  11 2064.96   32.46
  -1  -1  11 2124.58   34.59
  -1   1  11 2037.94   35.35
   1  -1  11 2107.98   31.46
  -1  -1  13  866.81   24.55
   1   1  13  846.29   22.85
  -1   1  13  906.25   25.66
   1  -1  13  858.33   22.49
   1  -1  15  960.57   26.14
   1  -1  29  572.61   47.01
   1   1  29  582.90   47.08
  -1   1  29  582.45   48.55
  -1  -1  29  510.52   45.98
   1   1  31  565.82   47.17
  -1  -1  31  480.79   45.75
  -1   1  31  512.36   46.46
   1  -1  31  548.20   47.19
  -1   1  33   94.36   20.73
   1   1  33   86.84   19.63
  -1  -1  33  112.87   22.22
   1  -1  33   80.04   19.02
   1   1  35   15.80    8.52
  -1  -1  35    8.74    8.00
   1  -1  35    9.97    9.22
  -1   1  35   -1.93    7.25
   1   1  37   24.78   10.81
  -1  -1  37   34.78   13.19
  -1   1  37   12.96    9.33
   1  -1  37   30.29   11.51
   1   1  39   51.05   12.99
  -1  -3 -29  539.62   31.91
   1   3 -29  564.32   33.33
  -1   3 -29  565.49   33.03
   1  -3 -29  561.98   33.22
   1   3 -27  218.50   20.15
  -1  -3 -27  242.20   21.07
   1  -3 -27  229.37   20.87
  -1   3 -27  247.08   21.34
  -1   3 -25   56.52   10.92
  -1  -3 -25   66.02   11.58
   1   3 -25   54.67   10.42
   1  -3 -25   60.80   10.90
   1  -3 -23   -2.83    5.86
   1   3 -23   -4.16    5.21
  -1   3 -23   -2.61    5.30
  -1  -3 -23   -3.66    4.94
   1   3 -21    6.58    5.20
  -1  -3 -21    1.66    3.72
  -1   3 -21   -2.13    4.21
   1  -3 -21   -3.36    5.46
  -1  -3 -19   69.10    9.44
   1   3 -19   68.65    9.21
  -1   3 -19   63.25    8.67
  -1   3 -17   86.47    9.04
   1   3 -17   86.27   10.22
  -1   3 -15  103.41    9.40
   1   3 -15  103.53    9.65
  -1   3 -13  371.01   16.15
   1   3 -13  393.21   16.89
  -1   3 -11  210.29   11.05
  -1  -3 -11  227.45   11.86
   1   3 -11  220.34   11.44
   1  -3 -11  204.86    4.91
  -1   3  -9   62.34    5.99
  -1  -3  -9   54.97    5.80
  -1  -3  -7  526.06   14.94
  -1  -3  -5   41.81    4.41
  -1  -3  -3  829.07   15.19
   1  -3  -1 2002.72   19.45
  -1   3   1 2048.45   20.37
   1  -3   1 2101.85   16.62
   1   3   3  752.08   14.36
  -1   3   3  755.91   14.18
   1   3   5   41.64    4.49
  -1   3   5   39.40    4.50
  -1   3   7  449.98   14.45
  -1   3   9   47.83    5.70
   1  -3  11  197.60    4.44
  -1   3  11  202.32   11.58
   1  -3  11  189.19    9.44
   1  -3  13  349.43   13.85
   1   3  13  336.86   11.36
   1  -3  15   78.98    7.53
   1  -3  27  173.41   25.94
   1   3  27  237.09   30.31
  -1  -3  27  167.02   25.92
   1   3  29  487.14   42.83
  -1   3  29  514.59   44.86
  -1  -3  29  381.76   40.49
   1  -3  29  447.18   41.73
   1  -3  31   63.34   16.41
  -1   3  31   74.31   18.26
   1   3  31   64.98   17.87
  -1  -3  31   56.52   15.89
   1  -3  33  -13.95   11.63
  -1   3  33    5.52    8.45
   1   3  33    2.43    8.72
  -1  -3  33    4.97    9.70
   1   3  35    2.09    8.48
  -1   3  35   -2.38   10.17
  -1  -3  35   -5.22    8.34
   1  -3  35    6.47    8.77
  -1   3  37    3.64    7.88
   1   3  37   -8.71    9.27
  -1   3  39   12.54    7.15
   1   3  39   22.15    8.98
   1   5 -29  130.65   17.77
   1  -5 -29  128.77   16.25
  -1   5 -29  121.04   16.18
  -1  -5 -29  132.44   16.26
   1  -5 -27  128.82   15.99
   1   5 -27  172.61   18.90
  -1  -5 -27  165.14   17.97
  -1   5 -27  166.56   18.98
   1  -5 -25   31.46    8.12
  -1  -5 -25   47.12    9.64
   1   5 -25   26.96    7.61
  -1   5 -25   33.90    8.40
  -1   5 -23  169.39   16.00
   1   5 -23  160.57   15.97
  -1  -5 -23  153.80   15.36
   1  -5 -23  166.98   16.04
  -1   5 -21  355.75   21.89
   1   5 -21  335.59   21.59
  -1  -5 -21  322.64   20.88
   1   5 -19  237.57   17.01
  -1   5 -19  241.99   17.08
  -1   5 -17  188.11   13.82
   1   5 -17  179.04   13.73
  -1   5 -15    2.03    3.98
   1   5 -15    8.66    5.09
  -1  -5 -13    3.50    3.69
  -1   5 -13    4.15    3.91
   1   5 -13    5.78    3.31
  -1  -5 -11   89.60    8.87
  -1   5 -11   92.97    7.73
   1   5 -11  102.59    8.35
   1  -5  -9  155.81   10.11
  -1  -5  -9  158.15    9.96
  -1  -5  -7 1071.96   23.68
   1  -5  -3   67.04    5.59
  -1   5   1   35.83    3.94
   1  -5   1   43.04    3.61
   1   5   3   56.35    5.35
  -1   5   3   61.98    5.69
   1   5   5  164.54    9.25
   1   5   7  975.15   22.75
   1   5   9  121.96    9.14
  -1   5   9  135.14    9.63
   1   5   9  130.85    7.51
  -1   5  11   76.59    7.86
   1   5  11   82.83    8.75
   1   5  11   94.34    6.49
   1   5  13    6.78    2.92
  -1  -5  27   90.76   19.84
  -1   5  27  210.63   29.42
   1   5  27  175.00   27.92
   1  -5  27  137.13   24.10
   1  -5  29   75.93   19.36
  -1  -5  29   62.76   18.65
   1   5  29  130.41   24.17
  -1   5  29  148.33   25.17
   1  -5  31    8.44    8.75
  -1   5  31   15.07   11.82
  -1  -5  31   -0.13   10.99
   1   5  31   29.48   13.79
   1   5  33   52.86   15.88
   1  -5  33   41.77   14.80
  -1  -5  33   50.32   16.36
  -1   5  33   56.90   15.83
  -1   5  35   62.80   15.26
   1   5  35   56.57   15.71
  -1   5  37   33.06   10.76
   1   5  37   10.51    7.34
   1   5  39    6.83    8.22
  -1   5  39  -20.02   10.11
  -1   7 -29   24.78   11.06
   1   7 -29   21.45    9.12
   1  -7 -29    5.74    4.81
   1  -7 -27    9.31    4.93
  -1   7 -27   22.07    8.06
   1   7 -27   29.86   10.11
  -1  -7 -27    7.76    5.12
  -1  -7 -25   37.86    8.40
   1  -7 -25   33.65    8.17
   1   7 -25   35.68    8.96
  -1   7 -25   39.62    9.54
   1   7 -23  430.20   26.23
  -1   7 -23  474.53   27.50
  -1  -7 -23  462.90   26.38
  -1   7 -21  778.31   33.18
   1   7 -21  772.87   33.27
  -1   7 -19 1138.02   37.31
   1   7 -19 1106.45   37.98
   1   7 -17  413.20   21.50
  -1   7 -17  394.40   21.02
  -1   7 -15  -22.06    5.73
   1   7 -15   -6.40    6.23
   1   7 -13   32.61    5.64
  -1   7 -13   40.77    6.73
  -1  -7 -11  331.99   17.13
  -1   7 -11  298.57   14.56
   1   7 -11  293.26   14.35
   1  -7  -9  852.56   26.18
   1   7  -9 1019.03   24.84
  -1  -7  -9  833.88   25.27
  -1   7  -9 1024.66   24.44
  -1  -7  -7 1642.42   32.61
   1   7  -7 1756.08   29.48
   1   7  -5  132.50    8.10
   1  -7  -1  747.67   18.17
   1  -7   1  688.36   15.87
  -1   7   3   71.19    6.78
  -1   7   5  126.70    9.72
   1   7   5  125.40    9.21
  -1   7   7 1529.43   32.64
   1   7   7 1528.75   31.69
   1   7   9  735.17   23.38
  -1   7   9  723.64   24.26
  -1  -7  27   26.42   12.63
   1  -7  27   -5.19    9.17
  -1   7  27   25.51   12.38
   1   7  27   17.51   11.75
   1  -7  29   26.55   14.52
  -1   7  29   18.97   10.96
   1   7  29   17.30   11.98
  -1  -7  29   -3.35    8.38
   1   7  31  104.20   20.84
   1  -7  31   80.34   20.87
  -1   7  31  120.21   23.16
  -1  -7  31   81.27   19.51
  -1   7  33  142.44   23.98
   1   7  33  150.87   24.36
   1   7  35  115.47   21.96
  -1   7  35  140.09   22.85
   1   7  37   88.88   17.23
  -1   7  37   68.85   15.62
   1   7  39   15.04    7.81
  -1   7  39    0.92    5.59
   1   7  41  -14.92    7.66
   1   9 -29  109.50   16.11
  -1   9 -29  105.95   15.43
   1  -9 -29  100.11   14.13
   1   9 -27   34.19    9.34
   1  -9 -27   17.61    5.93
  -1   9 -27   31.43    8.36
  -1   9 -25   46.63    9.62
   1   9 -25   38.27    9.42
  -1  -9 -25   48.63    9.50
   1   9 -23  531.52   29.46
  -1   9 -23  536.55   30.06
   1   9 -21 1141.53   41.87
  -1   9 -21 1172.34   42.23
   1   9 -19 1151.30   39.23
  -1   9 -19 1200.41   39.48
  -1   9 -17  183.47   14.95
   1   9 -17  188.76   15.31
  -1   9 -15   10.74    5.75
   1   9 -15   13.37    5.64
  -1   9 -13  226.14   14.91
   1   9 -13  219.97   14.11
  -1   9 -11 1083.14   31.71
   1   9 -11 1112.56   29.16
  -1  -9  -9 1825.31   39.88
  -1   9  -9 1761.39   34.76
   1   9  -9 1798.66   34.87
  -1  -9  -7 2018.88   39.33
  -1   9  -7 1960.31   34.07
   1   9  -7 1992.84   34.25
   1  -9  -7 2011.82   39.16
   1  -9  -5  387.89   16.21
  -1   9  -5  420.57   14.98
   1   9  -5  394.50   14.19
   1   9  -3 2049.17   30.81
   1   9  -1  273.38   10.97
   1  -9  -1  286.38   12.92
   1   9   1  261.39   10.56
   1  -9   1  261.10   11.39
  -1   9   3 1932.53   35.76
   1  -9   3 1885.46   30.11
  -1   9   3 2004.48   30.70
   1   9   3 1936.74   28.23
  -1   9   5  390.45   16.81
   1   9   5  358.29   12.67
  -1   9   5  380.37   14.14
   1   9   7 1885.68   38.74
  -1   9   7 1910.09   38.19
   1   9  27   28.33   13.25
  -1   9  27   45.01   14.42
   1  -9  27   16.67    8.83
   1   9  29   96.68   20.66
  -1   9  29  100.54   20.86
  -1   9  31   48.51   15.59
   1   9  31   49.69   15.22
  -1   9  33  155.65   24.30
   1   9  33  159.25   25.04
  -1   9  35  163.21   24.39
   1   9  35  181.63   25.15
   1   9  37  105.11   18.02
  -1   9  37   98.62   17.64
   1   9  39   36.34    9.73
  -1   9  39   47.39   11.30
   1  11 -27  123.73   16.49
   1 -11 -27  111.61   14.64
  -1  11 -27  115.93   15.63
  -1  11 -25   49.95    9.53
   1  11 -25   47.98   10.48
   1  11 -23  280.33   22.68
  -1  11 -23  287.26   22.82
  -1  11 -21 1184.59   43.63
   1  11 -21 1102.27   43.14
  -1  11 -19  664.60   31.08
   1  11 -19  594.90   29.58
  -1  11 -17  211.46   16.97
   1  11 -17  213.25   17.12
   1  11 -15    7.75    5.73
  -1  11 -15   19.29    6.62
  -1  11 -13   40.15    8.72
   1  11 -13   25.13    7.96
  -1  11 -11 1590.20   37.95
   1  11 -11 1604.56   38.73
  -1  11  -9 2318.09   42.09
   1  11  -9 2319.81   42.07
   1  11  -7 1318.67   30.16
  -1  11  -7 1330.24   30.84
  -1  11  -5  805.11   22.64
   1  11  -5  796.34   22.26
   1 -11  -5  765.72   24.75
  -1 -11  -3  451.82   19.06
   1  11  -3  474.52   16.38
  -1  11  -3  464.23   16.71
   1 -11  -1   75.55    7.42
   1  11  -1   72.33    6.67
  -1 -11  -1   75.15    7.94
  -1  11  -1   71.12    6.84
   1 -11   1   78.49    7.21
  -1  11   1   67.90    6.63
   1  11   1   79.70    6.63
  -1 -11   1   72.93    7.51
   1 -11   3  431.50   16.24
  -1  11   3  449.54   16.08
   1  11   3  456.54   15.29
  -1  11   5  772.66   21.55
   1  11   5  767.62   20.16
   1  11  25   52.10   14.83
  -1  11  25   55.77   14.78
  -1  11  27  124.16   21.78
   1  11  27  111.59   22.24
  -1  11  29   17.92    8.98
   1  11  29   20.59   10.61
  -1  11  31    4.73    9.58
   1  11  31   14.62    8.21
   1  11  33   94.54   19.29
  -1  11  33   85.19   18.19
   1  11  35  110.91   19.09
  -1  11  35  105.11   19.10
  -1  11  37   91.10   16.14
   1  11  37  110.08   18.91
  -1  11  39   47.31   10.96
   1  11  39   42.63   11.11
  -1  13 -27   -7.21    6.08
   1  13 -27   -1.39    4.93
   1  13 -25    9.38    4.81
  -1  13 -25   -1.75    5.32
  -1  13 -23   39.01    9.08
   1  13 -23   46.52   10.62
   1  13 -21  271.06   22.07
  -1  13 -21  260.94   22.53
   1  13 -19  221.34   19.40
  -1  13 -19  193.07   19.23
   1  13 -17   28.05   10.37
  -1  13 -17   41.57    9.39
   1  13 -15   74.34   13.57
  -1  13 -15   91.41   14.36
  -1  13 -13  156.18   13.63
   1  13 -13  156.84   13.72
   1  13 -11  182.22   13.95
  -1  13 -11  193.06   14.77
  -1  13  -9 1390.66   35.36
   1  13  -9 1436.89   36.23
   1  13  -7 1053.95   29.08
  -1  13  -7 1044.85   29.33
   1  13  -5   98.05    9.03
  -1  13  -5  100.59    8.92
  -1  13  -3   -4.33    3.81
   1  13  -3   -0.42    3.11
   1  13  -1  130.69    9.40
  -1  13  -1  126.01    9.81
  -1  13   1  142.68    9.94
   1  13   1  139.52    9.42
   1 -13   1  145.62   10.57
  -1  13   3    1.94    4.01
   1 -13   3    1.61    3.09
   1  13   3    0.49    2.80
   1 -13   5   91.88    8.63
   1  13   5  106.77    8.50
  -1  13   5  105.37    9.13
   1 -13   7  905.11   26.94
   1  13  25    0.38    9.47
  -1  13  25   13.88    9.94
  -1  13  27  -10.60   10.50
   1  13  27  -13.47   11.58
   1  13  29   -4.85    9.64
  -1  13  29   -9.93   11.99
  -1  13  31    5.11    6.64
   1  13  31    1.68    9.78
   1  13  33    0.30    7.70
  -1  13  33    3.49    6.55
   1  13  35   48.57   13.57
  -1  13  35   25.78    9.70
  -1  13  37   47.66   11.81
   1  13  37   34.81   11.12
   1  13  39    7.06    6.55
  -1  13  39    3.45    5.53
   1  15 -25   61.02   11.50
  -1  15 -25   67.80   12.36
   1  15 -23   24.48    8.24
  -1  15 -23   26.22    8.98
  -1  15 -21    3.47    7.16
   1  15 -21   -4.99    5.00
   1  15 -19   -3.18    5.41
  -1  15 -19   15.87    7.45
   1  15 -17  129.23   17.30
  -1  15 -17  132.91   18.02
  -1  15 -15  508.52   26.98
   1  15 -15  455.15   26.81
  -1  15 -13  560.37   26.73
   1  15 -13  551.50   26.69
   1  15 -11  168.85   14.04
  -1  15 -11  163.89   14.27
  -1  15  -9    5.15    5.67
   1  15  -9    2.31    5.62
  -1  15  -7   39.53    6.66
   1  15  -7   36.86    6.73
  -1  15  -5  115.36   10.32
   1  15  -5  120.72   10.16
  -1  15  -3  564.65   21.81
   1  15  -3  553.71   20.89
   1  15  -1 1017.50   27.29
  -1  15  -1 1032.78   28.75
  -1  15   1 1050.95   28.52
   1  15   1 1059.04   27.36
  -1  15   3  582.24   21.68
   1  15   3  565.46   20.50
  -1  15   5  118.52   10.03
   1  15   5  113.73    9.32
   1  15  23   30.43   12.54
  -1  15  23   42.78   15.75
  -1  15  25   49.53   13.79
   1  15  25   62.73   17.14
  -1  15  27  172.59   26.67
   1  15  27  198.01   27.48
  -1  15  29  141.51   23.15
   1  15  29  145.15   24.14
  -1  15  31   46.37   14.90
   1  15  31   28.27   12.65
  -1  15  33   23.69    9.63
   1  15  33   25.33   11.01
   1  15  35   -1.54    6.46
  -1  15  35   12.93    7.64
  -1  15  37    1.75    5.21
   1  15  37   -2.43    5.06
  -1  17 -25  243.55   23.12
   1  17 -25  248.13   23.26
  -1  17 -23   68.70   12.77
   1  17 -23   82.85   14.17
  -1  17 -21   72.13   12.64
   1  17 -21   71.88   12.18
  -1  17 -19   44.24   10.24
   1  17 -19   44.73   10.79
   1  17 -17  186.34   18.13
  -1  17 -17  186.42   18.33
   1  17 -15  639.56   31.48
  -1  17 -15  620.57   31.09
  -1  17 -13  458.91   26.17
   1  17 -13  464.47   25.82
  -1  17 -11  592.79   27.97
   1  17 -11  571.55   27.15
  -1  17  -9  323.52   19.66
   1  17  -9  291.56   19.70
  -1  17  -7   30.13    6.60
   1  17  -7   36.04    7.11
  -1  17  -5  358.62   19.59
   1  17  -5  381.46   18.79
  -1  17  -3  863.60   28.89
   1  17  -3  843.38   27.92
  -1  17  -1 1017.95   30.77
   1  17  -1 1023.88   29.68
  -1  17   1 1080.62   31.35
   1  17   1 1051.79   29.82
  -1  17   3  870.20   29.06
   1  17   3  869.76   27.70
   1  17   5  352.07   17.88
  -1  17   5  368.04   18.83
  -1  17  21   84.75   19.06
   1  17  21   75.17   17.70
   1  17  23   77.35   17.43
  -1  17  23   89.34   19.37
   1  17  25  229.57   29.85
  -1  17  25  222.51   29.98
   1  17  27  368.20   38.42
  -1  17  27  362.49   36.06
  -1  17  29  263.12   29.48
   1  17  29  249.10   31.00
   1  17  31  104.59   19.07
  -1  17  31  133.97   20.98
   1  17  33   17.30    9.72
  -1  17  33   32.20   11.92
   1  17  35    2.72    5.11
  -1  17  35   12.19    6.24
  -1  17  37    1.20    4.37
   1  17  37    3.34    4.86
  -1  19 -23   17.02    8.36
   1  19 -23   38.22    9.97
  -1  19 -21    4.95    4.82
   1  19 -21    2.47    5.15
  -1  19 -19   31.29    8.71
   1  19 -19   37.75   10.38
  -1  19 -17   77.88   12.61
   1  19 -17   94.55   13.57
   1  19 -15  300.64   22.73
  -1  19 -15  323.41   23.56
   1  19 -13  335.47   23.69
  -1  19 -13  320.33   23.02
   1  19 -11  234.36   18.82
  -1  19 -11  240.51   19.81
   1  19  -9  241.05   18.00
  -1  19  -9  257.44   18.64
   1  19  -7   49.39    8.68
  -1  19  -7   64.78    9.81
   1  19  -5  230.69   15.78
  -1  19  -5  209.00   15.94
  -1  19  -3  352.76   19.48
   1  19  -3  317.53   18.62
  -1  19  -1  711.81   27.22
   1  19  -1  674.64   26.10
   1  19   1  692.14   26.26
  -1  19   1  724.45   27.69
   1  19   3  340.56   18.56
  -1  19   3  358.45   19.60
   1  19   5  213.17   14.99
  -1  19   5  217.46   15.71
   1  19  19   34.38   12.59
  -1  19  19   32.31   11.33
  -1  19  21    3.91    7.44
   1  19  21    9.96    9.66
   1  19  23   20.60   10.45
  -1  19  23   56.23   16.04
  -1  19  25  140.82   22.40
   1  19  25  153.87   25.58
  -1  19  27  254.52   30.31
   1  19  27  251.20   30.45
   1  19  29  206.63   26.87
  -1  19  29  207.52   25.73
  -1  19  31   99.94   17.87
   1  19  31   85.97   17.47
  -1  19  33   16.42    7.64
   1  19  33   12.77    7.83
   1  19  35   -4.68    5.18
  -1  19  35    5.14    5.54
  -1  21 -21   13.23    9.05
   1  21 -21   14.28    6.94
   1  21 -19    1.13    5.06
  -1  21 -19   -5.39    6.61
  -1  21 -17   44.50   10.04
   1  21 -17   46.18   10.48
  -1  21 -15   85.25   12.89
   1  21 -15   90.34   13.32
   1  21 -13  113.31   14.46
  -1  21 -13  101.46   13.47
  -1  21 -11   41.01    9.45
   1  21 -11   40.05    9.41
  -1  21  -9   17.63    7.33
   1  21  -9   11.87    6.32
   1  21  -7   17.81    6.60
  -1  21  -7   12.49    6.33
  -1  21  -5   -1.10    4.10
   1  21  -5    8.03    4.50
  -1  21  -3   30.86    6.15
   1  21  -3   32.75    6.48
  -1  21  -1  357.87   20.71
   1  21  -1  356.42   20.10
  -1  21   1  375.47   21.31
   1  21   1  362.28   20.36
  -1  21   3   34.60    7.09
   1  21   3   27.70    6.30
  -1  21   5   -1.31    4.73
  -1  21  17   45.70   15.24
   1  21  17   44.45   14.13
  -1  21  19  -13.17   10.75
   1  21  19    6.54    8.75
   1  21  21   19.21    9.94
  -1  21  21   13.49    9.65
  -1  21  23    0.98    7.73
   1  21  23   -2.34    9.05
   1  21  25   35.20   12.62
  -1  21  25   38.94   14.14
   1  21  27   99.96   19.80
  -1  21  27   87.14   16.91
   1  21  29   96.81   17.83
  -1  21  29   87.69   17.02
   1  21  31   21.92    9.60
  -1  21  31   52.21   12.55
   1  21  33    8.85    5.59
  -1  21  33   -3.89    4.38
   1  21  35   -0.66    4.46
  -1  23 -17   10.82    6.71
   1  23 -17    1.48    5.31
   1  23 -15   -5.12    7.81
  -1  23 -15   13.00    6.96
   1  23 -13   -3.34    6.44
  -1  23 -13    4.54    4.66
   1  23 -11   -1.79    5.17
  -1  23 -11    4.69    4.76
   1  23  -9   28.19    8.16
  -1  23  -9   37.47    8.26
  -1  23  -7   75.25   11.03
   1  23  -7   46.31    9.08
   1  23  -5   49.78    8.94
  -1  23  -5   60.57   10.16
  -1  23  -3    8.56    4.69
   1  23  -3    9.62    5.98
  -1  23  -1  141.07   15.41
   1  23  -1  141.89   13.98
  -1  23   1  154.61   15.26
   1  23   1  149.43   14.12
  -1  23   3    0.35    5.35
   1  23   3    3.28    5.03
   1  23  13    6.70    8.56
  -1  23  13    1.76    7.13
  -1  23  15    4.74    7.36
   1  23  15   15.13    9.71
   1  23  17   -5.39    9.55
  -1  23  17    9.32    7.63
   1  23  19    8.35    8.95
  -1  23  19   15.05   11.63
   1  23  21   76.85   17.81
  -1  23  21   94.62   19.05
  -1  23  23   31.59   11.63
   1  23  23   23.64   11.52
  -1  23  25  -11.72    9.44
   1  23  25  -14.14   11.12
  -1  23  27   11.66    6.28
   1  23  27    3.22    7.91
   1  23  29    9.52    7.38
  -1  23  29   19.39    7.14
  -1  23  31    3.00    5.57
   1  23  31   -5.43    6.15
  -1  23  33    5.65    4.36
   1  23  33   -2.86    4.04
  -1  25 -15    6.02    6.34
   1  25 -15    3.58    4.72
  -1  25 -13    6.13    4.48
   1  25 -13    5.85    5.53
   1  25 -11   21.85   14.73
   1  25 -11   19.49    5.99
  -1  25 -11   17.70    7.41
   1  25  -9   44.11   19.45
  -1  25  -9   69.58   11.71
   1  25  -9   68.08   10.71
   1  25  -7  254.26   39.73
  -1  25  -7  303.02   22.43
   1  25  -7  289.57   21.48
   1  25  -5  184.69   16.57
  -1  25  -5  174.38   17.13
   1  25  -5  137.48   29.66
   1  25  -3   36.39   18.40
  -1  25  -3   55.83    9.80
   1  25  -3   51.49    9.97
  -1  25  -1   90.98   12.82
   1  25  -1  105.79   13.06
   1  25   1   63.04   10.49
  -1  25   1   85.34   15.73
  -1  25   3   46.68   11.41
   1  25   5  223.64   23.99
  -1  25   7  356.96   29.53
   1  25   7  349.85   29.60
   1  25   9   94.04   15.65
  -1  25   9   78.92   15.19
   1  25  11   31.04   10.49
  -1  25  11   28.44   11.25
   1  25  13  -11.14    9.86
  -1  25  13    7.39    7.87
   1  25  13   10.57   10.77
  -1  25  15    4.40    6.94
   1  25  15    1.83    8.47
   1  25  17    5.92    8.07
  -1  25  17    4.42    6.80
  -1  25  19   36.82   13.13
   1  25  19   42.07   13.79
   1  25  21  140.33   23.11
  -1  25  21  158.45   23.08
   1  25  23   86.65   17.87
  -1  25  23   98.64   18.32
  -1  25  25   31.82   10.92
   1  25  25   20.69    8.25
   1  25  27   -6.74    7.89
  -1  25  27   -4.11    6.49
  -1  25  29   -1.44    5.15
   1  25  29   -4.83    6.48
  -1  25  31   -4.64    5.10
   1  25  31    7.22    5.37
   1  27 -11   27.37    7.78
  -1  27  -9  183.11   18.12
   1  27  -9  154.74   16.45
  -1  27  -7  355.68   24.61
   1  27  -7  312.56   22.95
   1  27  -5  204.12   17.98
  -1  27  -5  225.88   19.74
   1  27  -5  169.93   34.38
  -1  27  -3   79.69   11.75
  -1  27  -1   48.86    9.72
  -1  27   1   70.72   11.90
   1  27   3  133.31   20.65
   1  27   5  238.87   25.61
  -1  27   5  255.73   25.77
   1  27   7  389.16   32.01
  -1  27   7  375.22   30.94
   1  27   9  186.85   22.76
  -1  27   9  166.88   21.16
   1  27  11   42.87   10.57
   1  27  11   51.34   15.65
  -1  27  11   47.60   15.07
   1  27  13   47.93   11.33
  -1  27  13   51.62   14.46
   1  27  13   49.20   15.43
  -1  27  15   10.43    7.77
   1  27  15   10.73    9.58
   1  27  17   66.16   15.71
  -1  27  17   64.35   16.15
  -1  27  19   78.24   17.24
   1  27  19  116.84   20.65
   1  27  21  103.27   18.68
  -1  27  21   88.39   17.19
  -1  27  23  159.00   21.08
   1  27  23  144.95   20.79
  -1  27  25   38.22   10.39
   1  27  25   46.43   11.92
   1  27  27    1.84    4.74
  -1  27  27   -3.01    5.07
   1  27  29   -4.79    4.15
   1  29   1   30.05   12.43
  -1  29   3   28.70   10.15
   1  29   3   45.32   12.19
  -1  29   5  114.33   17.69
   1  29   5  129.85   18.84
  -1  29   7  221.46   23.65
   1  29   7  193.72   22.85
  -1  29   9   85.98   15.08
   1  29   9   86.38   15.40
  -1  29   9  112.42   19.94
   1  29  11   23.82    8.52
   1  29  11   24.60   10.83
  -1  29  11   17.22    9.35
   1  29  13   16.26    7.63
  -1  29  13   -9.39    9.42
   1  29  13   -4.43    7.64
   1  29  15    7.19    7.24
  -1  29  15   -3.77    6.26
  -1  29  17   46.62   12.25
   1  29  17   21.62   10.51
  -1  29  19   63.37   14.50
   1  29  19   54.68   14.32
  -1  29  21   56.79   12.87
   1  29  21   62.07   14.86
   1  29  23   44.97   11.00
  -1  29  23   33.09    9.32
   1  29  25   15.55    7.22
  -1  29  25   18.40    7.16
   1  29  27    0.51    4.06
   1  31  -3  -14.50    9.36
   1  31  -1    9.52    6.95
   1  31   1   17.57    8.84
  -1  31   1   10.86    6.79
  -1  31   3    0.77    5.49
   1  31   3    3.62    5.91
  -1  31   5   35.20   11.65
   1  31   5   22.42    9.46
   1  31   7   15.12    9.36
  -1  31   7   38.68   11.48
  -1  31   7   35.77   12.23
   1  31   9   15.48    8.30
  -1  31   9   -0.30    5.22
  -1  31   9   10.78    7.99
   1  31   9    7.76    8.07
   1  31  11   -2.41    5.20
  -1  31  11   13.54    8.58
   1  31  11   -5.47    8.15
   1  31  13   -1.99    7.92
  -1  31  13   -5.83    7.42
  -1  31  15    8.87    8.00
   1  31  15   -3.91    6.54
   1  31  17   -4.68    7.90
  -1  31  17   -2.58    6.56
  -1  31  19   10.58    6.77
   1  31  19    8.60    6.68
   1  31  21   23.87    8.39
   1  31  23    0.35    4.69
  -1  33 -21   -3.11    3.53
   1  33 -19   -6.65    4.51
   1  33 -17   10.02    5.46
   1  33 -15   43.74   10.18
   1  33  -9   -0.26    5.40
   1  33  -7   12.33    7.66
   1  33  -5   -2.96    5.36
   1  33  -3   24.21    8.51
  -1  33  -3   24.49    9.45
  -1  33  -1   53.29   12.07
   1  33  -1   43.71   10.98
  -1  33   1   49.38   12.21
   1  33   1   36.98   11.15
   1  33   3   13.01    6.28
  -1  33   3   12.61    7.02
  -1  33   5    2.02    5.20
   1  33   5    7.66    5.98
  -1  33   5   -0.94    6.68
   1  33   7   19.91    8.71
  -1  33   7   21.71    8.06
  -1  33   7   -8.98    8.13
   1  33   7   -2.72    6.38
   1  33   9    0.21    4.99
  -1  33   9    2.90    5.77
  -1  33   9   -6.17    6.77
   1  33   9    2.35    7.30
  -1  33  11   -2.16    5.55
   1  33  11    6.30    7.76
   1  33  13   28.19   10.09
  -1  33  13   24.55    8.55
   1  33  15   24.41    7.69
   1  33  17    7.68    5.24
   1  33  19    1.33    4.84
   1  33  21   -4.03    5.22
  -1  35 -17   13.82    5.72
   1  35 -17   19.24    5.94
  -1  35 -15   50.39    9.56
   1  35 -15   54.79    9.64
   1  35 -13   30.53    8.35
  -1  35 -13   41.68    9.49
   1  35 -11   11.68    6.44
  -1  35 -11    9.95    6.14
   1  35  -9    1.79    5.74
  -1  35  -9    4.69    5.47
  -1  35  -7    2.95    5.62
   1  35  -7    3.24    5.32
   1  35  -5   23.96    8.51
  -1  35  -5   17.05    7.29
  -1  35  -3   16.55    7.78
   1  35  -3   25.01    8.92
  -1  35  -1   31.67    9.64
   1  35  -1   52.34   11.54
   1  35   1   33.80    9.20
  -1  35   1   50.46   11.03
   1  35   3   24.98    8.29
  -1  35   3   31.50    8.81
   1  35   5   21.17    7.60
  -1  35   5   28.11    9.34
   1  35   5   17.90    7.94
   1  35   7    5.95    5.24
  -1  35   7    4.36    4.58
   1  35   7    9.21    7.72
   1  35   9    5.81    6.38
   1  35  11   16.41    7.02
   1  35  13   38.71   10.04
   1  35  15   69.72   11.40
  -1  37 -13   32.02    7.15
  -1  37 -11    4.39    4.36
   1  37 -11    7.90    4.18
  -1  37  -9    1.54    3.69
   1  37  -9   -9.89    5.38
   1  37  -7   -0.90    3.88
  -1  37  -7   -7.21    5.42
  -1  37  -5    7.23    5.10
   1  37  -5    9.30    5.54
   1  37  -3   27.24    8.04
  -1  37  -3   23.20    7.55
   1  37  -1   35.71    9.15
  -1  37  -1   24.86    7.50
  -1  37   1   21.91    6.88
   1  37   1   14.60    6.73
   1  37   1   31.86    9.11
  -1  37   3   15.16    6.35
   1  37   3   26.83    8.16
   1  37   3   24.70    8.61
   1  37   5    0.32    4.18
  -1  37   5   12.88    5.16
   1  37   5   11.46    5.95
   1  37   7   -5.88    5.83
   1  37   9  -11.33    6.13
   2   0 -30  909.96   42.60
  -2   0 -30  951.30   42.79
  -2   0 -28  291.42   23.22
   2   0 -28  271.15   22.85
  -2   0 -26  218.83   19.06
   2   0 -26  204.45   19.28
  -2   0 -24   67.26   10.76
   2   0 -24   58.33   11.22
  -2   0 -22   -1.35    4.41
   2   0 -22    1.45    4.83
  -2   0 -20   20.83    5.34
   2   0 -20   26.38    6.25
   2   0 -18  225.50   15.36
  -2   0 -18  224.43   14.91
  -2   0 -16   74.17    8.06
  -2   0 -14  218.01   12.26
  -2   0 -12  508.62   17.27
  -2   0 -10  514.00   15.44
  -2   0  -6  116.36    4.35
  -2   0  -6  128.94    5.74
  -2   0  -4   48.69    2.89
  -2   0  -4   52.79    3.49
  -2   0  -2 4514.45   27.34
  -2   0   0 2760.77   21.52
  -2   0   2 4742.81   28.37
  -2   0   4   59.79    3.61
   2   0   4   50.97    3.00
  -2   0   6  112.82    4.27
   2   0   8   58.95    4.64
   2   0  10  482.53   13.72
  -2   0  10  460.78   16.74
  -2   0  12  477.40   18.30
   2   0  12  467.58   15.11
   2   0  14  184.61   10.87
   2   0  28  234.68   29.44
  -2   0  28  231.38   30.05
  -2   0  30  764.08   56.13
   2   0  30  718.48   52.70
   2   0  32    4.79    8.83
  -2   0  32   -0.50   11.33
   2   0  34    8.38    9.37
  -2   0  34    8.48   11.12
   2   0  36   -1.65    6.34
  -2   0  36   -7.19    8.67
   2   0  38   32.35   12.02
   2   2 -30  117.05   15.76
   2  -2 -30  114.80   15.73
  -2   2 -30  119.00   15.88
  -2   2 -28  546.00   31.96
  -2  -2 -28  506.26   30.82
   2   2 -28  509.16   31.58
   2  -2 -28  495.05   31.26
   2  -2 -26  114.79   15.33
   2   2 -26  104.54   14.20
  -2   2 -26  123.65   14.82
  -2  -2 -26  125.07   15.02
   2  -2 -24    3.52    5.50
   2   2 -24    1.51    4.25
  -2  -2 -24   -1.62    4.15
  -2   2 -24   -1.15    5.69
   2   2 -22    9.71    5.69
   2  -2 -22    5.41    5.02
  -2   2 -22   16.60    5.78
  -2  -2 -22   19.43    7.01
   2   2 -20    0.65    4.70
  -2   2 -20    1.15    4.35
  -2  -2 -20    3.12    3.77
   2   2 -18   97.60   10.68
  -2  -2 -18   84.79    9.65
  -2   2 -18   92.47    9.59
  -2  -2 -16   21.47    5.17
   2   2 -16   21.83    5.62
  -2   2 -16   14.39    4.14
   2   2 -14  368.44   17.11
  -2   2 -14  381.31   16.53
   2   2 -12  160.54   10.55
  -2   2 -12  145.78    9.72
  -2  -2 -10  113.76    7.63
  -2  -2 -10  104.28    4.26
  -2   2 -10  109.49    7.70
   2  -2  -8  572.16   10.40
  -2  -2  -8  585.33   15.52
  -2  -2  -6  983.07   17.75
   2  -2  -6  942.76   13.41
  -2  -2  -4  654.81   13.59
  -2   2   0 2190.07   16.67
  -2   2   2  569.33   11.26
  -2   2   4  641.10   14.24
   2  -2   4  598.24   10.36
   2  -2   4  603.83    6.25
   2   2   4  604.46   12.39
   2  -2   6  866.90   12.05
   2  -2   6  911.23   12.81
   2   2   6  910.27   17.31
   2   2   8  547.68   15.12
  -2   2   8  533.77   16.80
   2  -2   8  526.58   11.77
   2  -2   8  558.99   10.01
   2  -2  10  108.03    6.27
  -2   2  10  105.14    8.41
  -2  -2  10  106.01    4.17
   2  -2  12  134.62    7.96
  -2   2  12  142.51   10.60
   2   2  12  138.77    7.49
   2  -2  14  323.30   13.67
   2   2  14  303.81   11.71
   2  -2  28  399.43   38.70
  -2  -2  28  409.31   40.90
   2   2  28  480.35   41.45
  -2   2  28  440.72   41.23
   2  -2  30   93.79   19.23
   2   2  30  100.56   20.52
  -2  -2  30   97.76   21.23
  -2   2  30   97.84   20.20
  -2   2  32   62.29   16.22
   2   2  32   59.46   15.63
   2  -2  32   61.53   16.86
  -2  -2  32   59.66   16.80
  -2  -2  34    5.44    8.28
   2  -2  34   25.04   12.97
   2   2  34   15.99    8.28
  -2   2  34   21.86   10.16
   2  -2  36    2.42    7.29
   2   2  36   -6.49    8.02
  -2  -2  36   -9.78    8.26
  -2   2  36   -4.23   10.69
  -2   2  38  -11.49    9.85
   2   2  38    3.96    6.66
   2   4 -30    4.12    7.07
   2  -4 -30    9.97    5.72
  -2   4 -30   18.79    7.27
  -2   4 -28  155.23   17.42
  -2  -4 -28  159.41   17.35
   2   4 -28  166.84   18.81
   2  -4 -28  153.52   17.91
  -2  -4 -26   83.60   12.61
   2   4 -26   72.45   12.57
   2  -4 -26   76.02   12.22
  -2   4 -26   77.64   12.57
   2   4 -24   53.68   10.01
  -2   4 -24   59.78   10.12
  -2  -4 -24   54.34   10.72
   2  -4 -24   64.90   11.04
   2   4 -22  173.96   16.75
  -2  -4 -22  189.83   16.34
  -2   4 -22  169.45   15.14
   2   4 -20   54.75    9.51
  -2   4 -20   56.62    8.86
  -2  -4 -20   55.69    8.67
  -2  -4 -18   29.52    6.08
   2   4 -18   28.98    6.26
  -2   4 -18   29.51    5.84
   2   4 -16   82.98    9.47
  -2   4 -16   77.20    8.58
  -2   4 -14   10.70    4.22
   2   4 -14    5.48    3.96
   2  -4 -12    0.54    1.36
  -2   4 -12    2.91    3.23
   2   4 -12    1.38    3.13
  -2  -4 -12   -0.79    2.75
   2   4 -10   48.14    6.00
  -2   4 -10   44.14    5.49
  -2  -4 -10   48.93    6.02
   2  -4 -10   43.90    3.45
  -2   4  -8   66.34    5.94
   2   4  -8   65.68    6.21
  -2  -4  -8   62.27    6.33
  -2  -4  -6  183.59    9.46
  -2  -4  -4   12.43    3.74
  -2  -4  -2    7.29    3.16
   2  -4  -2   23.00    4.05
  -2   4   0  853.45   13.41
   2  -4   0  860.20   13.01
   2  -4   2   49.56    3.88
  -2   4   2   17.92    3.82
  -2   4   4   10.21    3.08
   2   4   6  166.65    8.98
  -2   4   6  176.55    9.24
  -2   4   8   56.29    6.57
   2   4   8   69.60    6.49
   2   4   8   56.62    5.33
   2   4  10   31.27    5.30
   2  -4  10   45.90    4.13
  -2   4  10   38.38    5.50
   2  -4  10   39.70    3.20
   2   4  10   45.34    5.02
   2   4  12   -0.22    2.56
   2  -4  12   -1.31    1.39
   2  -4  12    1.99    2.37
   2   4  12    2.50    2.68
   2  -4  14   14.16    3.44
   2   4  14   12.06    3.09
  -2   4  28  146.21   24.78
  -2  -4  28  121.11   23.02
   2  -4  28  126.36   21.89
   2   4  28  166.88   25.54
   2  -4  30    9.57    8.35
  -2  -4  30    7.60    8.34
  -2   4  30   17.60   10.76
   2   4  30   25.65   12.88
  -2  -4  32   -1.35    8.19
   2  -4  32  -10.84    9.29
  -2   4  32    4.96    8.22
   2   4  32    0.94    7.54
  -2  -4  34   10.13   10.92
   2  -4  34   -3.05    9.64
   2   4  34   30.05   12.88
  -2   4  34    3.52    7.43
   2   4  36   28.31   11.37
  -2   4  36   25.71   11.10
   2   4  38  -13.92    9.41
  -2   4  38   -9.48    8.85
   2   4  40   11.52    7.72
  -2   6 -30   19.55    7.28
   2  -6 -30    8.15    5.31
  -2   6 -28   12.17    7.18
   2  -6 -28    8.04    4.77
   2   6 -28   15.99    7.28
  -2  -6 -26    3.58    5.04
   2  -6 -26    2.55    6.55
  -2   6 -26   -2.98    4.41
   2   6 -26   -3.88    5.65
   2   6 -24   14.13    5.35
  -2   6 -24   14.32    6.30
  -2  -6 -24   31.26    8.15
  -2   6 -22  465.79   26.32
   2   6 -22  416.05   25.19
  -2  -6 -22  465.28   25.19
  -2   6 -20  245.70   18.05
   2   6 -20  228.63   17.99
  -2   6 -18  243.48   16.77
   2   6 -18  242.19   16.98
  -2   6 -16  276.06   16.47
   2   6 -16  282.43   16.84
   2   6 -14    8.91    4.59
  -2   6 -14   -1.44    3.75
  -2  -6 -12   39.04    6.48
   2   6 -12   43.22    6.46
  -2   6 -12   41.50    5.89
  -2   6 -10  120.00    8.73
   2  -6 -10  148.16   10.81
   2   6 -10  134.14    9.53
  -2  -6 -10  125.36   10.72
  -2  -6  -8  330.67   14.93
   2   6  -8  358.48   14.56
   2  -6  -8  361.69   15.78
  -2   6  -8  391.43   15.31
   2   6  -6 1935.59   28.72
   2  -6  -4   20.15    4.18
   2  -6  -2  118.06    7.34
  -2   6   0   24.05    3.16
  -2   6   2  105.23    7.30
   2  -6   2  106.55    5.59
   2   6   6 1683.34   31.47
   2   6   6 1652.38   27.09
   2   6   8  338.24   14.88
  -2   6   8  311.42   14.73
   2   6   8  323.27   12.99
   2   6  10  120.23    9.09
  -2   6  10  125.32   10.40
   2   6  10  115.30    7.82
   2   6  12   41.38    5.19
   2   6  14    6.96    3.70
   2  -6  28    7.71   11.81
   2   6  28   16.19    8.57
  -2   6  28   13.63   10.08
  -2  -6  28   -6.09   10.30
  -2   6  30   22.07   12.02
   2  -6  30   10.65    9.90
   2   6  30   22.72   11.31
  -2  -6  30   11.43   10.02
   2   6  32   16.11    9.02
  -2   6  32   32.10   13.18
   2  -6  32   31.84   12.29
  -2   6  34   29.65   12.21
   2   6  34   33.44   13.21
  -2   6  36   40.06   11.91
   2   6  36   37.72   13.46
   2   6  38   -5.35    7.57
  -2   6  38    5.40    6.27
   2   6  40   -8.82    7.18
  -2   6  40  -12.86    7.69
  -2   8 -28    3.65    5.35
   2   8 -28   10.42    7.56
   2  -8 -26    0.41    8.17
  -2   8 -26    4.80    5.72
   2   8 -26    5.88    6.94
  -2   8 -24   76.03   12.24
   2   8 -24   64.08   10.88
  -2  -8 -24   63.02   10.48
  -2   8 -22  227.18   18.86
   2   8 -22  198.56   17.55
  -2  -8 -22  231.02   18.31
  -2   8 -20  771.32   32.18
   2   8 -20  709.84   31.85
  -2   8 -18    7.21    5.03
   2   8 -18    5.49    4.73
   2   8 -16   63.08    9.01
  -2   8 -16   61.39    8.55
   2   8 -14  625.43   24.51
  -2   8 -14  648.59   24.31
  -2   8 -12   53.82    8.03
   2   8 -12   54.19    7.66
   2   8 -10  190.30   12.41
  -2   8 -10  220.22   14.19
  -2  -8  -8 1101.81   29.16
   2  -8  -8 1174.88   30.97
   2   8  -8 1090.01   25.38
   2  -8  -6  609.95   20.38
  -2   8  -6  603.00   17.81
   2   8  -6  546.26   17.12
   2  -8  -4  336.51   14.15
   2   8  -4  323.66   11.91
   2  -8  -2   97.15    8.16
   2  -8   2   87.69    6.55
  -2   8   2   71.14    6.79
  -2   8   4  318.72   14.14
   2  -8   4  286.25   10.13
  -2   8   6  565.52   19.81
   2   8   6  543.43   17.07
  -2   8   8 1055.75   29.54
   2   8   8 1019.94   24.54
   2   8  10  148.41   10.82
   2   8  12   43.37    6.06
  -2  -8  26    2.07   10.97
   2  -8  26   13.86   11.57
   2   8  26   30.34   11.81
  -2   8  26    5.08    8.22
   2  -8  28    8.24    9.79
  -2   8  28    8.49   10.77
  -2  -8  28   -5.66   10.47
   2   8  28   13.24   10.75
   2   8  30   -2.69   11.05
   2  -8  30   14.32   12.03
  -2   8  30    8.59    9.59
  -2   8  32   38.37   14.36
   2   8  32   59.23   16.00
  -2   8  34   75.66   17.40
   2   8  34   81.04   17.86
  -2   8  36   47.92   14.42
   2   8  36   67.20   15.34
   2   8  38    3.99    6.33
  -2   8  38    8.21    6.66
   2   8  40   -8.12    6.68
  -2   8  40    4.84    5.13
   2 -10 -28   -8.87    7.35
  -2  10 -28  -10.05    7.43
   2  10 -28   -2.08    6.91
   2  10 -26    1.59    5.12
  -2  10 -26   -9.83    7.22
   2  10 -24  122.09   15.33
  -2  10 -24  136.56   16.10
   2  10 -22  280.59   21.48
  -2  10 -22  314.94   22.97
   2  10 -20  287.21   20.72
  -2  10 -20  291.92   21.59
   2  10 -18  204.26   16.84
  -2  10 -18  204.80   17.26
  -2  10 -16   10.64    5.08
   2  10 -16   16.83    5.55
   2  10 -14  190.68   14.27
  -2  10 -14  191.25   14.30
  -2  10 -12   29.17    8.19
   2  10 -12   18.93    6.41
  -2  10 -10  568.28   22.68
   2  10 -10  589.10   22.80
  -2  10  -8  834.30   24.36
   2  10  -8  823.95   23.60
   2 -10  -6   45.38    6.73
   2  10  -6   40.70    5.49
  -2  10  -6   51.06    6.39
  -2  10  -4  200.71   10.93
   2 -10  -4  209.53   12.13
  -2 -10  -4  210.99   13.04
   2  10  -4  194.03   10.52
   2 -10  -2   91.86    7.83
   2  10  -2   94.63    7.05
  -2 -10  -2   93.74    8.93
  -2  10  -2   89.25    7.26
  -2 -10   0   -0.98    3.56
  -2  10   0    2.61    2.96
   2  10   0    0.43    2.52
   2 -10   2   86.96    6.85
  -2  10   2   83.92    7.89
   2  10   2   94.75    6.56
  -2  10   2   95.10    7.42
   2 -10   4  177.71    9.35
  -2  10   4  191.18   12.05
   2  10   4  181.20    9.06
  -2  10   4  175.01   10.76
   2 -10   6   44.76    5.11
  -2  10   6   40.69    6.28
  -2  10  26   -5.46    9.78
   2  10  26  -11.32   10.13
  -2  10  28    1.50    7.79
   2  10  28    3.76    8.06
  -2  10  30   11.61   11.38
   2  10  30    5.28    7.83
  -2  10  32   24.77   11.80
   2  10  32   30.80   12.63
  -2  10  34   40.10   12.49
   2  10  34   60.25   15.49
  -2  10  36   50.88   13.29
   2  10  36   88.29   16.91
   2  10  38   23.96    8.91
  -2  10  38   17.03    8.38
  -2  10  40    3.55    4.41
   2  10  40    0.07    4.50
  -2  12 -28   -1.95    7.06
   2 -12 -28   -0.11    5.91
   2  12 -28    3.15    5.90
  -2  12 -26    1.00    4.99
   2  12 -26    7.18    5.83
   2  12 -24   28.26    8.21
  -2  12 -24   26.76    8.01
   2  12 -22  188.81   18.58
  -2  12 -22  198.78   18.90
   2  12 -20  300.80   22.00
  -2  12 -20  311.08   21.96
   2  12 -18  115.76   13.84
  -2  12 -18  117.84   14.36
  -2  12 -16   51.53    9.40
   2  12 -16   73.44   10.87
  -2  12 -14   89.89   10.47
   2  12 -14  105.54   11.96
  -2  12 -12    4.32    5.93
   2  12 -12   11.09    5.67
   2  12 -10  318.71   16.93
  -2  12 -10  312.83   17.10
   2  12  -8  806.22   24.95
  -2  12  -8  783.51   25.25
   2  12  -6  208.87   12.44
  -2  12  -6  199.00   12.47
  -2  12  -4   36.65    5.61
   2  12  -4   46.57    5.98
   2 -12  -4   42.18    6.94
   2  12  -2    3.79    3.56
   2 -12  -2    4.32    3.64
  -2  12  -2    1.50    3.02
  -2  12   0   73.91    7.31
  -2 -12   0   65.78    8.05
   2  12   0   75.19    6.58
  -2  12   2   -3.47    3.43
   2  12   2    2.25    2.51
   2 -12   2    3.62    2.74
  -2  12   4   48.93    6.04
   2 -12   4   40.00    5.44
   2  12   4   43.95    5.41
   2 -12   6  180.92   10.66
  -2  12   6  197.60   12.17
   2  12  24   30.73   12.70
  -2  12  26    0.77   10.68
   2  12  26    1.30    8.04
   2  12  28   -1.23   10.29
  -2  12  28   -4.12   11.50
  -2  12  30  -12.26   11.48
   2  12  30    4.36    8.07
  -2  12  32    3.44    7.27
   2  12  32   -0.68    7.53
  -2  12  34   24.44    8.87
   2  12  34   49.69   14.11
  -2  12  36   36.57   11.32
   2  12  36   56.04   14.15
  -2  12  38   13.00    6.16
   2  12  38   22.39    8.70
   2  14 -26   32.56    9.22
  -2  14 -26   27.73    8.63
   2  14 -24   25.54    8.50
  -2  14 -24   18.04    6.16
   2  14 -22   59.64   11.10
  -2  14 -22   52.38   10.54
  -2  14 -20  144.18   16.68
   2  14 -20  136.89   15.98
  -2  14 -18   -1.01    4.78
   2  14 -18    4.17    5.53
  -2  14 -16  163.90   18.33
   2  14 -16  155.74   16.20
   2  14 -14  232.99   17.45
  -2  14 -14  249.29   18.79
  -2  14 -12   22.82    7.07
   2  14 -12   15.72    4.78
   2  14 -10   -1.22    4.37
  -2  14 -10    2.11    5.07
  -2  14  -8  174.90   12.95
   2  14  -8  181.81   13.10
  -2  14  -6  110.50    9.65
   2  14  -6  117.26   10.03
   2  14  -4   10.76    4.33
  -2  14  -4    7.74    3.38
   2  14  -2  647.16   20.81
  -2  14  -2  636.56   22.43
   2  14   0   -0.19    3.00
  -2  14   0    2.16    3.36
   2 -14   2  609.15   22.70
  -2  14   2  661.55   22.63
   2  14   2  641.40   20.14
   2  14   4   11.09    3.70
  -2  14   4   10.38    3.76
   2 -14   4   10.76    3.74
  -2  14   6  101.27    9.62
  -2  14  24   29.78   10.85
   2  14  24    9.88    9.38
  -2  14  26   45.54   13.89
   2  14  26   19.56    9.22
  -2  14  28   16.62    8.30
   2  14  28   14.50    8.50
  -2  14  30   73.19   16.67
   2  14  30   77.68   18.60
  -2  14  32    3.55    7.25
   2  14  32    8.57    7.55
  -2  14  34    7.04    7.05
   2  14  34   -2.24    6.56
  -2  14  36   15.62    7.98
   2  14  36   10.35    7.10
   2  14  38   -3.56    5.91
  -2  14  38    8.01    6.06
   2  16 -24   46.13   10.57
  -2  16 -24   41.20   10.88
  -2  16 -22   -8.00    7.75
   2  16 -22    0.39    5.83
  -2  16 -20   -4.29    5.53
   2  16 -20    2.68    6.00
  -2  16 -18   13.73    7.14
   2  16 -18    4.97    4.98
   2  16 -16  133.24   15.02
  -2  16 -16  166.78   16.61
  -2  16 -14  486.04   26.73
   2  16 -14  473.30   25.50
  -2  16 -12  220.92   17.03
   2  16 -12  221.44   16.50
  -2  16 -10    0.48    4.33
   2  16 -10   -2.89    4.50
   2  16  -8    0.48    4.08
  -2  16  -8    0.01    5.13
   2  16  -6   27.96    6.24
  -2  16  -6   20.75    5.40
  -2  16  -4  423.71   20.37
   2  16  -4  427.35   18.83
  -2  16  -2  101.18    9.76
   2  16  -2  113.91    9.36
   2  16   0  915.15   26.09
  -2  16   0  914.25   28.57
   2  16   2  118.18    9.81
  -2  16   2  109.29   10.27
   2  16   4  434.19   18.36
  -2  16   4  451.32   20.47
  -2  16   6   17.28    4.10
   2  16  22    7.23    7.22
  -2  16  22    6.60   10.91
   2  16  24   33.01   13.59
  -2  16  24   42.15   14.16
   2  16  26   49.74   14.66
  -2  16  26   46.76   13.36
  -2  16  28  160.27   24.08
   2  16  28  156.10   25.07
   2  16  30   51.38   14.55
  -2  16  30   32.46   11.03
  -2  16  32   23.61   10.21
   2  16  32   37.31   12.96
   2  16  34  -10.05    6.82
  -2  16  34    5.26    5.22
   2  16  36   -7.93    6.81
  -2  16  36   -2.03    4.60
   2  16  38   -4.91    5.15
  -2  18 -24    5.37    6.39
   2  18 -24    6.13    5.30
  -2  18 -22   -1.60    5.95
   2  18 -22   -3.36    6.80
  -2  18 -20    0.72    6.60
   2  18 -20   -1.15    5.22
  -2  18 -18   -1.38    4.99
   2  18 -18   -6.23    6.04
  -2  18 -16  130.96   15.07
   2  18 -16  146.74   16.08
  -2  18 -14  211.85   18.69
   2  18 -14  199.44   17.97
  -2  18 -12  195.30   17.34
   2  18 -12  164.07   15.43
  -2  18 -10   63.89   10.94
   2  18 -10   75.39   11.07
   2  18  -8   14.85    6.54
  -2  18  -8   21.57    6.44
  -2  18  -6    8.41    5.08
   2  18  -6    0.15    3.78
  -2  18  -4   82.79    9.90
   2  18  -4   74.89    8.57
   2  18  -2  267.59   15.48
  -2  18  -2  245.25   16.37
   2  18   0  489.86   20.91
  -2  18   0  499.99   23.07
  -2  18   2  267.66   17.33
   2  18   2  277.35   15.69
   2  18   4   83.09    8.84
  -2  18   4   85.66   10.24
  -2  18   6   -4.78    5.59
  -2  18  20    6.13    8.65
   2  18  20  -12.69    9.42
  -2  18  22    9.71   10.03
   2  18  22    9.90    9.23
  -2  18  24    3.15    8.94
   2  18  24   16.70   11.76
   2  18  26  113.06   22.39
  -2  18  26   83.43   17.37
   2  18  28  164.20   25.37
  -2  18  28  134.98   21.61
   2  18  30   74.39   16.99
  -2  18  30   72.07   14.80
   2  18  32   17.52    8.29
  -2  18  32    7.26    6.75
   2  18  34   -5.14    6.43
  -2  18  34   -3.29    5.55
  -2  18  36   -3.82    5.08
   2  18  36    6.39    5.21
  -2  20 -22   24.87    9.06
   2  20 -22   28.00    8.99
  -2  20 -20   -0.08    7.14
   2  20 -20   -4.24    6.26
  -2  20 -18   -7.46    5.69
   2  20 -18   -2.99    6.05
  -2  20 -16  133.68   16.33
   2  20 -16  141.78   16.28
  -2  20 -14   34.73    8.51
   2  20 -14   39.35    9.47
   2  20 -12   68.23   10.80
  -2  20 -12   60.94   10.61
   2  20 -10   13.96    6.41
  -2  20 -10   20.92    7.12
  -2  20  -8   50.78    9.88
   2  20  -8   43.19    9.74
  -2  20  -6   29.56    7.85
   2  20  -6   22.65    6.73
  -2  20  -4  -16.41    5.65
   2  20  -4   -1.82    4.32
  -2  20  -2  264.26   17.90
   2  20  -2  269.79   16.70
   2  20   0  209.67   14.59
  -2  20   0  213.80   16.20
  -2  20   2  275.32   18.09
   2  20   2  247.23   15.97
   2  20   4   -6.42    4.10
  -2  20   4   -6.00    5.90
   2  20  18    7.22    9.74
  -2  20  18    1.51    7.56
  -2  20  20    1.57    8.17
   2  20  20   -5.09    7.87
  -2  20  22   42.51   13.94
   2  20  22   27.20   12.69
   2  20  24    3.34    7.28
  -2  20  24    0.99    7.23
   2  20  26   43.62   14.64
  -2  20  26   30.39   11.56
   2  20  28   83.23   18.34
  -2  20  28   75.05   16.26
   2  20  30   54.34   14.35
  -2  20  30   57.75   14.42
  -2  20  32    6.15    7.07
   2  20  32   24.15   10.08
  -2  20  34    3.39    4.78
   2  20  34    0.60    4.66
   2  22 -18   61.30   11.09
  -2  22 -18   54.41   10.92
   2  22 -16    9.26    4.80
  -2  22 -16    5.24    5.63
  -2  22 -14  186.27   18.77
   2  22 -14  176.47   17.61
  -2  22 -12    5.87    5.92
   2  22 -12   11.16    5.03
  -2  22 -10   23.78    7.43
   2  22 -10   18.36    6.47
  -2  22  -8   63.85   10.62
   2  22  -8   53.56    8.78
  -2  22  -6   77.42   11.40
   2  22  -6   82.06   10.45
  -2  22  -4    0.59    4.13
   2  22  -4    2.13    4.49
  -2  22  -2   86.31   10.86
   2  22  -2   70.05    9.33
   2  22   0   93.42   10.66
  -2  22   0   89.75   12.54
  -2  22   2   83.61   11.10
   2  22   2   66.28    9.19
  -2  22   4    4.14    3.98
   2  22  14  221.20   28.13
  -2  22  16   11.28    8.81
   2  22  16   24.73   13.80
  -2  22  18   80.98   18.35
   2  22  18   60.26   16.42
   2  22  20  122.94   23.48
  -2  22  20  114.55   20.83
   2  22  22   -2.25    8.20
  -2  22  22   20.45   10.74
  -2  22  24  -11.56    8.79
   2  22  24    4.98    8.85
   2  22  26    6.48    8.95
  -2  22  26    7.47    7.56
   2  22  28   17.88    9.44
  -2  22  28   30.42    9.57
  -2  22  30   29.73    9.78
   2  22  30   11.76    8.11
   2  22  32    5.29    5.44
  -2  22  32   -0.69    4.29
   2  22  34    8.26    5.31
  -2  24 -16   19.50    6.13
   2  24 -16    9.27    6.20
   2  24 -14  -14.24   14.89
  -2  24 -14   -2.99    5.38
   2  24 -14   -4.57    5.56
   2  24 -12   46.31   21.50
   2  24 -12   17.49    6.20
  -2  24 -12   41.43   10.17
   2  24 -10   22.12   14.60
  -2  24 -10   21.86    6.88
   2  24 -10   12.13    5.16
  -2  24  -8   71.14   11.19
   2  24  -8   63.05    9.74
   2  24  -6   82.98   11.44
  -2  24  -6   94.48   13.48
   2  24  -4   36.42    7.65
  -2  24  -4   42.21    9.04
  -2  24  -2   27.46    7.66
  -2  24   0   83.68   11.97
  -2  24   2   18.91    9.01
   2  24  10   37.06   10.11
   2  24  12   32.48   10.15
  -2  24  12   39.45   11.97
   2  24  14   -0.58    7.67
   2  24  14   -0.39    9.12
  -2  24  14    2.08    7.12
  -2  24  16   23.33   11.19
   2  24  16   27.58   12.79
  -2  24  18   50.45   13.94
   2  24  18   56.88   16.10
  -2  24  20   -0.96    6.45
   2  24  20   14.97    9.43
  -2  24  22   80.97   17.16
   2  24  22   85.92   18.74
  -2  24  24   25.99    9.90
   2  24  24   28.65   11.77
  -2  24  26   -8.96    7.92
   2  24  26   -9.30    9.08
   2  24  28   12.10    7.27
  -2  24  28   11.54    5.56
  -2  24  30    1.42    4.27
   2  24  30   11.79    7.22
   2  24  32    2.29    4.08
   2  26 -14  -27.03   21.09
  -2  26 -12    0.98    5.31
   2  26 -12   -3.75    5.22
   2  26 -10   12.33   13.61
  -2  26 -10   30.96    8.70
   2  26 -10   16.56    5.13
   2  26  -8   71.22   25.31
  -2  26  -8   81.38   12.52
  -2  26  -6  140.67   15.60
   2  26  -6  123.68   29.70
   2  26  -4   39.44   17.69
  -2  26  -4   46.51   10.20
   2  26  -2   11.30   16.76
  -2  26  -2   38.87   10.05
  -2  26   0  101.29   14.70
   2  26   0   28.26   16.82
   2  26   2   15.90   17.91
  -2  26   2   31.38    9.47
   2  26   4   43.63   13.91
   2  26   6  161.26   20.86
  -2  26   6  150.79   19.52
   2  26   8   80.61   15.45
   2  26  10    7.75    6.37
  -2  26  10   19.35   11.79
   2  26  12  -17.13   10.04
  -2  26  12   14.49   11.13
   2  26  12   13.80   10.44
   2  26  14  -10.25    8.32
  -2  26  14   -8.61    8.80
   2  26  14    0.46    8.97
  -2  26  16   18.17   10.62
   2  26  16   -4.93    9.64
   2  26  18   19.48   12.50
  -2  26  18    7.80    8.07
   2  26  20   42.75   15.12
  -2  26  20   45.34   13.65
  -2  26  22   56.73   13.36
   2  26  22   71.73   16.86
  -2  26  24   46.94   11.21
   2  26  24   41.58   13.45
   2  26  26    3.73    5.74
  -2  26  26  -13.42    7.21
   2  26  28    5.53    5.71
   2  26  30  -10.26    5.61
   2  26  30    8.87    5.75
   2  28  -8   17.10   15.36
  -2  28  -6  150.09   16.74
   2  28  -6   86.80   23.63
   2  28  -4   10.48   13.38
  -2  28  -4   17.49    6.65
   2  28  -2  -15.51   15.66
  -2  28  -2   -3.30    5.50
  -2  28   0   28.92    8.26
   2  28   0   74.54   16.33
   2  28   2   32.98   11.94
   2  28   4   16.08    8.23
   2  28   6  151.99   20.78
  -2  28   6  158.00   20.30
  -2  28   8   71.79   14.11
   2  28   8   75.71   15.37
   2  28  10    7.67    5.81
  -2  28  10   16.70    9.58
   2  28  12    2.64    5.82
   2  28  12    0.58    8.37
  -2  28  12   13.00    9.19
   2  28  14   29.79   13.29
  -2  28  14    9.56    8.72
  -2  28  16   18.50    9.27
   2  28  16    5.57    9.11
  -2  28  18   -7.08    7.39
   2  28  18    5.95    7.36
   2  28  20   72.06   16.01
  -2  28  20   54.70   13.42
   2  28  22   42.47   12.39
   2  28  24    9.03    6.78
   2  28  26   -2.58    5.97
   2  28  28    1.56    4.95
   2  30  -2   11.07    7.88
   2  30   0   -0.12    6.20
  -2  30   2   19.72    7.73
   2  30   2   23.67    9.95
   2  30   4   29.17    9.74
  -2  30   4   31.70   10.07
  -2  30   6   25.92    8.84
   2  30   6   16.66    8.54
  -2  30   8   45.43   11.71
   2  30   8   39.46   11.66
   2  30  10   12.68    7.86
   2  30  10    1.26    8.35
   2  30  12    3.70    5.80
   2  30  12   -8.68    8.75
   2  30  14    1.47    6.69
   2  30  16   -1.03    8.20
   2  30  18    9.02    7.15
   2  30  20   20.36    9.56
   2  30  22   26.48    9.47
   2  30  24    1.23    5.26
   2  30  26   -6.20    4.66
   2  32 -18   -8.23    4.85
   2  32 -16    3.28    5.39
   2  32 -10   -3.11    6.18
   2  32  -8   25.72   10.29
   2  32  -6    4.53    6.14
   2  32  -4   -1.79    4.98
   2  32  -2   12.46    7.82
  -2  32   0   39.00   11.13
   2  32   0   44.39   11.89
   2  32   2   22.13    8.83
  -2  32   2    2.64    5.66
  -2  32   4   -3.28    6.66
   2  32   4    1.67    6.27
  -2  32   6   -0.97    5.17
   2  32   6    8.06    7.77
   2  32   8   13.74    7.34
   2  32   8    6.61    8.62
   2  32  10   -0.82    4.99
   2  32  10  -13.13    9.16
   2  32  12    1.98    7.52
   2  32  14   29.24   11.18
   2  32  16    5.03    6.23
   2  32  18    5.23    5.25
   2  32  20    6.39    5.80
   2  32  22   -5.44    6.43
   2  34 -18    1.32    3.24
   2  34 -16   18.08    6.40
   2  34 -14   24.64    7.97
   2  34 -12   17.17    7.13
   2  34 -10   -4.16    6.56
   2  34  -8    0.66    4.87
   2  34  -6   -6.06    5.37
   2  34  -4   14.32    7.46
  -2  34  -4    4.72    6.24
   2  34  -2   14.51    8.00
  -2  34  -2   10.88    6.55
  -2  34   0   23.89    8.66
   2  34   0   14.60    7.84
   2  34   2   12.86    6.56
  -2  34   2    1.84    5.51
  -2  34   4   15.37    7.04
   2  34   4    3.91    5.40
  -2  34   6   -1.03    4.95
   2  34   6    2.19    4.85
   2  34   6   -8.02    8.06
   2  34   8    7.78    6.10
   2  34   8   10.75    7.31
   2  34  10  -13.52    7.36
   2  34  12   14.44    7.97
   2  34  14   28.64    9.51
   2  34  16   15.59    8.13
   2  34  18    1.35    4.29
  -2  36 -14   25.42    7.22
   2  36 -14   28.34    7.18
  -2  36 -12    6.56    4.71
   2  36 -12    0.92    3.90
   2  36 -10   -7.08    5.65
  -2  36 -10   -2.43    4.85
   2  36  -8   -0.23    4.49
  -2  36  -8   -4.00    5.08
  -2  36  -6    2.80    5.04
   2  36  -6    5.68    5.27
   2  36  -4    6.03    5.88
  -2  36  -4   -3.72    5.11
   2  36  -2   15.80    7.08
  -2  36  -2    7.35    4.90
  -2  36   0   10.56    5.66
   2  36   0   17.33    7.23
   2  36   2    3.30    4.44
  -2  36   2   17.13    6.65
  -2  36   4    1.12    5.21
   2  36   4   -1.04    4.96
   2  36   4    5.14    7.40
   2  36   6   -2.57    4.78
  -2  36   6   -8.81    5.39
   2  36   6    6.36    5.45
   2  36   8    4.79    4.76
   2  36  10   -9.11    6.39
   2  36  12    8.97    5.78
   2  36  14   33.70    8.51
  -2  38  -8   -5.97    5.02
   2  38  -8  -10.89    5.20
   2  38  -6   -3.70    4.40
  -2  38  -6   -7.92    5.27
   2  38  -4    1.85    4.54
  -2  38  -4   -7.67    5.26
   2  38  -2   11.20    5.02
  -2  38  -2   -2.21    4.87
   2  38  -2   17.75    6.52
  -2  38   0   23.88    6.30
   2  38   0   16.20    6.42
   2  38   0   29.67    8.43
   2  38   2    0.47    3.64
  -2  38   2    3.33    3.66
   2  38   2   -1.57    4.85
   2  38   4    3.67    4.72
  -3   1 -29  297.95   23.77
   3   1 -29  297.82   24.50
   3  -1 -29  291.60   24.42
   3   1 -27   63.13   12.18
   3  -1 -27   69.84   12.09
  -3   1 -27   49.20    9.74
  -3  -1 -27   62.20   10.40
  -3  -1 -25    3.60    4.09
   3   1 -25   -2.79    4.46
   3  -1 -25   -5.01    5.06
  -3   1 -25   -4.76    6.40
  -3   1 -23   93.33   11.81
   3   1 -23   91.39   11.94
  -3  -1 -23   96.19   12.11
   3  -1 -23   96.43   12.75
  -3   1 -21  224.73   16.92
   3   1 -21  221.79   17.50
  -3  -1 -21  226.66   16.85
   3  -1 -21  231.18   17.99
  -3   1 -19   90.07   10.20
  -3  -1 -19   91.89   10.16
   3   1 -19   88.01   10.79
   3   1 -17  167.80   13.37
  -3  -1 -17  174.08   12.73
  -3   1 -17  160.01   12.24
  -3   1 -15   27.45    5.45
  -3  -1 -15   25.30    5.03
  -3   1 -13   91.57    7.94
  -3  -1 -13   86.34    7.58
  -3  -1 -11    0.10    2.69
  -3   1 -11    0.94    2.41
  -3  -1  -9  414.83   12.70
  -3   1  -9  407.65   12.92
  -3  -1  -9  403.50    9.95
  -3  -1  -7  285.04    8.55
  -3  -1  -7  285.15    9.40
   3  -1  -5  574.22   12.43
  -3  -1  -5  591.67   12.42
  -3   1  -5  568.88    7.74
   3  -1  -3 1202.07   17.60
  -3   1  -3 1172.03    8.98
  -3  -1  -3 1182.68   15.71
  -3   1  -3 1161.15   16.96
  -3   1  -1   40.88    3.73
  -3   1   1   30.90    3.70
   3  -1   3 1173.41   17.75
  -3   1   3 1170.19   17.03
  -3  -1   5  581.40   12.39
   3  -1   5  577.93   12.40
   3   1   7  254.34    8.92
   3  -1   7  265.81    7.25
  -3  -1   7  279.00    8.49
  -3   1   9  396.77   15.65
  -3  -1   9  384.26    9.46
   3   1   9  380.76   12.25
   3   1   9  396.64   12.36
   3   1  11    3.83    2.76
  -3   1  11    0.93    3.28
   3  -1  11    3.34    2.22
   3   1  11    2.23    2.35
   3   1  13   75.74    7.04
   3   1  13   80.18    6.42
   3  -1  13   75.80    5.98
   3   1  27   45.35   13.87
  -3   1  27   46.30   14.56
   3  -1  27   58.37   16.68
  -3  -1  27   42.10   12.38
  -3  -1  29  225.83   31.56
   3   1  29  247.27   30.45
  -3   1  29  234.63   31.09
   3  -1  29  260.47   31.22
   3   1  31    1.53    7.52
  -3   1  31   10.35    9.57
  -3  -1  31    5.49    8.22
   3  -1  31    7.78    9.66
   3  -1  33   43.57   13.77
  -3   1  33   59.69   16.35
  -3  -1  33   56.68   17.31
   3   1  33   56.35   15.16
   3  -1  35   30.66   12.43
   3   1  35   33.75   11.85
  -3  -1  35   13.15    9.58
  -3   1  35   36.31   13.93
   3   1  37   11.66    7.97
   3  -1  37    7.88    7.94
  -3   1  37  -13.25   11.64
   3   1  39   -9.08    6.86
   3  -3 -29  -10.68    7.57
  -3   3 -29    4.17    6.39
   3   3 -29   -9.60    7.39
  -3   3 -27  182.13   18.84
   3   3 -27  187.90   19.07
   3  -3 -27  154.82   17.67
  -3  -3 -25   10.49    5.56
   3   3 -25    8.49    5.24
   3  -3 -25    1.01    6.21
  -3   3 -25    3.79    4.05
  -3   3 -23  171.25   16.10
  -3  -3 -23  152.87   15.40
   3   3 -23  161.36   16.48
   3  -3 -23  152.81   16.63
  -3   3 -21  220.35   17.25
   3   3 -21  203.59   17.75
  -3  -3 -21  208.48   16.38
  -3   3 -19  152.63   13.27
  -3  -3 -19  149.01   13.00
   3   3 -19  140.51   13.48
  -3  -3 -17    6.36    4.20
   3   3 -17    3.36    4.60
  -3   3 -17    1.70    3.86
  -3   3 -15   63.93    7.62
   3   3 -15   64.61    8.38
  -3  -3 -15   66.43    7.31
  -3   3 -13   -0.10    3.04
   3   3 -13    0.41    3.72
  -3  -3 -11   87.31    7.40
   3   3 -11   75.82    7.59
  -3  -3 -11   76.40    4.76
  -3   3 -11   73.97    6.75
   3  -3  -9    3.10    1.98
  -3  -3  -9    3.37    2.95
   3   3  -9    0.51    2.80
  -3   3  -9    1.95    2.61
   3   3  -7  783.88   18.17
  -3  -3  -7  750.08   17.78
   3  -3  -7  754.78   15.01
  -3  -3  -5  148.58    8.69
   3  -3  -5  112.85    6.54
  -3  -3  -3  826.60   17.00
  -3   3  -1  442.14    7.69
  -3   3   1  412.70   10.52
  -3   3   3  895.83   17.72
  -3   3   5  108.18    7.56
   3  -3   5  248.28    9.76
   3  -3   7  675.02    9.47
  -3   3   7  755.41   20.26
   3   3   7  699.12   17.35
   3  -3   7  682.98   14.04
   3   3   7  693.29   16.58
  -3   3   9   -2.69    3.76
   3  -3   9    3.67    1.83
   3  -3   9    3.21    1.88
   3   3   9    0.76    2.40
   3   3   9    3.96    2.80
   3   3  11   70.98    6.96
  -3   3  11   72.66    7.88
   3  -3  11   70.38    5.07
  -3  -3  11   72.49    4.50
   3   3  11   70.77    6.10
   3   3  13    1.70    3.03
   3   3  13    1.67    2.54
   3  -3  13    2.95    2.54
   3   3  15   63.36    6.16
   3   3  27  155.65   23.62
   3  -3  27  144.57   24.43
  -3   3  27  175.26   25.36
  -3  -3  27  145.11   25.52
  -3   3  29    6.67    9.58
   3  -3  29    9.71    8.54
   3   3  29   13.87    9.03
  -3  -3  29    1.63    7.80
   3   3  31   14.70    9.28
  -3  -3  31    7.08    9.68
   3  -3  31   12.09    7.06
  -3   3  31    4.00    7.53
   3  -3  33    3.00    7.63
  -3  -3  33    0.23    8.40
   3   3  33    0.06    9.32
  -3   3  33    6.47    8.70
  -3   3  35   45.30   14.20
   3  -3  35   47.88   15.35
   3   3  35   45.74   14.30
  -3   3  37    5.03    6.55
   3   3  37   12.57    9.45
   3   3  39   -5.23    6.65
   3   3  41   24.82    5.86
  -3   5 -29   12.89    6.38
   3  -5 -29    9.50    5.97
   3   5 -29   14.41    6.37
   3  -5 -27   -0.11    5.48
  -3   5 -27   -4.60    6.11
   3   5 -25   29.86    7.12
   3  -5 -25   43.64   10.22
  -3   5 -25   27.70    7.65
  -3   5 -23  185.42   17.22
   3   5 -23  184.04   17.29
  -3  -5 -23  183.78   17.19
  -3   5 -21  154.88   14.93
  -3  -5 -21  167.70   14.96
   3   5 -21  174.89   15.98
   3   5 -19   57.27    9.57
  -3  -5 -19   55.61    8.01
  -3   5 -19   46.92    8.42
  -3   5 -17  117.24   10.91
   3   5 -17  120.65   11.98
  -3   5 -15  569.07   21.76
   3   5 -15  560.64   23.35
  -3  -5 -13   -0.08    2.90
   3   5 -13   -2.87    3.86
  -3   5 -13    3.31    3.47
   3  -5 -11    9.15    2.02
   3   5 -11   15.64    4.50
  -3  -5 -11   10.83    4.09
  -3   5 -11   11.83    4.20
   3   5  -9   28.87    4.83
  -3  -5  -9   34.25    5.52
  -3   5  -9   35.14    4.79
   3   5  -7   43.43    5.57
  -3   5  -7   59.83    6.17
   3  -5  -5 1322.74   25.09
  -3  -5  -5 1357.98   25.96
   3  -5  -3  874.49   18.65
  -3  -5  -3  882.07   20.34
  -3   5  -1 1271.32   16.92
   3  -5  -1 1283.99   19.97
   3  -5   1 1303.42   16.57
  -3   5   3  871.45   18.20
   3  -5   3  808.63   10.50
  -3   5   5 1396.89   25.94
   3  -5   5 1568.87   12.95
  -3   5   7   46.15    6.03
   3   5   7   41.32    5.22
   3  -5   9   31.49    3.53
   3  -5   9   29.41    2.79
   3   5   9   31.25    5.00
  -3   5   9   30.86    4.90
   3   5   9   34.65    4.93
   3  -5  11   13.17    2.47
   3  -5  11   11.00    2.22
   3   5  11    5.51    3.69
   3   5  11   15.40    3.99
   3   5  13   -2.13    2.59
   3   5  15  497.96   17.77
   3  -5  27   11.63    7.73
  -3   5  27   14.68    9.10
   3   5  27    0.06    9.38
  -3  -5  27    1.09    9.02
  -3   5  29    8.31   12.11
   3  -5  29    1.46    8.36
   3   5  29   10.38    9.18
  -3  -5  29    0.79   12.48
  -3  -5  31   30.31   12.93
   3  -5  31   26.34   11.81
  -3   5  31   26.77   13.78
   3   5  31   31.35   13.03
   3  -5  33   -0.33    6.90
  -3   5  33   11.99    9.77
   3   5  33   -0.76    8.41
  -3   5  35    9.51    9.47
   3   5  35   31.72   12.96
  -3   5  37    5.20    8.50
   3   5  37   13.09    7.94
   3   5  39   -4.33    6.54
  -3   5  39   -1.89    7.64
   3   5  41   14.61    4.90
   3  -7 -29   86.85   14.06
  -3   7 -29   88.34   13.91
   3   7 -29   86.25   13.40
   3  -7 -27   -9.66    6.94
  -3   7 -27   -8.11    6.22
   3   7 -27    3.52    5.26
  -3   7 -25   -2.40    5.81
   3   7 -25   -3.22    4.50
  -3   7 -23    8.72    5.55
   3   7 -23    1.03    5.48
  -3   7 -21  174.50   16.30
   3   7 -21  188.62   16.91
   3   7 -19    4.17    4.35
  -3   7 -19   12.99    5.56
  -3   7 -17  136.10   12.18
   3   7 -17  129.04   12.21
  -3   7 -15  482.90   21.41
   3   7 -15  512.37   22.78
   3   7 -13  741.73   25.34
  -3   7 -13  799.78   25.28
   3   7 -11   47.98    6.52
  -3  -7 -11   35.54    6.27
  -3   7 -11   40.06    5.99
   3   7  -9  128.53    9.50
  -3  -7  -9  133.01   10.23
  -3   7  -9  145.14    9.91
   3   7  -7  736.32   19.63
   3  -7  -7  786.45   23.40
   3   7  -5  128.97    7.53
   3  -7  -5  125.36    8.88
  -3   7  -5  134.68    8.18
  -3  -7  -5  133.87    9.63
   3  -7  -3  629.33   17.30
   3  -7  -1  440.69   13.62
  -3   7   1  503.51   15.22
   3  -7   1  421.46   11.68
  -3   7   3  587.06   17.11
   3  -7   5  130.31    5.47
   3   7   7  658.69   19.26
   3   7   9  118.51    9.64
   3   7   9  112.38    8.49
   3   7  11   35.09    5.41
   3   7  13  670.39   21.17
   3   7  15  440.80   17.74
  -3  -7  27  -13.55   10.11
   3  -7  27   -1.58    9.37
  -3   7  27   -2.12    7.86
   3   7  27   -4.25    7.74
   3   7  29   74.83   18.60
  -3  -7  29   39.20   12.62
  -3   7  29   81.90   18.30
   3  -7  29   55.14   16.27
   3   7  31   30.23   12.31
  -3   7  31   13.82    8.86
   3  -7  31   19.45    8.97
  -3   7  33   -2.42    8.59
   3   7  33   19.60   11.19
   3   7  35   10.55    8.50
  -3   7  35   16.40    7.84
  -3   7  37    8.13    7.20
   3   7  37    1.42    6.51
   3   7  39   -7.80    7.56
  -3   7  39   -5.96    7.38
   3   7  41   11.81    4.19
   3   7  41    8.00    5.67
   3   9 -29  137.33   17.58
  -3   9 -29  123.06   15.87
   3  -9 -29  123.83   15.97
  -3   9 -27   30.79    8.34
   3  -9 -27   28.55    5.80
   3   9 -27   28.32    8.32
   3   9 -25   -0.72    5.47
  -3   9 -25   -1.34    5.65
  -3   9 -23    7.95    7.47
   3   9 -23    3.30    4.72
  -3   9 -21   67.17   10.88
   3   9 -21   54.10    9.48
  -3   9 -19   10.08    6.20
   3   9 -19    9.11    5.70
  -3   9 -17   26.32    7.19
   3   9 -17   20.04    6.23
   3   9 -15  276.09   17.42
  -3   9 -15  292.34   17.76
   3   9 -13 1307.53   35.40
  -3   9 -13 1325.66   34.83
  -3   9 -11   42.46    6.94
   3   9 -11   44.81    7.23
   3   9  -9   28.76    5.04
  -3   9  -9   37.26    6.34
  -3   9  -7  124.06    9.28
   3  -9  -7  118.16   10.19
   3   9  -7  114.55    8.79
   3  -9  -5   20.14    4.07
  -3   9  -5   23.26    4.52
   3   9  -5   24.21    4.41
  -3  -9  -5   23.93    5.18
  -3   9  -3  599.43   17.78
   3  -9  -3  607.68   19.16
   3   9  -3  605.97   16.22
  -3  -9  -3  574.10   21.29
   3  -9  -1   17.96    3.91
  -3   9  -1   23.23    4.00
   3  -9   1   19.07    3.41
  -3   9   1   21.56    4.16
  -3   9   1   20.01    3.94
   3   9   1   20.67    4.58
  -3   9   3  559.48   18.68
   3   9   3  586.45   18.22
  -3   9   3  598.66   18.29
  -3   9   5   18.23    4.18
  -3   9   5   24.23    5.13
   3  -9   5   22.06    3.50
   3   9   5   23.91    4.60
   3  -9   7   99.65    6.12
  -3   9   7  109.99   10.18
   3   9   7  112.98    8.92
   3   9   9   30.03    6.06
   3   9  11   47.70    6.70
   3   9  13 1233.42   30.60
   3   9  25   -5.03    8.14
   3   9  27   13.81    7.85
  -3   9  27   29.37   11.89
   3  -9  27   13.48    9.20
   3   9  29   95.21   19.45
  -3   9  29  113.30   20.60
  -3   9  31   10.07    9.39
   3   9  31    2.41    8.26
  -3   9  33    7.17    7.97
   3   9  33    9.58   10.13
  -3   9  35    5.73    7.65
   3   9  35    6.31    6.48
  -3   9  37    4.97    5.80
   3   9  37    6.60    6.81
  -3   9  39    8.63    6.47
   3   9  39  -15.47    7.66
  -3  11 -27  186.54   19.58
   3  11 -27  185.50   19.57
  -3  11 -25   -3.35    7.42
   3  11 -25    3.77    5.79
  -3  11 -23   75.42   12.59
   3  11 -23   67.27   11.35
  -3  11 -21    8.88    6.02
   3  11 -21    7.70    5.67
  -3  11 -19   74.67   11.19
   3  11 -19   73.38   11.57
   3  11 -17   28.69    7.22
  -3  11 -17   37.56    7.69
   3  11 -15  427.68   22.30
  -3  11 -15  435.73   22.50
  -3  11 -13  165.14   13.58
   3  11 -13  184.04   14.53
  -3  11 -11  328.57   18.29
   3  11 -11  295.86   17.96
  -3  11  -9   63.19    8.02
   3  11  -9   62.01    7.31
  -3  11  -7  116.08    9.45
   3  11  -7  113.25    8.94
  -3  11  -5   41.57    6.03
   3  11  -5   42.22    5.38
   3 -11  -5   39.41    6.23
   3  11  -3    1.31    2.61
   3 -11  -3    1.17    2.83
  -3 -11  -3   -0.20    3.43
  -3  11  -3    2.37    3.15
  -3  11  -1   75.21    7.30
  -3 -11  -1   78.41    8.79
   3 -11  -1   70.16    7.16
   3  11  -1   77.07    6.42
  -3  11   1   76.01    7.32
   3  11   1   82.13    6.20
  -3  11   3    2.72    3.22
   3  11   3    2.09    2.40
  -3  11   3   -2.66    3.52
  -3  11   5   36.30    5.50
   3 -11   5   36.59    4.67
   3  11  25   11.56   10.33
  -3  11  25   16.11   10.84
   3  11  27  155.33   24.44
  -3  11  27  134.18   22.41
   3  11  29   15.01   10.53
  -3  11  29   13.54    8.54
   3  11  31   10.76    9.29
  -3  11  31   19.18   10.53
  -3  11  33   -2.32    6.75
   3  11  33   17.70   10.45
   3  11  35   11.18    8.02
  -3  11  35   20.21    9.57
  -3  11  37   -7.79    7.70
   3  11  37    3.01    7.17
  -3  11  39  -11.72    6.52
   3  11  39    3.96    5.39
  -3  13 -27   57.57   11.59
   3  13 -27   60.23   11.64
   3  13 -25   57.29   10.70
  -3  13 -25   64.43   12.07
   3  13 -23    9.63    5.37
  -3  13 -23   10.37    5.75
  -3  13 -21  136.43   15.69
   3  13 -21  130.77   15.49
  -3  13 -19   84.30   12.53
   3  13 -19   81.38   11.99
  -3  13 -17   17.88    6.94
   3  13 -17   16.38    5.82
  -3  13 -15  288.28   20.35
   3  13 -15  256.73   18.82
   3  13 -13   57.88   10.13
  -3  13 -13   81.97   11.06
  -3  13 -11   12.19    6.95
   3  13 -11   13.47    5.41
  -3  13  -9   10.15    5.13
   3  13  -9    0.75    3.58
  -3  13  -7  116.63   10.44
   3  13  -7  116.80   10.12
  -3  13  -5    7.14    3.21
   3  13  -5   14.17    4.26
  -3  13  -3   74.34    8.09
   3  13  -3   88.12    7.85
   3 -13  -1   13.27    3.81
  -3  13  -1   17.82    5.32
   3  13  -1   12.21    3.71
  -3  13   1   26.81    6.45
   3  13   1   21.80    4.09
  -3  13   3   90.73    8.77
   3  13   3   86.06    7.17
  -3  13   5    5.74    3.48
   3  13   5    4.71    2.66
   3  13  23   27.10   11.51
  -3  13  25   72.64   16.21
   3  13  25   78.20   17.83
  -3  13  27   35.89   11.86
   3  13  27   53.50   15.30
   3  13  29   21.22   11.35
  -3  13  29   19.59    9.95
   3  13  31   -4.55    7.25
  -3  13  31   10.43    8.00
   3  13  33   15.98    9.20
  -3  13  33   -3.05    7.37
  -3  13  35   -5.20    7.35
   3  13  35   14.76    8.57
  -3  13  37    5.93    5.08
   3  13  37    4.70    6.09
   3  13  39   -7.99    6.45
  -3  15 -25   26.62    8.77
   3  15 -25   37.52    8.84
  -3  15 -23    0.63    5.77
   3  15 -23    8.98    5.54
   3  15 -21  166.83   17.77
  -3  15 -21  163.59   17.64
  -3  15 -19   65.41   11.37
   3  15 -19   46.64    9.59
  -3  15 -17   -6.68    5.80
   3  15 -17   -6.49    6.83
  -3  15 -15  150.53   16.45
   3  15 -15  160.15   15.19
   3  15 -13   88.32   10.54
  -3  15 -13   91.15   11.81
  -3  15 -11    7.85    5.04
   3  15 -11    7.45    4.61
  -3  15  -9   45.00    8.29
   3  15  -9   38.10    6.91
  -3  15  -7   83.69    9.72
   3  15  -7   81.52    8.68
   3  15  -5   15.71    4.04
  -3  15  -5   17.20    4.15
  -3  15  -3   17.35    5.12
   3  15  -3   11.15    3.38
  -3  15  -1   75.86    8.74
   3  15  -1   74.80    7.38
   3  15   1   60.78    6.53
  -3  15   1   76.95    8.93
   3  15   3   19.48    4.27
  -3  15   3   19.21    5.49
   3  15   5   27.98    4.49
  -3  15   5   14.95    4.26
   3  15  23   12.04   10.03
  -3  15  23    2.86    7.90
  -3  15  25   26.35   11.93
   3  15  25   21.22   11.52
  -3  15  27   19.93    8.84
   3  15  27   15.88   10.66
   3  15  29   51.98   16.58
  -3  15  29   43.97   13.59
  -3  15  31    2.55    8.80
   3  15  31    0.88    7.34
   3  15  33   24.51   11.04
  -3  15  33    6.63    6.42
  -3  15  35   13.73    7.96
   3  15  35   40.46   11.81
   3  15  37   -3.19    5.70
  -3  15  37    8.40    4.59
  -3  17 -23   20.96    8.35
   3  17 -23    0.24    5.07
  -3  17 -21  107.47   14.80
   3  17 -21  118.29   15.65
  -3  17 -19   18.02    7.33
   3  17 -19   19.99    7.23
  -3  17 -17    6.08    4.80
   3  17 -17  -10.32    6.18
  -3  17 -15   46.42   10.03
   3  17 -15   43.16    8.93
  -3  17 -13  149.29   15.50
   3  17 -13  121.03   13.43
  -3  17 -11   39.02    8.10
   3  17 -11   43.33    8.19
   3  17  -9  185.76   14.63
  -3  17  -9  176.79   14.63
  -3  17  -7  130.37   12.51
   3  17  -7  122.61   11.47
  -3  17  -5   26.77    5.98
   3  17  -5   25.96    5.38
  -3  17  -3   -3.33    4.54
   3  17  -3   -3.84    3.58
   3  17  -1   98.98    9.23
  -3  17  -1  101.37   10.62
   3  17   1  103.66    9.13
  -3  17   1  112.26   11.17
   3  17   3    6.18    3.28
  -3  17   3   -0.57    3.63
  -3  17   5   28.91    5.87
   3  17  21  102.14   20.54
  -3  17  21  121.09   21.49
  -3  17  23   16.92    7.96
   3  17  23   13.68   10.76
  -3  17  25  -10.04   11.19
   3  17  25   11.55   10.59
   3  17  27   23.88   11.11
  -3  17  27   23.46    9.73
   3  17  29   20.84   10.93
  -3  17  29   12.78    8.67
   3  17  31    6.29    7.52
  -3  17  31    9.38    7.70
   3  17  33    5.11    6.28
  -3  17  33   -8.88    6.48
  -3  17  35   30.69    9.97
   3  17  35   18.52    8.39
   3  17  37    4.86    5.03
  -3  19 -21   54.07   11.75
   3  19 -21   45.40   11.22
  -3  19 -19   55.94   11.51
   3  19 -19   51.27   11.20
  -3  19 -17    3.29    5.93
   3  19 -17    4.07    5.70
  -3  19 -15   34.50    9.39
   3  19 -15   29.21    7.93
  -3  19 -13    4.85    6.00
   3  19 -13    6.92    5.32
   3  19 -11    2.74    4.31
  -3  19 -11    4.38    4.52
  -3  19  -9  248.45   18.75
   3  19  -9  264.79   18.58
  -3  19  -7  144.22   13.77
   3  19  -7  139.34   12.76
   3  19  -5  112.90   11.11
  -3  19  -5  109.80   11.95
  -3  19  -3    3.95    3.93
   3  19  -3    5.68    3.12
   3  19  -1  118.40   10.66
  -3  19  -1  128.74   12.80
   3  19   1  129.83   11.06
  -3  19   1  129.56   12.77
  -3  19   3    4.38    4.18
  -3  19   5   82.19   11.54
  -3  19  19   52.55   14.62
   3  19  19   46.72   15.87
  -3  19  21   62.37   16.11
   3  19  21   38.98   13.14
   3  19  23  120.49   22.92
  -3  19  23   85.02   18.44
  -3  19  25   -5.72    9.97
   3  19  25   -1.80    8.73
  -3  19  27    4.15    7.61
   3  19  27    6.54    8.21
   3  19  29   17.75    9.86
  -3  19  29   19.72    9.13
  -3  19  31    8.04    6.55
   3  19  31    6.06    7.62
  -3  19  33    1.01    4.11
   3  19  33   -6.12    6.93
   3  19  35   13.71    7.36
  -3  21 -19   18.21    7.48
   3  21 -19   -4.88    5.72
   3  21 -17  -15.46    7.42
  -3  21 -17    0.82    5.14
   3  21 -15   20.18    6.52
  -3  21 -15   18.05    7.21
   3  21 -13   14.73    5.83
  -3  21 -13   29.81    8.48
  -3  21 -11    2.05    5.93
   3  21 -11   -0.37    3.67
  -3  21  -9   15.81    6.41
   3  21  -9    7.22    4.83
  -3  21  -7  266.42   20.08
   3  21  -7  254.11   18.16
  -3  21  -5  103.69   12.08
   3  21  -5   79.57    9.84
  -3  21  -3   10.27    5.48
   3  21  -3    4.92    4.00
  -3  21  -1   58.28   10.40
  -3  21   1   36.33   10.03
  -3  21   3   14.68    6.65
  -3  21   5   76.78   11.03
   3  21  15   30.37   13.21
   3  21  17    3.12   10.10
   3  21  19   17.09   11.01
   3  21  21  123.05   22.87
  -3  21  21   90.11   18.77
   3  21  23   56.63   16.80
  -3  21  23   38.91   13.73
  -3  21  25    3.04    6.98
   3  21  25   -0.39    7.81
  -3  21  27   -2.55    6.42
   3  21  27    7.86    7.48
  -3  21  29   22.20    8.86
   3  21  29   31.07   11.40
   3  21  31   -8.44    6.58
   3  21  31   -9.19    6.63
   3  21  33   13.04    6.66
   3  21  35    7.78    5.62
  -3  23 -17   -5.99    6.63
   3  23 -17  -18.22    7.24
  -3  23 -15   32.35    9.15
   3  23 -15   14.93    4.81
   3  23 -13   44.70   19.41
  -3  23 -13   46.80    9.76
   3  23 -13   46.66    9.56
   3  23 -11    9.64   14.17
  -3  23 -11   11.23    6.03
   3  23 -11    8.48    4.92
  -3  23  -9    0.74    5.58
   3  23  -9    4.87    4.19
   3  23  -7   95.97   11.15
  -3  23  -7   99.66   12.91
  -3  23  -5   31.93    7.28
  -3  23  -3   -2.82    5.03
  -3  23  -1   46.06    8.97
  -3  23   1   27.41    7.86
  -3  23   3   -1.20    4.44
   3  23  11   -5.39    7.09
   3  23  13   32.31    8.73
   3  23  13   47.32   15.31
   3  23  15   26.77   10.82
   3  23  15   43.12   15.19
   3  23  17   -6.59    8.66
   3  23  19   13.51   10.82
   3  23  21   30.09   13.14
   3  23  23   30.19   12.99
   3  23  25   -8.65    8.41
   3  23  27    6.52    6.95
   3  23  29   10.78    7.48
   3  23  31  -21.41    6.52
   3  23  31   -7.96    6.32
   3  23  33    7.45    4.93
   3  25 -15   28.44   14.15
   3  25 -13   14.47   13.64
  -3  25 -13   10.88    7.25
   3  25 -11   11.19   15.75
  -3  25 -11   32.51    9.29
   3  25  -9   27.66   16.84
  -3  25  -9   18.10    7.02
   3  25  -7   31.86   16.69
  -3  25  -7   13.09    6.42
   3  25  -5   29.01   16.96
  -3  25  -5    6.65    5.13
   3  25  -3   31.20   19.35
  -3  25  -3    9.24    5.62
   3  25  -1   68.27   23.77
  -3  25  -1   56.78   10.51
   3  25   1   55.12   20.99
  -3  25   1   48.15    9.82
   3  25   3    1.61    6.73
   3  25   3  -11.82   11.32
  -3  25   3   -2.23    5.05
   3  25   5   13.79    7.39
   3  25   5   16.65   12.07
   3  25   7    4.01    6.52
   3  25   7   -3.82   11.72
   3  25   9   18.76    7.53
   3  25  11   10.83    5.86
   3  25  13   -2.21    8.14
   3  25  13   21.86   10.81
   3  25  15   35.47   13.27
   3  25  17  -14.09   11.79
   3  25  19   16.53   10.84
   3  25  21   14.59    9.18
   3  25  23   15.37   10.69
   3  25  25   -9.27    8.74
   3  25  27   24.92   10.10
   3  25  29   13.29    7.41
   3  25  31    4.57    4.86
   3  27 -13    6.70   13.18
   3  27 -11  -25.53   21.03
   3  27  -9    2.38   16.52
  -3  27  -9    3.27    5.17
   3  27  -7   15.43   15.79
  -3  27  -7   10.16    6.79
   3  27  -5    0.38   12.97
  -3  27  -5    5.23    4.52
   3  27  -3   -2.51   15.01
  -3  27  -3    3.33    4.60
   3  27  -1   32.07   20.44
  -3  27  -1   47.05    9.63
   3  27   1   73.28   15.48
   3  27   1   43.98   19.79
  -3  27   1   54.51    9.97
   3  27   3   -5.84    6.48
   3  27   3  -12.06   14.75
   3  27   5    9.84    7.58
   3  27   7   14.12    8.70
   3  27   9   -8.35    8.21
   3  27  11  -13.04    9.51
   3  27  13   20.33    8.61
   3  27  13   28.78   13.95
   3  27  15   11.40   10.83
   3  27  17    8.60    9.40
   3  27  19    3.79    8.87
   3  27  21   47.46   13.12
   3  27  23    2.95    7.09
   3  27  25   -2.13    6.29
   3  27  27   22.55    8.19
   3  27  29   -1.30    4.06
   3  27  29   -4.07    4.86
   3  29  -9   -6.61   13.59
   3  29  -7   -9.02   15.71
   3  29  -5  -16.19   18.50
   3  29  -3    1.18    6.57
   3  29  -3   -8.60   17.35
   3  29  -1   13.22    8.52
   3  29  -1   -1.10   13.23
   3  29   1   20.02    8.17
   3  29   3    6.07    6.61
  -3  29   5    6.03    6.02
   3  29   5    9.83    7.55
   3  29   7    1.03    6.69
   3  29   9    6.72    6.40
   3  29  11   -7.35    7.94
   3  29  11    2.78    9.01
   3  29  13   14.00    9.62
   3  29  15   39.29   13.13
   3  29  17   20.30   10.53
   3  29  19    0.15    7.45
   3  29  21   15.88    8.07
   3  29  23    4.41    6.72
   3  29  25   -0.49    5.82
   3  29  27   11.77    5.89
   3  31 -17   11.00    6.55
   3  31 -15   13.34    6.92
   3  31 -13   22.08    8.72
   3  31 -11    1.38    5.28
   3  31  -9    7.81    6.35
   3  31  -7   34.36   10.79
   3  31  -5   -7.18    7.46
   3  31  -3   -3.83    7.10
   3  31  -1   30.64   10.55
   3  31   1   24.93   10.11
  -3  31   3    1.90    5.51
   3  31   3    3.67    6.32
   3  31   5   -5.27    7.13
  -3  31   5    1.50    4.72
   3  31   7   25.07    9.20
   3  31   9   23.88    8.20
   3  31   9    2.88    7.48
   3  31  11   -2.81    6.15
   3  31  11    1.89    6.64
   3  31  13   19.63   10.27
   3  31  15   20.60    9.60
   3  31  17    9.72    7.53
   3  31  19    3.48    5.44
   3  31  21    6.75    6.04
   3  31  23   13.12    6.17
   3  33 -17   -3.55    3.75
   3  33 -15   12.23    6.57
   3  33 -13   13.61    6.12
   3  33 -11    5.21    5.38
   3  33  -9    6.94    6.19
   3  33  -7   26.94    9.46
   3  33  -5   -0.57    6.21
   3  33  -3   -8.69    7.26
  -3  33  -1   16.10    8.68
   3  33  -1    7.31    7.64
  -3  33   1   10.46    7.24
   3  33   1    7.53    6.21
  -3  33   3   -5.63    6.30
   3  33   3    2.32    5.69
   3  33   5   -8.57    7.09
  -3  33   5    1.07    5.80
   3  33   7   25.25    8.52
   3  33   7   20.28   10.48
   3  33   9   14.63    6.86
   3  33   9    5.93    8.64
   3  33  11    8.59    7.82
   3  33  13   -7.51    6.68
   3  33  15   11.50    7.72
   3  33  17   -2.05    5.82
   3  33  19    4.96    5.08
   3  33  21    3.94    4.28
  -3  35 -17   -2.70    3.99
   3  35 -15    7.05    4.93
   3  35 -13    8.76    4.93
   3  35 -11   -7.91    6.76
   3  35  -9   -7.51    5.59
   3  35  -7   16.49    7.24
  -3  35  -7   15.15    6.37
   3  35  -5    9.88    6.29
  -3  35  -5    0.24    4.82
  -3  35  -3   -8.22    5.90
   3  35  -3    4.93    4.54
  -3  35  -1    1.83    4.90
   3  35  -1    2.98    4.75
   3  35   1  -10.57    6.47
  -3  35   1   -7.55    6.76
   3  35   3   -3.23    7.19
  -3  35   3   -8.85    5.04
  -3  35   5   13.37    5.99
   3  35   5   10.45    6.43
   3  35   5   16.12    9.48
   3  35   7    7.09    5.00
   3  35   7   21.06    9.06
   3  35   9   -3.15    6.56
   3  35  11   -3.42    6.69
   3  35  13   -5.24    6.57
   3  35  15   -1.42    4.57
   3  35  17    6.80    4.53
   3  37 -11   -0.40    3.24
  -3  37 -11    5.31    4.28
  -3  37  -9   -4.00    4.00
   3  37  -9   -3.31    4.80
  -3  37  -7   -3.18    5.15
   3  37  -7   -1.46    4.16
  -3  37  -5    0.11    4.20
   3  37  -5    7.29    5.22
  -3  37  -3    1.50    4.15
   3  37  -3    0.32    3.83
  -3  37  -1   -9.68    5.91
   3  37  -1    0.18    4.11
  -3  37   1    0.03    4.07
   3  37   1    2.13    4.83
   3  37   3   -4.38    4.63
  -3  37   3   -1.20    4.13
   3  37   3    1.35    5.33
   3  37   5   14.37    7.23
   3  37   7    8.62    6.75
   3  37   9    5.74    5.02
   3  37  11    1.22    4.14
   4   0 -30  152.39   18.25
   4   0 -28  265.48   23.52
   4   0 -26   25.71    8.62
  -4   0 -24  145.61   14.90
   4   0 -24  120.53   14.56
  -4   0 -22  665.58   29.57
   4   0 -22  605.07   29.83
  -4   0 -20  684.21   27.91
   4   0 -20  643.03   29.37
  -4   0 -18  768.49   27.26
  -4   0 -16  450.86   19.41
  -4   0 -14    1.94    2.70
  -4   0 -12    1.51    2.31
  -4   0 -10 1564.63   26.06
  -4   0  -8  170.34    6.73
  -4   0  -8  162.24    7.38
  -4   0  -6 3520.91   26.21
  -4   0  -6 3486.94   33.95
  -4   0  -4  632.02   10.99
  -4   0  -4  672.35   15.71
  -4   0  -2 1779.75   25.28
  -4   0   0  377.46   11.79
  -4   0   2 1857.18   25.26
  -4   0   4  720.30   16.23
  -4   0   6 3433.80   33.70
   4   0   6 3415.93   37.48
  -4   0   8  168.11    7.59
   4   0   8  174.33    8.82
   4   0  10 1510.09   22.97
   4   0  10 1544.48   27.06
   4   0  12    3.71    2.32
   4   0  12    4.49    2.51
   4   0  14   -1.61    2.52
  -4   0  28  232.18   31.71
   4   0  28  235.68   29.65
  -4   0  30  136.42   25.49
   4   0  30  120.75   21.28
  -4   0  32   72.62   18.37
   4   0  32   70.72   17.59
  -4   0  34  156.43   25.17
   4   0  34  137.75   23.09
  -4   0  36   39.96   13.04
   4   0  36   55.30   14.73
   4   0  38   62.15   10.60
   4   0  38   22.54    9.43
   4   0  40   -0.13    3.38
   4   2 -30    7.23    5.48
   4  -2 -30    2.96    5.07
   4   2 -28    9.62    7.66
   4  -2 -28    2.24    5.85
   4   2 -26    8.66    6.70
   4  -2 -26    1.11    4.98
  -4   2 -26   13.30    6.73
  -4   2 -24  158.94   15.71
   4   2 -24  134.37   15.47
   4  -2 -24  139.63   15.48
  -4  -2 -22  433.82   23.70
  -4   2 -22  411.49   23.46
   4   2 -22  368.11   23.37
   4  -2 -22  417.74   25.16
  -4   2 -20  511.34   24.46
  -4  -2 -20  520.92   24.53
   4   2 -20  512.19   26.08
  -4   2 -18  415.00   20.71
  -4  -2 -18  417.56   20.00
   4   2 -18  415.30   22.45
  -4  -2 -16   15.97    4.96
   4   2 -16    9.05    4.93
  -4   2 -16   14.66    4.20
  -4  -2 -14    9.81    3.61
   4   2 -14    8.49    4.21
  -4   2 -14    8.09    3.23
  -4  -2 -12   25.57    3.08
  -4  -2 -12   35.25    5.22
  -4  -2 -12   25.37    4.21
  -4   2 -12   24.80    4.42
  -4   2 -10   61.03    5.88
  -4  -2 -10   64.49    4.93
  -4  -2  -8 1112.66   20.64
  -4  -2  -8 1096.67   19.95
   4  -2  -6  234.31    9.43
  -4  -2  -4  704.45   15.01
   4  -2  -4  678.44   15.92
   4  -2   4  684.54   15.54
  -4   2   6  221.66   10.85
   4  -2   6  234.91    9.34
  -4  -2   6  211.97    8.90
  -4  -2   8 1064.55   19.48
   4   2   8 1036.12   22.16
  -4   2  10   65.17    7.62
   4   2  10   59.30    5.68
  -4  -2  10   64.01    4.96
   4  -2  10   61.21    3.97
   4   2  10   60.82    5.96
   4  -2  10   64.18    5.95
   4   2  12   19.99    4.31
   4   2  12   26.66    4.68
   4  -2  12   27.67    4.61
   4  -2  14    5.18    2.91
   4   2  14    5.61    2.97
   4   2  16   18.09    4.55
   4  -2  28    3.42    7.09
   4   2  28    4.19    7.66
  -4  -2  28    3.99   10.90
  -4   2  28   12.99   11.02
  -4  -2  30    8.86   10.10
  -4   2  30    5.07    8.27
   4   2  30   11.43   11.68
   4  -2  30   10.07    8.95
  -4   2  32  109.00   22.09
  -4  -2  32  107.36   23.35
   4  -2  32  127.51   23.42
   4   2  32  113.16   20.29
   4   2  34   41.28   12.66
  -4  -2  34   51.22   16.19
   4  -2  34   53.66   14.77
  -4   2  34   45.59   14.77
   4  -2  36   84.00   16.69
  -4   2  36   91.54   18.75
   4   2  36   75.10   17.01
   4   2  38   13.37    7.46
   4   2  40   -4.14    4.25
   4  -4 -30   46.94   10.78
   4   4 -30   46.44   10.78
   4   4 -28   -5.49    7.09
   4  -4 -28   -1.44    6.23
  -4   4 -28   -5.16    6.06
   4   4 -26   13.20    7.06
   4  -4 -26    3.48    4.73
  -4   4 -26    8.05    5.26
   4   4 -24   30.04    8.77
   4  -4 -24   43.15   10.13
  -4   4 -24   30.03    8.03
  -4   4 -22  197.38   16.92
   4   4 -22  212.72   18.98
  -4   4 -20  232.03   17.08
   4   4 -20  263.70   19.35
   4   4 -18    3.70    4.26
  -4  -4 -18    2.16    3.72
  -4   4 -18   -4.84    4.92
  -4   4 -16  296.30   16.49
  -4  -4 -16  291.64   15.54
   4   4 -16  309.59   18.18
  -4   4 -14  175.45   11.55
  -4  -4 -14  175.78   11.64
   4   4 -14  185.43   13.32
  -4  -4 -14  184.56   11.29
  -4  -4 -12    8.96    4.13
   4   4 -12    2.66    3.78
  -4  -4 -12   -0.34    2.58
  -4   4 -12    1.32    2.82
  -4  -4 -10   18.01    4.24
   4   4 -10    8.61    3.39
  -4   4 -10   10.04    3.25
   4  -4 -10    9.77    2.61
   4   4  -8 1286.00   25.86
   4  -4  -8 1265.86   22.98
  -4   4  -8 1242.59   24.04
  -4  -4  -8 1268.76   25.69
   4  -4  -6   15.02    3.93
  -4  -4  -6   36.31    6.32
  -4  -4  -4  827.11   19.63
   4  -4  -4  822.11   18.18
  -4   4  -2  108.80    4.60
  -4   4   0 2783.42   25.43
  -4   4   2  121.66    7.56
  -4   4   4  876.23   19.91
   4  -4   4 1095.53   20.08
  -4   4   6   13.07    4.30
   4  -4   6  120.70    8.48
   4  -4   8 1197.70   21.26
   4   4   8 1252.02   25.44
   4   4  10    9.20    2.93
   4  -4  10   10.02    2.72
   4   4  10    8.99    3.43
   4   4  12    2.12    2.80
   4   4  12    6.51    3.31
   4   4  14  153.16   11.27
   4  -4  14  175.45   10.09
   4   4  14  171.33   10.78
   4   4  16  277.06   13.84
   4  -4  28    3.82    9.62
  -4   4  28    5.46    7.44
   4   4  28    1.69    7.80
  -4  -4  28   -5.93   12.64
   4  -4  30   15.61   11.14
  -4  -4  30   31.90   15.20
  -4   4  30   57.32   17.27
   4   4  30   49.91   14.86
  -4  -4  32   -4.88   11.12
   4  -4  32   -8.61    9.95
  -4   4  32   -5.31    7.84
   4   4  32   -5.72    7.21
   4  -4  34   22.92   11.05
   4   4  34   42.12   12.27
  -4   4  34   33.60   13.54
  -4   4  36   15.86    9.57
   4   4  36   14.88    7.91
  -4   4  38   -3.15    6.57
   4   4  38    9.25    7.41
   4   4  40    0.09    3.82
   4   4  40    3.56    5.30
   4  -6 -28   -5.30    7.58
  -4   6 -28    4.40    5.25
   4   6 -28    2.40    4.91
   4  -6 -26   26.19    8.12
  -4   6 -26   21.29    7.27
   4   6 -26   23.40    7.66
   4   6 -24    0.53    5.00
  -4   6 -24   -2.37    4.47
   4   6 -22   39.99    9.09
  -4   6 -22   24.70    7.83
   4   6 -20   50.17    9.73
  -4   6 -20   30.21    8.52
   4   6 -18  282.73   18.90
  -4   6 -18  267.77   17.55
   4   6 -16  245.53   16.51
  -4   6 -16  267.53   16.44
   4   6 -14 1466.00   36.74
  -4   6 -14 1459.41   35.27
   4   6 -12  161.18   11.50
  -4  -6 -12  164.57   11.85
  -4   6 -12  164.16   11.08
   4  -6 -10   37.07    4.75
   4   6 -10   36.84    6.15
  -4  -6 -10   36.10    5.75
  -4   6 -10   36.56    5.59
   4   6  -8  382.85   15.26
  -4   6  -8  401.23   15.51
   4   6  -6    9.06    3.32
  -4   6  -6   11.64    3.78
  -4  -6  -6   13.01    4.00
  -4   6  -4  679.96   17.29
  -4  -6  -4  687.98   20.11
   4  -6  -2  442.18   13.19
  -4   6  -2  457.83   13.49
   4  -6   0 6470.12   43.96
  -4   6   0 6387.44   51.72
  -4   6   0 6447.39   45.51
   4   6   0 6449.23   51.07
   4  -6   2  450.86    9.71
  -4   6   2  452.19   14.18
   4  -6   4  585.24    7.97
  -4   6   4  643.17   17.82
  -4   6   4  612.34   17.08
  -4   6   6   13.88    4.07
   4   6   6   10.86    3.67
  -4   6   8  405.94   17.84
   4  -6   8  382.84   13.38
   4   6   8  372.61   14.87
   4  -6  10   33.36    4.20
   4   6  10   33.17    5.34
   4   6  12  156.12   10.47
   4   6  14 1322.61   30.92
   4   6  16  225.10   13.29
   4  -6  26    5.82    7.76
  -4  -6  26   20.22   13.25
   4   6  26   21.05   11.99
  -4  -6  28   -0.32    8.78
   4  -6  28   12.33    8.03
  -4   6  28   17.11   13.13
   4   6  28   18.27   10.68
   4  -6  30   47.52   14.67
   4   6  30   99.58   20.14
  -4   6  30   77.82   18.71
   4  -6  32   39.25   13.11
  -4   6  32   65.93   17.87
   4   6  32   71.91   16.69
  -4   6  34  -10.57    9.29
   4   6  34   -2.53    7.54
  -4   6  36    0.63    8.26
   4   6  36   -2.79    6.47
   4   6  38   -1.43    7.23
  -4   6  38   -6.33    6.93
   4   6  40   14.51    4.95
   4   6  40   -2.28    5.28
   4   8 -28  134.27   16.68
   4  -8 -28  142.45   17.65
  -4   8 -28  139.02   16.45
  -4   8 -26   16.82    6.71
   4   8 -26   10.27    6.68
  -4   8 -24   18.81    6.74
   4   8 -24   17.89    6.38
  -4   8 -22   10.65    5.65
   4   8 -22    8.94    5.69
   4   8 -20   97.61   12.50
  -4   8 -20  103.92   13.13
   4   8 -18  142.64   13.95
  -4   8 -18  155.84   14.82
   4   8 -16  645.61   26.90
  -4   8 -16  665.68   26.61
   4   8 -14  914.88   29.99
  -4   8 -14  908.01   29.39
   4   8 -12 1617.77   36.73
  -4   8 -12 1568.01   35.14
  -4   8 -10    8.06    4.15
   4   8 -10    6.56    3.82
  -4   8  -8    3.17    3.08
   4   8  -8    1.46    2.90
   4   8  -6  220.67   10.58
   4  -8  -6  238.00   13.27
  -4   8  -6  236.84   12.19
  -4  -8  -6  222.21   13.53
  -4   8  -4   54.50    6.17
  -4  -8  -4   38.19    6.14
   4   8  -4   50.59    4.86
   4  -8  -4   44.19    5.73
   4   8  -4   51.56    5.08
   4  -8  -2  923.37   22.02
  -4   8  -2  883.93   21.30
   4   8  -2  892.65   20.34
  -4   8   0 1271.03   25.30
  -4   8   0 1201.42   22.80
   4  -8   0 1284.77   23.05
   4   8   0 1248.95   25.19
   4  -8   2  892.11   17.11
  -4   8   2  903.84   21.61
   4   8   2  909.25   22.19
  -4   8   2  899.17   21.88
  -4   8   4   41.15    5.87
   4  -8   4   43.66    3.64
  -4   8   4   43.13    5.71
   4   8   4   46.47    5.74
   4   8   6  210.85   11.68
   4   8   8    4.98    3.77
   4   8  10    5.30    3.54
   4   8  12 1481.19   33.50
   4   8  14  820.87   25.69
   4   8  16  549.69   21.69
   4   8  26   31.34   13.63
   4  -8  26   20.58   11.22
  -4   8  26   23.42   12.79
   4  -8  28   69.31   16.50
  -4   8  28  138.23   23.67
   4   8  28  138.20   23.45
  -4   8  30   85.33   18.46
   4   8  30  124.69   22.60
  -4   8  32   37.48   13.54
   4   8  32   30.70   12.02
  -4   8  34   -4.03    9.04
   4   8  34    1.29    6.57
  -4   8  36  -15.27    9.43
   4   8  36   -4.97    8.26
  -4   8  38   -1.84    6.20
   4   8  38   -3.03    6.88
   4   8  40   54.18    8.78
   4   8  40   15.29    6.80
  -4  10 -28  279.20   23.93
   4 -10 -28  264.74   23.96
   4  10 -28  231.58   21.98
  -4  10 -26   89.71   13.49
   4  10 -26   80.86   13.16
  -4  10 -24    4.49    5.13
   4  10 -24   10.47    6.54
  -4  10 -22   14.22    5.83
   4  10 -22    0.56    4.53
  -4  10 -20    8.48    5.63
   4  10 -20   12.83    6.35
   4  10 -18  147.01   14.46
  -4  10 -18  155.60   14.87
   4  10 -16  339.63   20.39
  -4  10 -16  336.29   19.81
   4  10 -14  764.99   28.45
  -4  10 -14  740.81   27.53
   4  10 -12  780.00   27.38
  -4  10 -12  765.56   27.59
   4  10 -10  367.94   17.22
  -4  10 -10  443.57   19.93
  -4  10  -8   24.59    5.57
   4  10  -8   21.71    5.00
   4 -10  -6   90.85    9.05
  -4  10  -6  104.16    8.74
   4  10  -6   99.31    8.00
   4  10  -4  184.66    9.70
  -4 -10  -4  173.01   12.65
  -4  10  -4  165.78   10.59
   4 -10  -4  184.53   11.80
   4 -10  -2  377.23   15.45
  -4  10  -2  331.77   14.67
   4  10  -2  362.21   12.66
  -4 -10  -2  356.70   18.46
  -4  10   0   80.94    7.45
   4 -10   0   78.27    6.84
   4  10   0   80.43    7.10
  -4  10   2  356.86   15.29
   4 -10   2  344.25   12.33
   4  10   2  355.55   15.07
  -4  10   2  359.29   15.16
   4 -10   4  156.86    7.76
  -4  10   4  158.23   11.11
   4  10   4  170.45   11.08
  -4  10   4  170.44   10.77
   4  10   6   88.37    8.30
   4  10   8   24.76    5.52
   4  10  10  357.04   17.26
   4  10  12  735.46   24.95
   4  10  14  679.13   24.71
   4  10  26   90.90   20.18
  -4  10  26   71.87   17.04
   4  10  28  252.70   30.71
  -4  10  28  235.92   29.82
  -4  10  30   85.04   18.19
   4  10  30   78.38   17.61
   4  10  32   17.88    9.58
  -4  10  32    8.02    7.54
  -4  10  34   -6.92    7.34
   4  10  34   -5.72    6.24
  -4  10  36   -7.48    9.52
   4  10  36  -15.47    8.99
  -4  10  38   -2.08    5.63
   4  10  38  -18.96    9.80
   4  10  40   28.98    6.43
   4  10  40   25.22    7.76
  -4  12 -26  188.63   20.06
   4  12 -26  158.18   18.87
  -4  12 -24    0.57    5.49
   4  12 -24    3.35    4.94
  -4  12 -22   -0.15    5.41
   4  12 -22    1.85    4.76
  -4  12 -20    5.19    5.56
   4  12 -20    7.29    5.19
  -4  12 -18   11.81    7.02
   4  12 -18   -1.47    4.05
  -4  12 -16  285.22   20.23
   4  12 -16  250.94   18.40
  -4  12 -14  410.41   23.14
   4  12 -14  411.64   22.14
  -4  12 -12  330.61   19.40
   4  12 -12  296.24   19.17
  -4  12 -10  334.62   19.01
   4  12 -10  310.44   16.94
  -4  12  -8    2.03    4.87
   4  12  -8   -0.14    4.03
  -4  12  -6    1.07    3.43
   4  12  -6    1.57    2.90
   4 -12  -4   98.71    9.42
  -4  12  -4   89.38    8.40
   4  12  -4   97.63    7.99
   4  12  -2   22.24    4.25
   4 -12  -2   25.80    5.46
  -4  12  -2   30.38    6.26
   4 -12   0   49.97    6.56
  -4  12   0   46.40    7.73
   4  12   0   40.57    4.77
   4 -12   2   28.32    4.76
   4  12   2   21.80    3.53
  -4  12   4   89.37    8.85
   4  12   6    1.92    3.44
   4  12   8   -2.14    4.53
  -4  12  24    4.86   10.82
   4  12  24  -12.13    9.22
   4  12  26  160.63   25.69
  -4  12  26  162.70   24.47
  -4  12  28  148.38   24.49
   4  12  28  200.87   27.86
  -4  12  30   46.73   15.43
   4  12  30   34.62   12.39
  -4  12  32   -6.64    6.33
   4  12  32   -4.43    6.68
  -4  12  34   -5.05    7.65
   4  12  34   21.84    9.81
  -4  12  36   -3.51    6.79
   4  12  36    5.20    7.25
  -4  12  38  -10.22    6.03
   4  12  38   13.05    6.50
  -4  14 -26   66.86   12.59
   4  14 -26   62.82   11.58
  -4  14 -24   -6.29    7.26
   4  14 -24    1.80    5.23
  -4  14 -22   88.32   12.90
   4  14 -22  103.61   14.48
   4  14 -20   78.39   12.57
  -4  14 -20  106.31   14.25
  -4  14 -18   40.42    8.93
   4  14 -18   47.34    9.18
   4  14 -16   40.80    8.04
  -4  14 -16   47.06    9.24
  -4  14 -14  182.02   17.18
   4  14 -14  164.98   15.47
  -4  14 -12   40.85    8.79
   4  14 -12   39.01    8.28
  -4  14 -10    5.01    4.21
   4  14 -10    5.55    5.06
  -4  14  -8   49.51    7.57
   4  14  -8   52.97    7.01
   4  14  -6   22.88    4.99
  -4  14  -6   25.81    5.06
   4  14  -4   -0.16    3.27
  -4  14  -4    2.97    3.38
   4  14  -2   90.96    7.62
  -4  14  -2   96.19    9.46
   4  14   0  237.46   11.74
  -4  14   0  250.62   14.82
  -4  14   2  107.68    9.96
  -4  14   4   -8.37    4.28
   4  14  22  129.09   23.24
  -4  14  24   -1.21    7.59
   4  14  24    2.33    7.64
   4  14  26   39.23   12.80
  -4  14  26   47.68   12.87
   4  14  28   67.57   18.07
  -4  14  28   55.97   14.66
   4  14  30   13.78   11.40
  -4  14  30    3.55    8.05
   4  14  32    9.14    9.67
  -4  14  32    8.18    8.35
  -4  14  34   48.56   12.21
   4  14  34   67.08   15.45
  -4  14  36   17.02    7.48
   4  14  36   11.42    6.69
   4  14  38    3.70    4.87
  -4  16 -24   19.02    7.31
   4  16 -24   19.91    7.53
  -4  16 -22  230.09   21.25
   4  16 -22  225.29   21.89
  -4  16 -20  325.35   24.63
   4  16 -20  293.53   23.24
  -4  16 -18   23.89    7.80
   4  16 -18   18.09    7.21
  -4  16 -16    0.11    5.57
   4  16 -16   -0.22    4.45
  -4  16 -14    4.97    5.89
   4  16 -14   10.17    4.43
  -4  16 -12   32.88    7.94
   4  16 -12   38.06    7.29
  -4  16 -10  158.70   14.65
   4  16 -10  160.38   13.70
  -4  16  -8  317.96   18.75
   4  16  -8  343.21   18.22
   4  16  -6   64.01    7.52
  -4  16  -6   57.40    8.44
  -4  16  -4  619.09   24.54
   4  16  -4  584.62   21.62
  -4  16  -2    6.11    3.94
   4  16  -2    9.57    3.49
  -4  16   0    3.04    3.94
  -4  16   2    7.98    4.92
  -4  16   4  634.19   25.62
   4  16  20  320.30   34.01
   4  16  22  228.62   30.22
   4  16  24   45.72   14.90
   4  16  26   -9.43   10.18
  -4  16  26   -6.76    8.22
   4  16  28  -15.33   10.84
  -4  16  28    0.42    7.63
   4  16  30   -2.67    6.90
  -4  16  30  -12.16    7.81
  -4  16  32   25.28   10.01
   4  16  32   21.27    9.97
   4  16  34   28.52   10.60
   4  16  36   48.45   11.41
   4  18 -22  217.93   21.00
  -4  18 -22  236.40   22.22
  -4  18 -20  267.57   23.14
   4  18 -20  265.99   23.00
  -4  18 -18   22.32    9.15
   4  18 -18   11.68    5.72
  -4  18 -16   11.49    7.17
   4  18 -16   14.27    6.77
  -4  18 -14   11.12    6.57
   4  18 -14    6.36    5.06
   4  18 -12   28.46    7.43
  -4  18 -12   37.78    8.54
  -4  18 -10  275.40   19.39
   4  18 -10  257.55   17.89
  -4  18  -8  425.93   23.58
   4  18  -8  412.59   21.27
  -4  18  -6  443.64   23.16
   4  18  -6  421.87   20.41
  -4  18  -4  176.98   14.35
   4  18  -4  176.70   12.77
  -4  18  -2    1.65    4.03
  -4  18   0   14.07    5.51
  -4  18   2    0.88    4.19
  -4  18   4  179.69   14.87
   4  18  18   24.08   13.58
   4  18  20  341.11   36.22
   4  18  22  251.88   31.97
   4  18  24   72.28   17.92
   4  18  26   42.01   14.09
   4  18  28    5.01    7.18
   4  18  30    1.82    7.93
   4  18  32   21.88    9.20
   4  18  34   36.41   11.34
   4  18  36   42.11    9.99
   4  20 -20   86.91   13.87
  -4  20 -20  108.24   15.81
  -4  20 -18   16.55    8.17
   4  20 -18   20.90    7.76
   4  20 -16   10.82    6.04
  -4  20 -16    7.76    6.29
   4  20 -14   19.42    6.56
  -4  20 -14   13.87    6.93
   4  20 -12   -2.79    4.82
  -4  20 -12    2.70    5.52
   4  20 -10   56.11    8.98
  -4  20 -10   60.15   10.23
  -4  20  -8  322.49   21.64
   4  20  -8  325.44   19.94
  -4  20  -6  347.79   21.50
  -4  20  -4   39.39    7.62
  -4  20  -2   -5.27    4.81
  -4  20   0   74.96   10.20
  -4  20   2   -7.64    4.27
  -4  20   4   27.37    7.98
   4  20  16    8.79    9.62
   4  20  18   15.15   11.61
   4  20  20  101.87   21.85
   4  20  22   95.30   19.93
   4  20  24  139.80   23.78
   4  20  26    1.43    7.48
   4  20  28   -6.67    7.39
   4  20  30   -9.52    8.81
   4  20  32   14.56    7.89
   4  20  34   25.69    8.96
   4  22 -18   79.88   12.23
  -4  22 -18   99.19   14.44
   4  22 -16   44.34    9.21
  -4  22 -16   60.29   11.61
  -4  22 -14   -1.22    5.77
   4  22 -14  -10.64    6.94
   4  22 -14   10.63   12.18
  -4  22 -12  123.41   15.47
  -4  22 -10   19.55    7.37
  -4  22  -8   61.15   10.62
  -4  22  -6  138.83   14.92
  -4  22  -4    2.82    5.13
  -4  22  -2    9.78    5.76
  -4  22   0   58.71   10.86
  -4  22   2    5.66    6.41
  -4  22   4    0.11    4.22
   4  22  14   -9.39    8.13
   4  22  14    7.21    7.04
   4  22  16   63.30   16.44
   4  22  18  120.57   22.91
   4  22  20  -16.55   11.79
   4  22  22   65.63   17.67
   4  22  24   29.37   12.90
   4  22  26  -10.32    9.13
   4  22  28   10.78    8.63
   4  22  30   -5.06    5.98
   4  22  30   -6.76    7.49
   4  22  32    0.15    3.54
   4  22  32   -4.74    5.38
   4  22  34   14.36    5.96
   4  24 -14  160.29   33.16
  -4  24 -14  119.40   15.59
   4  24 -12   11.39   13.21
  -4  24 -12    6.30    5.31
   4  24 -10   75.29   24.91
  -4  24 -10   69.23   11.89
   4  24  -8   -2.02   11.35
  -4  24  -8   15.00    6.32
   4  24  -6   -0.79   13.18
  -4  24  -6    8.75    5.79
  -4  24  -4   -2.27    4.61
  -4  24  -2   28.73    8.15
  -4  24   0   49.02    9.74
  -4  24   2   22.77    7.23
   4  24   6    1.55    6.00
   4  24   8   10.07    6.76
   4  24  10   61.71   14.65
   4  24  12   -2.72    9.27
   4  24  14  130.40   19.33
   4  24  14  128.71   23.87
   4  24  16  -16.11   13.74
   4  24  18   -3.65   10.44
   4  24  20   10.97   10.09
   4  24  22   -3.33    8.06
   4  24  24  -11.20    9.05
   4  24  26   22.47    9.22
   4  24  28   41.96   11.88
   4  24  30   -1.35    4.66
   4  24  30    7.20    6.28
   4  24  32    8.29    6.02
   4  26 -16    3.29   12.40
   4  26 -14   92.62   24.67
   4  26 -12   41.64   18.74
   4  26 -10   33.74   20.30
  -4  26 -10   19.22    7.64
   4  26  -8   17.69   17.16
  -4  26  -8   18.38    8.53
   4  26  -6   11.86   16.62
  -4  26  -6    3.83    4.74
   4  26  -4  -10.89   13.98
  -4  26  -4   -2.30    4.28
   4  26  -2   84.40   15.54
   4  26  -2   91.43   28.69
  -4  26  -2   69.97   12.00
   4  26   0   89.49   16.49
   4  26   0   84.01   27.11
  -4  26   0   66.69   11.02
   4  26   2   80.59   15.99
   4  26   2   88.86   25.12
  -4  26   2   79.41   12.26
   4  26   4  -10.92    9.58
   4  26   4   -1.42   11.77
   4  26   6   -3.50    6.88
   4  26   6   -4.80   15.63
   4  26   8    6.72    7.38
   4  26  10   14.70    8.03
   4  26  12   62.67   13.77
   4  26  12   51.74   17.04
   4  26  14  138.72   24.39
   4  26  16   40.46   14.08
   4  26  18    7.35    9.10
   4  26  20   -2.11    6.92
   4  26  22   -1.04    6.95
   4  26  24    5.00    6.86
   4  26  26   29.55    9.14
   4  26  28   25.36    8.91
   4  26  30   17.96    7.04
   4  28 -14   42.71   17.29
   4  28 -12    3.95   12.11
   4  28 -10   -0.97   14.39
   4  28  -8  -11.82   15.29
   4  28  -6   12.46   12.94
   4  28  -4   -8.48    8.58
   4  28  -4  -12.06   15.03
   4  28  -2   65.73   15.00
   4  28  -2   66.00   24.17
  -4  28  -2   55.91   10.83
   4  28   0   61.05   14.26
   4  28   0   34.29   16.92
  -4  28   0   41.03    8.52
   4  28   2   83.34   15.93
   4  28   2   43.10   15.86
   4  28   4   -9.06    8.59
   4  28   4   -8.14   16.12
   4  28   6   20.22    9.60
   4  28   8  -10.60    9.20
   4  28  10   -5.08    7.16
   4  28  12   70.18   15.19
   4  28  12   78.93   18.17
   4  28  14  112.51   21.56
   4  28  16   82.75   18.32
   4  28  18   28.76   11.59
   4  28  20   -5.02    7.57
   4  28  22   -4.14    6.02
   4  28  24   -3.24    6.91
   4  28  26   37.19    9.97
   4  28  28    5.53    3.75
   4  28  28   19.58    7.21
   4  30 -16   37.35    9.53
   4  30 -14   62.96   12.47
   4  30 -12   38.43    9.98
   4  30 -10   -4.33    6.89
   4  30  -8    7.27    7.60
   4  30  -8  -11.94   16.70
   4  30  -6   -2.90    7.05
   4  30  -6  -28.60   21.35
   4  30  -4   11.28    7.21
   4  30  -4  -26.39   19.10
   4  30  -2    5.32    5.81
   4  30  -2  -18.20   19.70
   4  30   0   97.30   16.81
   4  30   2    7.44    7.64
  -4  30   4   18.79    8.21
   4  30   4   17.91    8.19
   4  30   6   -2.20    5.89
   4  30   8    4.29    5.66
   4  30  10   -3.75    6.24
   4  30  10   -0.49    8.19
   4  30  12   19.99   11.13
   4  30  14   46.66   13.20
   4  30  16   33.56   11.84
   4  30  18    5.35    7.18
   4  30  20    1.32    6.11
   4  30  22   -4.27    4.99
   4  30  24    3.21    5.30
   4  30  26    0.28    3.90
   4  32 -16   14.15    6.49
   4  32 -14    8.18    5.94
   4  32 -12    1.75    5.49
   4  32 -10   -9.31    6.64
   4  32  -8   36.18    9.85
   4  32  -6   10.74    7.30
   4  32  -4   -6.98    7.84
   4  32  -2    9.82    7.54
   4  32   0    8.86    7.05
   4  32   2   11.90    7.16
  -4  32   2   19.14    7.47
  -4  32   4    6.53    4.58
   4  32   4   -3.39    6.03
   4  32   6   17.84    8.35
   4  32   8   30.97    9.88
   4  32   8   24.18   11.89
   4  32  10   -5.19    6.41
   4  32  10    2.14    6.53
   4  32  12   -5.79    7.28
   4  32  14    1.75    6.42
   4  32  16   15.47    8.10
   4  32  18   -4.34    6.76
   4  32  20   10.36    6.57
   4  32  22   -0.37    4.73
   4  34 -14    3.46    3.95
   4  34 -12   -4.14    4.95
   4  34 -10   -0.53    5.20
   4  34  -8   33.29    9.35
   4  34  -6   31.33    9.23
   4  34  -4    3.79    5.20
  -4  34  -2   -1.33    6.15
   4  34  -2    2.97    4.60
  -4  34   0    4.70    5.42
   4  34   0  -10.41    7.19
   4  34   2   -4.09    6.16
  -4  34   2    1.79    4.97
   4  34   4    4.79    6.73
   4  34   6   37.14    9.92
   4  34   6   74.98   15.62
   4  34   8   37.18   11.88
   4  34  10    6.80    5.89
   4  34  12   -2.70    5.95
   4  34  14   16.19    8.02
   4  34  16   -4.46    5.80
   4  34  18    4.63    5.60
  -4  36 -14   -1.61    4.02
  -4  36 -12   -4.01    4.46
   4  36 -12   -2.13    3.78
  -4  36 -10    1.03    4.35
   4  36 -10   -0.76    3.99
  -4  36  -8   21.95    6.98
   4  36  -8   -1.18    5.19
   4  36  -6   31.23    7.70
  -4  36  -6   37.93    8.99
   4  36  -4   14.64    6.35
  -4  36  -4   22.39    7.49
  -4  36  -2  -12.96    6.96
   4  36  -2   -3.96    5.43
  -4  36   0   -1.49    4.68
   4  36   0   -0.76    4.50
   4  36   2   -5.82    5.65
  -4  36   2   -9.07    5.60
   4  36   4   13.48    6.58
   4  36   4   10.58    7.18
   4  36   6   38.31   10.62
   4  36   8    8.56    6.77
   4  36  10   -5.31    5.16
   4  36  12  -11.54    6.55
   4  36  14  -10.82    5.89
   4  38  -6    1.51    3.48
   4  38  -4    6.20    3.48
   4  38  -2   -0.42    3.73
   4  38  -2    4.83    5.03
   4  38   0   -4.42    3.50
   4  38   0    2.71    4.52
   4  38   2    1.47    4.66
   4  38   4    9.01    5.47
   5   1 -29   71.16   13.45
   5  -1 -29   71.67   13.17
   5   1 -27   29.10    9.76
   5  -1 -27   34.78   10.00
   5   1 -25  111.86   14.73
   5  -1 -25   98.06   14.30
   5   1 -23  358.78   24.40
   5  -1 -23  381.85   24.88
  -5   1 -21  904.15   33.24
   5   1 -21  866.23   36.07
   5  -1 -21  867.48   35.23
  -5   1 -19 1033.00   33.37
   5   1 -19 1023.09   36.11
  -5   1 -17  401.03   19.12
  -5  -1 -17  381.97   18.12
   5   1 -17  370.98   20.62
  -5  -1 -15    4.56    3.20
  -5   1 -15    1.61    3.11
  -5   1 -13  124.27    8.82
  -5  -1 -13  125.79    8.91
  -5   1 -11  467.37   15.47
  -5  -1 -11  488.35   15.04
  -5  -1  -9  774.78   16.49
  -5  -1  -9  723.59   17.63
  -5   1  -7 1372.40   13.61
  -5  -1  -7 1431.02   25.06
  -5  -1  -7 1384.03   20.28
  -5  -1  -5  253.58   11.18
  -5  -1  -5  236.92    8.51
  -5   1  -5  240.95   10.55
  -5  -1  -3 1210.71   22.98
  -5   1  -3 1273.39   23.68
  -5  -1  -1  666.05   17.47
  -5   1  -1  817.32   19.27
  -5  -1   1  830.52   18.94
  -5   1   1  708.77   17.68
  -5  -1   3 1245.02   24.10
  -5   1   3 1181.62   22.54
  -5  -1   5  248.39   10.96
  -5   1   5  245.11   10.64
  -5  -1   7 1371.94   24.82
   5   1   7 1399.40   26.62
  -5  -1   9  756.33   17.80
   5   1   9  746.10   20.19
   5  -1   9  723.45   20.28
   5   1  11  496.65   17.31
   5  -1  11  516.54   17.19
   5  -1  13  132.18    9.13
   5   1  13  125.62    8.99
   5   1  15    5.85    3.39
   5  -1  15    6.67    3.37
   5   1  27   39.84   14.69
  -5  -1  27   47.17   14.99
  -5   1  27   37.60   14.39
   5  -1  27   29.69   12.83
   5  -1  29   55.82   18.63
  -5  -1  29   72.99   20.00
  -5   1  29   60.45   18.62
   5   1  29   79.88   18.98
  -5  -1  31  127.47   25.37
   5   1  31  166.24   25.63
   5  -1  31  147.08   24.45
  -5   1  31  126.39   24.31
  -5  -1  33   84.02   20.16
  -5   1  33   95.71   20.95
   5  -1  33   94.96   19.44
   5   1  33  103.31   20.03
  -5   1  35  133.39   23.25
   5   1  35  110.21   19.14
   5  -1  35  139.31   21.93
   5   1  37  151.19   17.18
   5   1  37  109.36   18.58
   5  -1  37  152.23   16.88
   5   1  39   40.30    8.36
   5  -1  39   38.14    7.67
   5   3 -29   29.60    8.92
   5  -3 -29   31.65    8.54
   5   3 -27   46.14   11.05
   5  -3 -27   43.36    9.90
   5   3 -25    6.36    6.61
   5  -3 -25    0.93    4.73
  -5   3 -23  234.28   18.49
   5   3 -23  232.35   19.90
   5  -3 -23  231.25   20.53
  -5   3 -21  330.21   20.53
   5   3 -21  315.52   21.72
  -5   3 -19  296.16   18.01
   5   3 -19  306.18   20.37
   5   3 -17    6.89    4.58
  -5   3 -17    1.66    3.60
  -5   3 -15   69.35    7.52
   5   3 -15   74.17    8.94
   5   3 -13   28.48    5.69
  -5   3 -13   31.41    5.33
  -5  -3 -11   10.67    2.92
  -5  -3 -11   19.44    4.24
   5   3 -11   13.15    4.39
  -5   3 -11   10.74    3.47
   5  -3  -9  839.80   20.01
  -5  -3  -9  789.88   19.59
  -5  -3  -9  781.12   19.71
  -5   3  -9  765.64   19.25
   5  -3  -7  480.17   15.14
  -5  -3  -5  590.48   16.16
   5  -3  -5  556.85   16.34
  -5   3  -3 1379.30   10.21
   5  -3  -3 1181.58   23.48
  -5   3  -1  795.35   13.65
  -5   3   1  747.14   15.99
  -5   3   3 1212.80   22.95
   5  -3   3 1536.98   27.08
  -5   3   5  572.53   17.69
   5  -3   5  544.89   15.62
  -5   3   7  460.40   17.36
  -5  -3   7  421.07   14.13
   5  -3   7  442.78   14.06
   5   3   7  421.93   15.04
  -5   3   9  798.87   25.08
  -5  -3   9  777.89   18.98
   5   3   9  783.15   21.49
  -5  -3  11   13.65    2.93
   5   3  11   15.49    4.19
   5   3  13   34.36    5.55
   5  -3  13   30.94    5.13
   5  -3  15   66.12    6.95
   5   3  15   61.72    7.00
   5   3  17    2.69    2.85
   5  -3  27   34.92   12.63
  -5   3  27   35.81   12.77
  -5  -3  27   12.03   10.35
   5   3  27   43.72   13.94
  -5  -3  29   16.86   12.35
   5  -3  29   17.62   10.75
  -5   3  29   27.79   12.52
   5   3  29   36.20   13.50
  -5  -3  31    3.00    8.34
   5  -3  31    2.23   10.07
   5   3  31    3.25    8.01
  -5   3  31   11.30   10.12
   5  -3  33   56.58   15.48
  -5   3  33   64.37   16.44
   5   3  33   73.99   17.59
   5  -3  35   54.10   11.04
  -5   3  35   50.27   14.77
   5  -3  35   11.63    7.32
   5   3  35   50.76   14.60
   5   3  37   45.48   12.73
   5   3  39   -3.99    4.55
   5   3  39   14.49    7.92
   5  -5 -29   46.95   11.17
   5   5 -29   48.42   11.08
   5   5 -27   18.07    7.20
   5  -5 -27    6.91    5.83
   5   5 -25    8.21    7.02
   5  -5 -25   12.72    6.37
  -5   5 -25   -1.14    5.12
   5   5 -23   18.27    7.08
  -5   5 -23    9.22    6.03
   5   5 -21  134.52   15.06
  -5   5 -21   88.86   12.31
   5   5 -19   13.18    7.27
  -5   5 -19   10.54    5.31
   5   5 -17  138.92   13.16
  -5   5 -17  138.22   12.22
   5   5 -15  389.84   20.17
  -5   5 -15  365.42   18.16
   5   5 -13  984.81   29.47
  -5   5 -13  996.24   27.41
  -5  -5 -11   21.52    4.27
   5   5 -11   12.37    3.67
  -5   5 -11   23.46    4.63
   5  -5 -11   30.11    4.89
   5   5  -9    8.54    3.57
  -5  -5  -9    5.07    3.19
  -5   5  -9    8.89    3.26
  -5  -5  -7  535.45   18.52
   5   5  -7  539.38   16.68
  -5   5  -7  555.25   16.69
   5  -5  -7  569.13   17.68
  -5  -5  -5  134.41    9.33
   5  -5  -5  136.48    8.93
  -5   5  -3   93.61    8.09
   5  -5  -3   76.96    8.05
  -5   5  -1  971.68   19.52
   5   5  -1  953.11   20.08
  -5   5   1  987.23   18.55
   5   5   1  938.01   20.86
  -5   5   1  923.23   20.02
  -5   5   3  103.16    8.21
  -5   5   3   84.90    7.22
  -5   5   5  140.79    9.60
   5   5   5  136.51    8.85
  -5   5   7  576.76   20.14
   5  -5   7  523.42   16.19
   5   5   7  527.34   18.30
   5  -5   9   11.14    3.47
   5   5   9   13.88    4.67
   5  -5  11   14.19    3.15
   5   5  11   21.12    4.70
   5   5  13  969.85   26.64
   5   5  15  336.48   16.54
   5  -5  15  330.75   15.40
   5   5  17  134.62   10.99
  -5   5  27   22.03   12.01
   5  -5  27    8.09    7.96
  -5  -5  27   13.44    8.54
   5   5  27    7.55    8.12
   5  -5  29   25.42   11.50
  -5  -5  29   29.45   13.30
  -5   5  29   45.79   14.56
   5   5  29   30.44   12.74
   5  -5  31   56.07   15.77
  -5   5  31   70.45   17.09
   5   5  31   63.16   17.04
   5  -5  33   -6.51    9.40
   5   5  33   -0.06    7.86
  -5   5  33   10.52    9.93
   5   5  35   21.50   10.50
  -5   5  35   -3.62    7.99
   5   5  37   -3.23    6.87
  -5   5  37    9.47    8.08
   5   5  39   -2.76    4.23
   5   5  39    6.38    6.83
   5   7 -29  103.79   15.26
   5  -7 -29   86.21   14.81
   5  -7 -27   99.63   14.74
  -5   7 -27  105.98   14.99
   5   7 -27   89.00   13.68
  -5   7 -25   34.23    8.35
   5   7 -25   54.45   10.71
  -5   7 -23    7.80    7.14
   5   7 -23    7.12    5.54
   5   7 -21   54.14   10.12
  -5   7 -21   40.31    9.12
   5   7 -19  174.49   15.81
  -5   7 -19  156.98   15.24
   5   7 -17  435.02   22.84
  -5   7 -17  425.74   21.81
   5   7 -15  816.64   29.59
  -5   7 -15  820.15   28.13
   5   7 -13 1235.66   33.73
  -5   7 -13 1217.07   32.03
   5   7 -11  798.27   24.76
  -5  -7 -11  757.42   25.99
  -5   7 -11  783.53   24.11
   5  -7 -11  777.86   22.37
   5   7  -9    2.66    3.07
   5  -7  -9    5.58    2.70
  -5   7  -9    2.73    2.93
   5  -7  -7   25.11    4.71
  -5   7  -7   22.64    4.60
  -5  -7  -7   25.34    5.26
   5   7  -7   24.16    4.38
   5   7  -5  112.60    7.72
  -5  -7  -5  117.88    9.95
  -5   7  -5  143.16   10.11
   5   7  -5  122.47    8.07
  -5  -7  -3   48.04    6.46
  -5   7  -3   46.40    5.20
   5   7  -3   40.93    4.52
  -5   7  -1 3179.72   32.59
  -5   7  -1 3238.32   39.62
   5   7  -1 3151.58   39.37
  -5   7   1 3318.07   38.72
  -5   7   1 3210.78   40.56
   5   7   1 3285.41   41.79
  -5   7   3   37.00    4.74
   5   7   3   49.41    5.70
  -5   7   5  134.49    9.80
   5   7   5  118.96    8.97
   5  -7   7   19.83    4.28
  -5   7   7   16.03    4.49
   5   7   7   19.80    4.44
   5  -7   9    0.71    2.56
   5   7   9    1.17    3.29
   5   7  11  757.20   24.11
   5   7  13 1176.76   31.02
   5   7  15  755.77   25.66
   5   7  17  377.57   18.69
   5   7  25   62.72   14.89
   5  -7  27   61.17   17.25
  -5   7  27   87.74   19.06
   5   7  27  103.12   20.61
  -5   7  29   60.25   16.81
   5  -7  29   55.66   15.43
   5   7  29   90.91   20.44
   5  -7  31   56.62   14.43
  -5   7  31  104.86   20.83
   5   7  31  100.25   20.22
   5   7  33   52.64   15.16
  -5   7  33   37.63   13.19
  -5   7  35   -2.77    7.10
   5   7  35   -5.08    7.67
  -5   7  37    5.48    5.78
   5   7  37   -8.70    6.93
   5   7  39   21.57    6.72
   5   7  39   31.77    9.77
   5   9 -27  191.53   19.41
  -5   9 -27  215.98   21.38
  -5   9 -25   98.11   13.80
   5   9 -25   78.97   12.74
  -5   9 -23   22.19    7.06
   5   9 -23   20.69    7.52
  -5   9 -21   52.92   10.29
   5   9 -21   79.61   12.04
   5   9 -19  144.44   15.08
  -5   9 -19  152.34   15.34
   5   9 -17  665.87   28.80
  -5   9 -17  641.53   27.54
   5   9 -15  959.23   32.80
  -5   9 -15  938.28   31.75
   5   9 -13  756.61   27.03
  -5   9 -13  739.95   26.78
   5   9 -11 1173.10   31.55
  -5   9 -11 1269.53   32.97
   5   9  -9  184.60   11.82
  -5   9  -9  204.48   13.16
  -5   9  -7    1.90    3.36
   5   9  -7    6.68    3.08
  -5   9  -5   37.66    5.61
  -5  -9  -5   33.62    6.19
   5   9  -5   32.38    4.61
   5  -9  -3  208.60   11.51
  -5   9  -3  219.47   11.66
   5   9  -3  232.88    9.76
  -5  -9  -3  216.74   13.99
   5   9  -3  202.68   10.54
   5  -9  -1  883.74   21.26
  -5   9  -1  837.39   22.32
   5   9  -1  847.33   22.12
  -5   9   1  841.30   21.30
   5  -9   1  860.86   18.52
  -5   9   1  881.51   23.19
   5   9   1  884.46   23.42
   5  -9   3  208.26    8.02
  -5   9   3  216.96   12.07
   5   9   3  209.41   12.16
  -5   9   3  212.36   12.10
  -5   9   5   36.46    5.99
   5   9   5   35.71    5.42
   5   9   7    4.25    3.99
   5   9   9  173.24   11.88
   5   9  11 1146.45   31.57
   5   9  13  721.08   25.83
   5   9  15  846.41   28.42
   5   9  17  575.35   24.26
   5   9  25   90.15   19.14
   5  -9  25   59.41   14.23
   5   9  27  203.13   27.94
  -5   9  27  211.16   28.56
   5   9  29  196.07   27.20
  -5   9  29  184.29   26.50
  -5   9  31   78.70   17.27
   5   9  31   98.43   20.16
  -5   9  33   20.14    9.38
   5   9  33   30.12   12.34
  -5   9  35   14.19    9.43
   5   9  35   -1.41    5.87
  -5   9  37  -10.33    7.39
   5   9  37    2.80    6.02
   5   9  39   49.40    8.41
   5   9  39   31.96    9.14
  -5  11 -27  191.40   20.21
   5  11 -27  162.98   19.34
  -5  11 -25   63.01   11.59
   5  11 -25   70.14   12.84
  -5  11 -23   36.68    9.22
   5  11 -23   31.58    8.74
  -5  11 -21    0.30    4.30
   5  11 -21    9.13    5.56
   5  11 -19  122.08   13.97
  -5  11 -19  126.35   14.00
   5  11 -17  214.53   17.02
  -5  11 -17  208.53   17.54
   5  11 -15  599.22   26.42
  -5  11 -15  614.24   27.51
   5  11 -13  812.01   29.04
  -5  11 -13  864.66   30.41
  -5  11 -11  600.33   24.88
   5  11 -11  591.70   23.80
  -5  11  -9  685.05   25.26
   5  11  -9  665.51   23.52
  -5  11  -7    4.31    3.78
   5  11  -7    2.62    2.79
   5  11  -5    5.68    3.57
  -5  11  -5   -2.73    3.81
   5 -11  -5   -0.62    3.12
   5 -11  -3  634.97   21.63
  -5  11  -3  618.04   21.06
   5  11  -3  616.53   17.16
   5 -11  -1   74.28    7.32
  -5  11  -1   82.40    8.29
   5  11  -1   76.78    7.38
   5 -11   1   74.95    6.73
  -5  11   1   69.68    7.03
   5  11   1   67.20    7.28
  -5  11   1   84.65    8.57
  -5  11   3  599.14   21.50
  -5  11   3  659.11   22.45
   5  11   3  623.21   21.70
  -5  11   5    0.52    3.52
   5  11   5    0.98    3.65
   5  11   7    0.48    3.70
   5  11   9  641.81   23.84
   5  11  11  537.78   22.54
   5  11  13  755.12   27.39
   5  11  15  548.06   24.09
   5  11  25   62.38   15.39
   5  11  27  163.74   26.07
   5  11  29  272.06   32.48
  -5  11  29  281.06   31.95
  -5  11  31   42.03   12.70
   5  11  31   54.87   16.13
   5  11  33   -0.15    6.52
  -5  11  33   -8.15    8.20
  -5  11  35   -3.86    7.81
   5  11  35  -16.89    8.95
   5  11  37    5.69    6.86
   5  11  39   37.09    7.17
   5  11  39   16.98    6.85
  -5  13 -25    6.49    5.04
   5  13 -25   -4.16    5.98
  -5  13 -23   14.00    6.26
   5  13 -23   17.64    7.83
  -5  13 -21   -1.22    4.66
   5  13 -21    0.54    4.85
  -5  13 -19    4.67    5.15
   5  13 -19    5.09    5.57
  -5  13 -17   17.22    5.96
   5  13 -17   17.46    5.15
  -5  13 -15  261.83   18.86
   5  13 -15  259.37   18.63
  -5  13 -13  294.83   20.75
   5  13 -13  300.25   19.58
  -5  13 -11  165.06   15.73
   5  13 -11  192.49   14.89
  -5  13  -9   -5.83    4.36
   5  13  -9   -4.27    3.80
   5  13  -7   48.33    6.20
  -5  13  -7   48.52    6.94
   5  13  -5   28.46    4.96
  -5  13  -5   29.38    5.41
  -5  13  -3    8.90    3.94
  -5  13  -1   31.25    5.73
  -5  13   1   29.77    6.00
  -5  13   3   11.83    4.12
  -5  13   5   36.14    6.02
   5  13   5   31.90    5.43
   5  13   7   29.64    6.04
   5  13   9   -3.34    4.90
   5  13  23   10.79    9.73
   5  13  25   13.44    9.38
   5  13  27  179.06   27.20
   5  13  29   53.67   13.56
   5  13  29   53.43   15.86
   5  13  31   14.61   10.56
   5  13  33   18.36   10.17
   5  13  35   38.15   11.86
   5  13  37  -11.57    7.34
  -5  15 -25  -11.18    7.40
   5  15 -25   -0.20    5.70
  -5  15 -23  172.54   18.44
   5  15 -23  178.38   19.06
  -5  15 -21  224.96   20.83
   5  15 -21  200.79   19.71
  -5  15 -19  117.42   15.16
   5  15 -19  124.59   14.89
  -5  15 -17    3.51    5.93
   5  15 -17    3.02    4.97
  -5  15 -15    4.98    5.20
   5  15 -15    4.34    3.90
  -5  15 -13   31.29    8.33
   5  15 -13   13.65    5.60
  -5  15 -11   92.33   12.64
   5  15 -11   92.18   11.15
  -5  15  -9  210.62   15.47
   5  15  -9  222.26   15.15
  -5  15  -7  171.88   13.54
   5  15  -7  170.47   12.25
  -5  15  -5  213.80   14.82
  -5  15  -3  427.01   20.05
  -5  15  -1    3.36    4.29
  -5  15   1    4.50    5.03
  -5  15   3  429.23   20.95
  -5  15   5  231.03   15.39
   5  15  21  213.96   28.27
   5  15  23  168.29   26.65
   5  15  25   -1.18    7.80
   5  15  27  -10.04   10.60
   5  15  29   -2.59    8.93
   5  15  31    3.75    6.31
   5  15  33   57.80   14.41
   5  15  35   65.49   13.65
   5  15  37   -1.03    4.65
  -5  17 -23  269.80   23.44
   5  17 -23  273.12   23.84
  -5  17 -21  521.18   31.64
   5  17 -21  535.81   32.44
  -5  17 -19  249.38   21.61
   5  17 -19  256.29   21.98
  -5  17 -17   22.53    8.03
   5  17 -17   22.27    6.78
  -5  17 -15   22.79    7.95
   5  17 -15   24.30    7.17
   5  17 -13   68.55   10.04
  -5  17 -13   79.17   12.17
  -5  17 -11  182.04   16.06
   5  17 -11  172.95   14.79
  -5  17  -9  561.79   26.47
   5  17  -9  530.85   24.01
  -5  17  -7  431.27   22.78
  -5  17  -5  799.30   29.77
  -5  17  -3  174.90   14.24
  -5  17  -1    6.60    4.42
  -5  17   1    7.64    4.48
  -5  17   3  186.89   14.79
  -5  17   5  786.81   30.73
   5  17  19  268.20   32.76
   5  17  21  570.66   46.96
   5  17  23  275.36   34.51
   5  17  25   30.08   13.22
   5  17  27   51.36   14.79
   5  17  29   -0.66    7.17
   5  17  31   21.36    8.62
   5  17  31   10.94    8.10
   5  17  33   70.44   14.57
   5  17  35   65.00   12.66
   5  17  37   31.80    8.81
  -5  19 -21  356.77   27.16
   5  19 -21  337.28   25.73
  -5  19 -19  129.52   17.28
   5  19 -19  116.13   15.38
   5  19 -17   52.21   10.24
  -5  19 -17   57.46   12.26
   5  19 -15   14.43    6.62
  -5  19 -15   18.41    7.23
   5  19 -13   -2.02    3.79
  -5  19 -13   -4.30    5.97
  -5  19 -11  195.60   17.44
  -5  19  -9  250.39   18.87
  -5  19  -7  697.43   30.58
  -5  19  -5  304.94   19.78
  -5  19  -3   57.21    8.85
  -5  19  -1    2.57    4.37
  -5  19   1    7.22    5.20
  -5  19   3   56.71    9.44
  -5  19   5  281.33   19.41
   5  19  17  101.61   22.22
   5  19  19   84.31   19.33
   5  19  21  384.06   39.58
   5  19  23  117.87   22.50
   5  19  25  127.17   22.87
   5  19  27   13.23   10.52
   5  19  29   17.45    8.71
   5  19  31   10.55    5.57
   5  19  31    3.03    6.37
   5  19  33   49.73   11.90
   5  19  35   39.92    9.73
  -5  21 -19  102.18   14.57
  -5  21 -17   18.71    8.00
  -5  21 -15   23.69    6.63
   5  21 -15   26.38   16.67
  -5  21 -13    8.83    5.29
  -5  21 -11   14.63    5.76
  -5  21  -9  210.58   18.12
  -5  21  -7  220.95   18.54
  -5  21  -5  106.84   12.99
  -5  21  -3   12.13    6.00
  -5  21  -1   -1.19    4.48
  -5  21   1   11.45    6.67
  -5  21   3   16.75    7.88
   5  21  13   -2.18    7.84
   5  21  13    6.51    7.63
   5  21  15   20.77   12.80
   5  21  17   39.27   15.49
   5  21  19  101.10   20.95
   5  21  21   12.37    7.35
   5  21  23  118.30   22.83
   5  21  25   36.22   13.35
   5  21  27    2.43    7.27
   5  21  29   12.77    7.61
   5  21  31   -7.43    5.51
   5  21  31  -12.92    8.45
   5  21  33   -4.41    5.58
   5  23 -15   91.94   25.21
  -5  23 -15   55.36   11.03
   5  23 -13   54.41   22.41
  -5  23 -13   45.82   10.32
   5  23 -11   67.70   20.80
  -5  23 -11   46.33   10.05
   5  23  -9   -2.66   13.09
  -5  23  -9   -0.27    4.52
  -5  23  -7   25.75    7.91
  -5  23  -5    3.06    5.53
  -5  23  -3   17.27    6.36
  -5  23  -1   32.27    7.93
  -5  23   1   34.83    9.84
  -5  23   3   11.08    6.28
   5  23   9   -2.76    6.37
   5  23  11   51.01   11.94
   5  23  13   35.62   11.28
   5  23  13   52.53   15.87
   5  23  15   63.69   17.07
   5  23  17  -14.37   10.98
   5  23  19   27.37   13.21
   5  23  21  -12.36   12.79
   5  23  23   16.42   10.36
   5  23  25   -2.51    7.45
   5  23  27   19.64    9.67
   5  23  29   13.85    7.13
   5  23  29   11.89    8.67
   5  23  31   -5.59    3.50
   5  23  31   -0.04    5.01
   5  23  33    1.37    4.22
   5  25 -15  107.22   26.56
   5  25 -13  191.89   35.76
  -5  25 -13  183.68   18.94
   5  25 -11   41.64   23.40
  -5  25 -11   13.27    6.66
   5  25  -9   81.44   26.28
  -5  25  -9   53.69   11.39
   5  25  -7   -2.49   12.15
  -5  25  -7   10.26    6.62
   5  25  -5   23.25   18.06
  -5  25  -5    9.21    5.89
   5  25  -3   49.78   13.37
   5  25  -3   58.90   22.18
  -5  25  -3   37.92    9.21
   5  25  -1   86.41   16.03
   5  25  -1   97.14   28.04
  -5  25  -1   60.68   11.29
   5  25   1   86.54   16.46
   5  25   1   80.32   25.12
  -5  25   1   62.58   11.55
   5  25   3   42.82   10.49
   5  25   3   66.99   25.30
   5  25   5    0.97    5.97
   5  25   5  -18.16   13.59
   5  25   7   12.14    7.99
   5  25   7  -18.69   15.83
   5  25   9   66.29   14.64
   5  25  11   18.60   10.39
   5  25  13  185.41   23.42
   5  25  13  190.72   27.74
   5  25  15   76.57   18.08
   5  25  17   40.15   14.55
   5  25  19  -13.16   10.78
   5  25  21   -4.20    8.60
   5  25  23   20.18    9.26
   5  25  25   38.42   12.75
   5  25  27   29.91    9.83
   5  25  29   20.81    6.93
   5  25  29   22.30    8.51
   5  25  31   36.39    8.90
   5  27 -15  115.09   27.75
   5  27 -13  201.08   35.39
   5  27 -11   87.68   29.85
   5  27  -9    6.40   12.34
   5  27  -7   89.35   16.08
   5  27  -7   58.86   23.43
  -5  27  -7   72.57   12.38
   5  27  -5   42.05   11.60
   5  27  -5   24.80   19.09
  -5  27  -5   10.56    5.70
   5  27  -3   60.65   12.81
   5  27  -3   72.12   24.22
  -5  27  -3   46.76    9.83
   5  27  -1  137.94   20.22
  -5  27  -1  110.31   14.45
   5  27  -1  150.89   33.68
   5  27   1  124.08   19.63
   5  27   1  132.63   30.80
   5  27   3   56.44   13.78
   5  27   3   34.99   19.12
   5  27   5   29.79   11.15
   5  27   5    6.47   14.56
   5  27   7   59.76   14.29
   5  27   7   25.66   15.22
   5  27   9    8.83    7.49
   5  27  11   91.97   16.67
   5  27  11  124.91   24.51
   5  27  13  154.26   24.88
   5  27  15  232.58   29.89
   5  27  17  122.61   21.42
   5  27  19    0.91    8.14
   5  27  21    2.39    7.74
   5  27  23   15.40    9.20
   5  27  25   78.36   15.29
   5  27  27   46.70   10.97
   5  27  29   47.67    9.37
   5  29 -13  102.74   16.73
   5  29 -13   92.17   23.55
   5  29 -11   42.71   11.55
   5  29 -11   12.04   12.90
   5  29  -9    6.71    7.86
   5  29  -9   -7.16   18.03
   5  29  -7   11.29    6.95
   5  29  -7   26.40   18.41
   5  29  -5   60.42   13.38
   5  29  -5   22.94   19.08
   5  29  -3   27.96   10.06
   5  29  -3   39.28   20.25
   5  29  -1   97.27   17.24
   5  29  -1   87.79   27.43
   5  29   1   93.61   17.04
   5  29   1   56.20   23.62
   5  29   3   33.79   11.92
   5  29   3   17.58   14.45
   5  29   5   43.95   12.30
   5  29   7    4.25    6.80
   5  29   9    1.15    6.85
   5  29  11   44.10   13.15
   5  29  11   39.40   13.57
   5  29  13  130.46   22.55
   5  29  15  128.79   21.16
   5  29  17   37.87   13.45
   5  29  19   -0.20    6.15
   5  29  21    5.73    6.28
   5  29  23   -5.92    7.12
   5  29  25   13.43    7.24
   5  29  27   35.72    7.90
   5  31 -13   14.80    7.18
   5  31 -11    9.99    7.12
   5  31  -9   11.08    8.11
   5  31  -7   16.89    7.71
   5  31  -7    7.09   11.65
   5  31  -5    2.90    6.05
   5  31  -5  -14.32   17.13
   5  31  -3   11.04    7.38
   5  31  -3  -33.48   21.42
   5  31  -1   19.56    8.54
   5  31   1   26.41   10.55
  -5  31   3    8.31    5.64
   5  31   3    4.13    6.19
   5  31   5   11.58    8.11
   5  31   7   24.92   10.12
   5  31   9    8.40    6.83
   5  31   9   -6.44    8.40
   5  31  11   12.21    8.74
   5  31  13   13.95    9.74
   5  31  15   27.06   11.78
   5  31  17   16.92    9.34
   5  31  19    3.20    6.03
   5  31  21   10.19    6.69
   5  31  23   -6.74    5.33
   5  33 -13   -4.40    4.53
   5  33 -11    2.25    4.71
   5  33  -9    7.96    6.02
   5  33  -7   50.32   11.22
   5  33  -5   45.21   10.77
   5  33  -3   -1.22    5.50
  -5  33  -1   -2.07    5.74
   5  33  -1   -2.39    5.86
  -5  33   1    7.12    6.55
   5  33   1   -2.78    5.60
   5  33   3   -2.31    5.08
   5  33   5   54.88   12.27
   5  33   7   28.31    8.84
   5  33   7   61.30   14.48
   5  33   9   15.59    9.27
   5  33  11    6.29    7.58
   5  33  13   -0.90    6.54
   5  33  15   -8.93    7.51
   5  33  17    1.07    5.29
   5  33  19    5.77    5.18
   5  35 -13    2.19    3.68
   5  35 -11   -5.41    3.91
   5  35  -9    8.31    4.45
   5  35  -7   35.12    9.13
  -5  35  -5   64.42   11.93
   5  35  -5   46.95   10.63
  -5  35  -3   16.26    6.67
   5  35  -3   19.23    6.98
  -5  35  -1   -2.63    4.33
   5  35  -1    1.23    4.35
  -5  35   1   -2.06    4.53
   5  35   1   -9.64    6.20
   5  35   3   21.92    7.61
   5  35   5   39.69   10.24
   5  35   5   70.19   14.42
   5  35   7   42.80   11.19
   5  35   9   20.03    8.81
   5  35  11   -4.30    6.13
   5  35  13   -3.74    5.83
   5  35  15   -8.63    5.79
  -5  37  -9   21.06    6.58
  -5  37  -7   33.70    7.84
   5  37  -7   22.25    6.42
   5  37  -5   22.97    6.94
  -5  37  -5   38.02    8.15
  -5  37  -3    7.88    4.76
   5  37  -3    2.42    4.46
   5  37  -1   -8.43    5.34
  -5  37  -1   -7.70    4.60
   5  37   1   -7.44    4.87
   5  37   1  -10.99    6.35
   5  37   3   17.08    7.51
   5  37   5   26.49    9.04
   5  37   7   26.55    7.91
   5  37   9   10.17    5.86
   6   0 -28  151.29   18.62
   6   0 -26   -1.83    4.76
   6   0 -24  382.58   25.84
   6   0 -22  494.22   28.17
   6   0 -20 1526.97   45.86
  -6   0  -8 2912.57   26.17
  -6   0  -8 2861.85   38.65
  -6   0  -6  674.74   18.88
  -6   0  -4 2021.07   32.35
  -6   0  -2  292.51   13.57
  -6   0   0 3167.90   40.84
  -6   0   2  330.00   13.63
  -6   0   4 1985.64   32.43
  -6   0   6  660.89   18.64
   6   0   6  682.85   20.11
  -6   0   8 2838.35   38.68
   6   0   8 2848.13   41.94
   6   0  10  536.42   18.71
   6   0  12 1042.07   26.69
   6   0  14  112.10    9.35
   6   0  16    6.93    2.98
  -6   0  26    4.23    8.10
   6   0  26    6.93    8.78
   6   0  28  139.32   23.75
  -6   0  28  139.08   26.66
  -6   0  30   82.85   20.99
   6   0  30   72.99   18.57
   6   0  32  169.77   25.22
  -6   0  32  132.27   25.04
   6   0  34   86.26   17.77
   6   0  36  184.28   23.94
   6   0  36  306.45   24.61
   6   0  38  110.01   13.39
   6   0  40   48.39    7.74
   6   2 -28   13.42    7.08
   6  -2 -28    7.16    6.82
   6   2 -26   39.81    9.26
   6  -2 -26   38.40    9.73
   6   2 -24   87.33   12.80
   6  -2 -24   90.41   13.00
   6  -2 -22  536.43   29.82
   6   2 -22  519.91   28.96
   6   2 -20  691.47   31.43
   6   2 -18  279.72   18.43
   6   2 -16   19.81    5.59
  -6   2 -16   17.86    4.44
  -6   2 -14   21.64    4.80
  -6   2 -12  206.68   11.29
  -6  -2 -10  758.96   20.32
  -6   2 -10  773.64   19.39
  -6  -2  -8  851.88   21.75
  -6  -2  -8  846.63   18.71
  -6  -2  -6 1088.58   24.54
  -6  -2  -6 1104.92   21.18
  -6  -2  -4   46.79    5.49
   6  -2  -2  576.25   18.07
  -6  -2  -2  565.03   17.74
  -6  -2   0  224.11   13.19
   6   2   0  250.08   12.01
   6  -2   2  730.05   20.52
  -6  -2   2  743.83   20.11
  -6  -2   4   50.30    5.79
  -6  -2   6 1090.44   24.58
   6   2   6 1077.73   24.95
  -6   2   8  866.54   25.63
  -6  -2   8  834.79   21.39
   6   2   8  844.11   22.88
  -6  -2  10  769.54   20.29
   6  -2  10  793.78   22.92
   6   2  10  804.69   23.40
   6   2  12  217.21   12.85
   6  -2  12  220.94   12.31
   6   2  14   19.06    4.70
   6  -2  14   18.37    4.30
   6  -2  16   14.62    4.05
   6   2  16   14.92    4.27
   6   2  26   62.40   16.21
  -6  -2  26   24.43   12.83
  -6   2  26   51.07   15.66
   6  -2  26   40.45   12.38
  -6  -2  28   15.47   13.03
  -6   2  28   35.04   14.67
   6  -2  28    2.65    8.93
   6   2  28   14.27   10.69
  -6  -2  30   73.24   20.94
  -6   2  30   80.43   20.35
   6  -2  30   38.80   14.68
   6   2  30   60.36   16.02
  -6   2  32   56.24   14.91
   6  -2  32   50.41   15.25
   6   2  32   50.92   14.87
   6  -2  34  156.31   18.59
  -6   2  34   93.17   19.77
   6  -2  34   92.48   18.50
   6   2  34  118.32   20.43
   6  -2  36   44.81   13.03
   6   2  36   73.11   15.30
   6  -2  38   72.29   10.82
   6   2  38   45.14   11.24
   6   2  40    8.12    4.37
   6   4 -28   32.76   10.10
   6  -4 -28   36.12   10.27
   6   4 -26   10.99    7.46
   6  -4 -26   -3.10    7.51
   6   4 -24   12.11    6.62
   6  -4 -24    6.37    5.39
   6   4 -22  138.40   15.30
   6   4 -20   55.08   10.52
  -6   4 -20   42.26    8.64
   6   4 -18    1.26    4.05
  -6   4 -18   -1.22    3.43
   6   4 -16    9.94    4.32
  -6   4 -16   10.13    4.53
   6   4 -14  464.98   21.22
  -6   4 -14  486.29   19.55
   6   4 -12  266.63   14.97
  -6   4 -12  267.77   13.43
  -6  -4 -10  142.00    9.52
  -6  -4 -10  141.28    9.33
   6   4 -10  151.86   10.53
  -6   4 -10  139.70    9.45
  -6  -4  -8  241.34   12.19
   6  -4  -8  280.78   13.39
  -6   4  -8  249.23   11.36
   6   4  -8  253.70   12.04
  -6  -4  -6   16.32    3.61
  -6   4  -6   17.68    4.13
   6   4  -6   17.10    3.38
   6  -4  -6   26.55    5.70
   6  -4  -4   27.05    4.61
   6   4  -4   22.91    3.82
   6  -4  -2   29.41    5.73
  -6   4  -2   25.97    2.86
   6   4  -2   18.64    4.15
  -6   4   0   86.74    7.37
   6   4   0   17.85    7.21
   6  -4   2   42.37    5.63
  -6   4   2   30.74    4.63
  -6   4   4   24.16    4.87
   6  -4   4   30.07    5.14
   6   4   4   23.70    4.52
  -6   4   6   32.78    6.59
   6  -4   6   23.43    4.97
  -6  -4   8  225.20   11.50
   6  -4   8  231.61   11.50
   6   4   8  251.26   13.58
  -6  -4  10  121.44    8.47
   6   4  10  143.57   10.55
   6   4  12  261.56   14.49
   6  -4  14  451.71   18.46
   6   4  14  474.70   19.91
   6   4  16    8.34    3.39
   6  -4  16    8.18    4.13
   6   4  18    3.44    4.04
  -6  -4  26   -1.27    8.36
   6  -4  26    7.04   10.47
   6   4  26    9.22   11.13
  -6  -4  28    5.84    8.86
   6  -4  28   28.68   12.08
  -6   4  28   37.47   16.06
   6   4  28   30.78   12.77
  -6   4  30    8.15    8.80
   6   4  30    7.33    9.33
   6  -4  30   28.46   12.88
   6  -4  32    0.87    4.95
   6  -4  32    6.29    8.94
  -6   4  32   21.66   11.66
   6   4  32    5.93    7.40
   6  -4  34   25.66    8.06
   6  -4  34   12.72    9.07
  -6   4  34   10.13    8.06
   6   4  34   14.33    8.41
   6   4  36   30.74   11.51
   6   4  38    2.02    4.61
   6   4  38    3.54    6.12
   6   4  40   -0.47    3.32
   6   6 -28  124.50   16.08
   6  -6 -28  110.92   15.84
   6  -6 -26   30.72    8.53
   6   6 -26   51.39   10.97
   6   6 -24   38.67    9.66
   6   6 -22   21.33    7.95
  -6   6 -22   19.35    7.04
  -6   6 -20   54.40    9.91
   6   6 -20   78.16   12.00
   6   6 -18  120.49   12.98
  -6   6 -18   94.09   10.84
   6   6 -16  425.18   22.11
  -6   6 -16  409.27   20.33
   6   6 -14  429.71   20.56
  -6   6 -14  398.46   18.53
   6   6 -12 1380.41   34.06
  -6   6 -12 1368.79   32.01
   6   6 -10   50.45    6.90
  -6  -6 -10   44.30    6.04
  -6   6 -10   54.99    6.62
   6  -6 -10   43.05    5.70
   6  -6  -8    2.35    2.42
   6   6  -8    2.15    2.88
  -6   6  -8    0.62    2.65
  -6  -6  -8    7.73    3.84
   6   6  -6   73.87    6.33
  -6   6  -6   76.83    7.00
   6  -6  -6   77.38    7.56
  -6  -6  -6   71.18    7.70
   6   6  -6   65.39    5.70
   6  -6  -4   27.92    4.64
  -6  -6  -4   18.00    4.35
  -6   6  -4   30.00    4.48
   6   6  -4   26.95    4.02
  -6   6  -2  367.98   13.68
  -6   6  -2  330.78    8.86
   6  -6  -2  375.27   16.09
   6   6  -2  357.22   13.63
   6  -6   0  480.35   17.05
  -6   6   0  449.65   15.42
   6   6   0  460.02   16.15
  -6   6   2  386.91   13.29
   6   6   2  371.88   15.15
  -6   6   2  351.34   14.27
   6  -6   4   33.37    5.15
  -6   6   4   31.86    4.74
   6   6   4   28.16    5.12
  -6   6   6   66.61    7.44
   6  -6   6   91.54    8.27
   6   6   6   74.89    7.62
   6  -6   8   -0.13    2.25
   6   6   8    2.97    3.77
   6  -6  10   45.43    5.68
   6   6  10   51.43    7.01
   6   6  12 1368.97   33.70
   6   6  14  420.15   19.35
   6   6  16  378.13   19.45
   6   6  18   87.04    9.99
   6  -6  26   40.20   13.40
   6   6  26   32.91   12.21
   6  -6  28   65.13   15.84
   6   6  28  111.06   20.78
   6  -6  30   77.93   18.42
  -6   6  30   87.28   18.07
   6   6  30  102.00   20.10
  -6   6  32    7.66    8.62
   6   6  32   15.06    8.91
  -6   6  34   -1.62    7.81
   6   6  34   -9.44    9.22
   6   6  36   -4.13    6.07
   6   6  38   12.97    6.48
   6   6  38    6.37    6.39
   6   6  40   22.12    5.96
   6   8 -28  156.99   18.05
   6  -8 -28  150.66   18.55
   6   8 -26  225.91   21.20
  -6   8 -24   29.50    8.09
   6   8 -24   21.17    7.69
  -6   8 -22   81.44   11.79
   6   8 -22   72.93   11.90
  -6   8 -20   33.26    8.19
   6   8 -20   60.22   11.13
   6   8 -18  384.74   23.07
  -6   8 -18  381.83   22.03
   6   8 -16  688.57   28.30
  -6   8 -16  676.28   27.12
   6   8 -14  931.65   31.18
  -6   8 -14  951.72   30.81
   6   8 -12  563.03   22.26
  -6   8 -12  539.83   21.89
   6   8 -10 1191.08   29.83
  -6   8 -10 1194.45   30.70
  -6   8  -8    5.65    3.95
   6   8  -8    0.90    2.58
  -6   8  -6    1.74    3.15
  -6  -8  -6    4.41    3.75
   6   8  -6    0.73    2.47
   6   8  -6    0.17    2.39
   6  -8  -4    4.93    3.51
  -6  -8  -4    9.75    4.22
  -6   8  -4    9.91    3.53
   6   8  -4   16.97    3.94
  -6   8  -2  310.23   13.68
   6   8  -2  311.96   13.58
  -6   8   0 1011.26   21.05
  -6   8   0 1031.87   25.23
   6   8   0 1044.25   25.39
  -6   8   2  325.66   14.55
   6   8   2  322.99   14.72
   6  -8   4   20.14    4.93
   6   8   4    9.85    4.24
   6   8   6    1.47    3.38
   6   8   8    2.75    3.53
   6   8  10 1209.05   32.21
   6   8  12  564.67   22.84
   6   8  14  917.45   29.87
   6   8  16  617.59   25.55
   6   8  18  338.26   19.67
   6   8  24   17.83    9.90
   6   8  26  236.09   25.66
   6   8  26  200.95   26.42
   6  -8  28   91.06   19.01
   6   8  28  154.03   24.82
   6   8  30  148.52   23.71
   6   8  32   87.90   18.45
   6   8  34   -4.60    8.21
   6   8  36   17.15    7.80
   6   8  38   32.76    8.27
   6   8  38   29.08    9.43
   6   8  40   47.53    7.97
   6  10 -26  138.70   16.56
  -6  10 -24   58.04   10.37
   6  10 -24   52.54   10.48
  -6  10 -22   26.76    8.00
   6  10 -22   26.67    7.86
   6  10 -20  138.33   15.00
  -6  10 -20  138.01   14.95
   6  10 -18  300.67   20.56
  -6  10 -18  319.19   21.04
   6  10 -16  678.78   28.85
  -6  10 -16  680.80   28.87
   6  10 -14  895.38   31.38
  -6  10 -14  830.60   30.65
   6  10 -12  704.48   25.77
  -6  10 -12  706.68   26.52
   6  10 -10  799.49   26.15
  -6  10 -10  829.36   28.07
  -6  10  -8  367.18   18.62
   6  10  -8  343.00   16.05
   6  10  -6    4.57    2.76
  -6  10  -6    0.76    3.59
  -6  10  -4   38.72    5.61
   6  10  -4   30.94    4.86
  -6  10  -2  436.77   17.40
   6  10  -2  442.87   17.03
  -6  10   0  698.70   21.90
   6  10   0  670.44   21.53
  -6  10   2  415.11   16.60
   6  10   2  459.39   18.23
  -6  10   2  470.49   18.70
  -6  10   4   35.48    5.52
  -6  10   4   41.45    6.31
   6  10   4   39.44    6.16
   6  10   6    5.89    3.85
   6  10   8  327.97   17.49
   6  10  10  773.07   27.51
   6  10  12  687.72   26.62
   6  10  14  805.03   29.34
   6  10  16  624.00   26.88
   6  10  18  272.55   18.15
   6  10  24   63.74   17.13
   6  10  26  170.93   25.82
   6  10  28  270.53   28.45
   6  10  28  272.75   32.69
   6  10  30  208.53   28.80
   6  10  32   55.11   14.50
   6  10  34  -23.52   10.06
   6  10  36   -2.42    6.79
   6  10  38   14.96    4.86
   6  10  38   11.36    7.27
  -6  12 -26   59.51   11.85
   6  12 -26   73.44   13.16
  -6  12 -24    2.41    4.68
   6  12 -24    7.17    6.26
  -6  12 -22   -5.18    5.40
   6  12 -22    0.40    4.99
  -6  12 -20   28.44    7.57
   6  12 -20   34.18    8.94
  -6  12 -18  120.65   13.84
   6  12 -18  118.77   13.43
  -6  12 -16  272.36   19.14
   6  12 -16  263.65   18.77
  -6  12 -14  533.26   25.35
   6  12 -14  597.41   26.70
  -6  12 -12  383.43   22.44
   6  12 -12  445.93   21.80
  -6  12 -10  207.66   15.05
   6  12 -10  204.06   13.85
   6  12  -8   40.87    5.92
  -6  12  -8   45.23    6.74
  -6  12  -6    9.74    3.62
  -6  12  -4   67.72    7.75
  -6  12  -2  348.65   16.59
   6  12  -2  365.17   16.65
   6  12   0  267.37   14.60
  -6  12   0  264.97   14.39
   6  12   2  362.46   17.70
  -6  12   2  355.35   17.51
  -6  12   4   74.54    8.54
   6  12   4   78.35    9.13
   6  12   6   -1.33    3.75
   6  12   8   47.01    7.83
   6  12  10  186.49   14.66
   6  12  12  382.73   20.98
   6  12  14  539.31   25.23
   6  12  16  253.07   18.04
   6  12  22    5.09    8.60
   6  12  24    7.81    9.54
   6  12  26   55.88   15.13
   6  12  28  197.35   24.75
   6  12  28  202.56   28.02
   6  12  30  115.36   18.10
   6  12  30   95.03   20.09
   6  12  32   21.96   10.59
   6  12  34    1.05    6.41
   6  12  36   -9.81    7.67
   6  12  38    1.80    3.04
   6  12  38   -1.30    6.18
  -6  14 -24   47.41   10.90
   6  14 -24   36.64    9.15
  -6  14 -22   58.43   10.50
   6  14 -22   63.04   11.79
  -6  14 -20   53.09   10.54
   6  14 -20   35.97    8.90
  -6  14 -18   -4.65    5.01
   6  14 -18    0.05    4.69
  -6  14 -16   30.47    7.17
   6  14 -16   25.07    7.16
  -6  14 -14   42.02    9.26
   6  14 -14   48.37    8.68
   6  14 -12   54.95    8.71
  -6  14 -12   43.95   11.67
   6  14 -10    1.82    4.60
  -6  14 -10    2.61    5.24
  -6  14  -8  254.00   16.59
  -6  14  -6  103.86   10.46
  -6  14  -4   80.82    8.99
  -6  14  -2    6.80    3.99
  -6  14   0    6.14    4.68
  -6  14   2    6.13    4.18
  -6  14   4   81.00    9.75
   6  14   6  118.70   11.59
   6  14   8  277.67   17.59
   6  14  10   13.48    5.90
   6  14  22   79.81   18.92
   6  14  24   27.69   11.43
   6  14  26   10.76   10.03
   6  14  28   13.31    7.94
   6  14  28   -4.00    8.45
   6  14  30    4.39    5.97
   6  14  30   33.62   12.63
   6  14  32   34.71   12.88
   6  14  34   49.96   12.45
   6  14  36   28.81    8.93
  -6  16 -22  364.89   26.99
   6  16 -22  380.82   26.75
  -6  16 -20  258.85   22.13
   6  16 -20  250.30   21.30
  -6  16 -18   92.03   13.69
   6  16 -18  100.99   13.75
  -6  16 -16   22.86    7.62
   6  16 -16   12.23    5.53
  -6  16 -14   52.91   10.66
   6  16 -14   43.63    8.59
  -6  16 -12   61.77   10.40
  -6  16 -10  347.12   20.90
  -6  16  -8  395.40   21.83
  -6  16  -6  741.99   28.78
  -6  16  -4  311.18   18.30
  -6  16  -2  222.11   15.60
  -6  16   0   -1.61    3.87
  -6  16   2  215.71   15.63
  -6  16   4  291.66   18.81
   6  16  20  272.97   33.61
   6  16  22  439.16   41.59
   6  16  24  117.82   21.63
   6  16  26   32.48   11.12
   6  16  28   -5.68    8.02
   6  16  30   30.53   10.25
   6  16  30   29.15   11.97
   6  16  32   62.29   11.99
   6  16  32   48.98   13.75
   6  16  34  122.07   18.14
   6  16  36   39.46    6.89
   6  16  36   22.51    7.67
  -6  18 -22  348.05   26.01
  -6  18 -20  305.27   24.23
  -6  18 -18  196.76   19.67
  -6  18 -16   63.43   11.26
  -6  18 -14   29.15    8.09
  -6  18 -12   78.47   11.84
  -6  18 -10  344.92   22.17
  -6  18  -8  540.26   26.77
  -6  18  -6  528.28   25.53
  -6  18  -4  292.06   19.05
  -6  18  -2  107.19   11.88
  -6  18   0   24.23    6.53
  -6  18   2  102.93   11.98
  -6  18   4  290.62   20.07
   6  18  18  205.54   30.34
   6  18  20  333.30   37.00
   6  18  22  332.98   36.80
   6  18  24  167.00   26.03
   6  18  26   43.22   14.50
   6  18  28   23.90   10.60
   6  18  30   32.01   10.23
   6  18  30   21.25    9.68
   6  18  32   68.90   11.78
   6  18  32   56.61   13.43
   6  18  34   71.10    9.09
   6  18  34   70.03   13.51
  -6  20 -20  109.45   15.96
  -6  20 -18  118.49   15.84
  -6  20 -16    9.37    7.02
  -6  20 -14    6.42    6.52
  -6  20 -12    6.09    5.74
  -6  20 -10  122.22   14.24
  -6  20  -8  286.12   20.60
  -6  20  -6  275.49   20.01
  -6  20  -4  123.05   13.72
  -6  20  -2    8.19    4.51
  -6  20   0   20.20    6.69
  -6  20   2   13.79    6.55
  -6  20   4  116.93   13.44
   6  20  14  -20.48   13.52
   6  20  16   -0.33    9.32
   6  20  18  118.65   22.73
   6  20  20  125.11   23.91
   6  20  22  123.09   23.21
   6  20  24   58.51   15.48
   6  20  26   22.93   11.91
   6  20  28   -8.72    7.35
   6  20  30   -6.49    7.33
   6  20  30  -21.10   10.89
   6  20  32   19.87    6.86
   6  20  32   19.40    8.10
   6  20  34   18.71    6.99
   6  22 -16    9.63   13.70
  -6  22 -16    0.99    4.93
   6  22 -14  114.04   28.37
  -6  22 -14   98.18   13.81
   6  22 -12  -14.25   14.27
  -6  22 -12   -6.62    5.96
   6  22 -10   15.35   12.74
  -6  22 -10    4.44    5.27
  -6  22  -8  119.03   14.24
  -6  22  -6   18.09    6.10
  -6  22  -4   17.02    5.90
  -6  22  -2    9.42    7.10
  -6  22   0   18.96    8.07
  -6  22   2   14.09    7.23
   6  22  10    7.69    6.08
   6  22  12    3.22    5.96
   6  22  14   99.45   20.16
   6  22  16  -10.71   12.14
   6  22  18   -6.17   11.17
   6  22  20  109.35   20.74
   6  22  22    4.99    7.88
   6  22  24   18.69   11.02
   6  22  26    3.55    6.97
   6  22  28    7.92    7.82
   6  22  30   -5.15    4.61
   6  22  30    3.32    5.81
   6  22  32   -1.58    3.58
   6  22  32   10.91    6.05
   6  24 -16   98.90   23.94
   6  24 -14   78.67   24.55
  -6  24 -14   72.22   11.70
   6  24 -12   97.77   25.09
  -6  24 -12   96.65   13.56
   6  24 -10    1.50   14.45
  -6  24 -10    2.79    4.71
   6  24  -8   16.08   15.74
  -6  24  -8    5.25    4.92
   6  24  -6   -1.41    5.70
   6  24  -6    6.32   13.27
  -6  24  -6   -1.79    4.40
   6  24  -4   11.98    8.65
   6  24  -4   29.34   16.64
  -6  24  -4    9.94    6.32
   6  24  -2   72.38   14.73
   6  24  -2   37.81   19.38
  -6  24  -2   48.19   10.34
   6  24   0   21.58    8.71
   6  24   0   34.96   17.32
  -6  24   0   34.64    9.30
   6  24   2   36.80   10.68
   6  24   2   45.63   19.31
  -6  24   2   36.29    8.59
   6  24   4   13.12    8.98
   6  24   4   17.87   17.56
   6  24   6   20.06    8.28
   6  24   6    4.22   15.60
   6  24   8    6.59    9.02
   6  24  10    6.22    9.52
   6  24  12  100.74   18.22
   6  24  12  104.07   21.34
   6  24  14  111.18   21.91
   6  24  16   93.27   19.41
   6  24  18  -13.02   10.51
   6  24  20  -27.77   12.03
   6  24  22    6.22   10.04
   6  24  24   32.30   11.90
   6  24  26    2.66    6.39
   6  24  28   20.06    7.25
   6  24  28   23.27    9.46
   6  24  30    6.36    4.57
   6  24  30   10.50    6.63
   6  26 -16  114.41   27.86
   6  26 -14  214.22   38.69
   6  26 -12  151.96   19.91
   6  26 -12  171.65   36.51
   6  26 -10   35.87   11.28
   6  26 -10   23.52   18.36
   6  26  -8   12.37    8.70
   6  26  -8   17.39   17.23
  -6  26  -8   17.02    7.80
   6  26  -6   37.04   12.31
   6  26  -6   37.59   21.35
  -6  26  -6   25.81    8.56
   6  26  -4   80.51   15.37
   6  26  -4   55.22   23.56
  -6  26  -4   55.64   11.15
   6  26  -2   90.28   15.90
   6  26  -2  113.28   28.43
  -6  26  -2   69.96   12.23
  -6  26   0  127.29   16.01
   6  26   0  165.93   21.94
   6  26   0  177.55   34.31
   6  26   2   73.61   16.16
   6  26   2  102.63   29.27
   6  26   4   70.08   14.79
   6  26   4   74.22   24.82
   6  26   6   11.07    8.21
   6  26   6   38.56   18.84
   6  26   8   17.34    9.86
   6  26  10   32.75   12.21
   6  26  12  195.21   28.76
   6  26  14  218.28   30.22
   6  26  16  138.53   23.51
   6  26  18   37.14   12.88
   6  26  20   21.68   10.45
   6  26  22    3.50    7.19
   6  26  24   26.12   10.17
   6  26  26   52.23   12.29
   6  26  28   38.96    8.78
   6  26  28   50.34   10.82
   6  28 -16   72.94   21.93
   6  28 -14  140.28   31.02
   6  28 -12  143.72   19.08
   6  28 -12  106.51   27.84
   6  28 -10   40.53   10.94
   6  28 -10   27.78   20.89
   6  28  -8   20.24   10.05
   6  28  -8    4.97   17.19
   6  28  -6   44.51   11.91
   6  28  -6   25.22   16.86
   6  28  -4   86.34   16.83
   6  28  -4  114.97   32.08
   6  28  -2   80.01   15.44
   6  28  -2  108.01   30.07
   6  28   0  156.07   21.77
   6  28   0  148.12   33.86
   6  28   2   94.54   17.03
   6  28   2   70.30   25.10
   6  28   4   90.52   17.47
   6  28   4   63.87   23.67
   6  28   6   32.09   10.78
   6  28   6   39.57   16.26
   6  28   8   14.60    8.67
   6  28  10   43.66   13.19
   6  28  12  165.83   25.07
   6  28  14  206.34   27.84
   6  28  16  137.73   22.69
   6  28  18   53.51   14.73
   6  28  20    2.80    6.58
   6  28  22    4.10    7.26
   6  28  24   22.51    8.58
   6  28  26   26.72    6.87
   6  28  26   34.72    9.40
   6  30 -12   20.80    8.46
   6  30 -12    3.52   12.18
   6  30 -10   17.02    8.07
   6  30 -10    7.05   13.16
   6  30  -8    6.25    6.99
   6  30  -8   14.89   13.47
   6  30  -6    4.15    7.10
   6  30  -6   11.27   12.33
   6  30  -4    2.06    6.62
   6  30  -4   -2.40   15.53
   6  30  -2   65.66   13.80
   6  30  -2   36.42   17.15
   6  30   0   38.03   11.69
   6  30   0   25.35   19.25
   6  30   2   41.00   11.75
   6  30   2   38.49   15.96
   6  30   4    2.08    5.32
   6  30   6   -0.81    6.57
   6  30   8   -5.07    6.12
   6  30  10   11.99    7.80
   6  30  12   12.35    8.22
   6  30  14   63.19   15.39
   6  30  16   47.49   13.52
   6  30  18   16.14    9.40
   6  30  20   -3.58    5.72
   6  30  22    0.43    5.19
   6  30  24  -11.56    4.87
   6  30  24   -5.86    5.65
   6  32 -12   -5.51    5.11
   6  32 -10    5.13    6.14
   6  32  -8    3.06    5.40
   6  32  -6   31.98    9.88
   6  32  -4    9.67    6.81
   6  32  -2    2.34    5.42
   6  32   0   -5.70    5.07
   6  32   2    3.08    5.70
   6  32   4    9.54    6.73
   6  32   6   19.34    8.74
   6  32   8   18.83   10.00
   6  32  10    2.40    7.34
   6  32  12   -7.18    7.56
   6  32  14   -0.62    5.65
   6  32  16    6.00    5.98
   6  32  18   13.84    7.06
   6  32  20   17.45    7.69
   6  32  22   10.65    5.35
   6  34 -12    1.92    3.63
   6  34 -10    5.63    5.01
   6  34  -8   24.13    7.78
   6  34  -6   53.75   10.95
   6  34  -4   35.00    9.26
  -6  34  -2    2.73    4.63
   6  34  -2    8.16    6.07
  -6  34   0   -5.84    4.93
   6  34   0   -3.17    4.74
   6  34   2    5.34    5.38
   6  34   4   37.65   10.33
   6  34   6   72.99   15.18
   6  34   8   27.72   10.19
   6  34  10    9.74    6.35
   6  34  12  -10.05    7.86
   6  34  14   -3.49    5.62
   6  34  16   -9.96    6.21
   6  34  18   10.02    5.52
  -6  36 -12   -1.74    4.35
   6  36 -10    1.09    3.09
  -6  36 -10   -7.55    4.97
  -6  36  -8   43.76    8.80
   6  36  -8   32.39    7.68
  -6  36  -6   43.00    9.05
   6  36  -6   32.12    7.76
  -6  36  -4   36.66    8.90
   6  36  -4   21.15    7.46
  -6  36  -2    8.84    5.55
   6  36  -2    2.11    4.20
   6  36   0   -1.02    4.54
   6  36   2   10.54    6.64
   6  36   4   33.96   10.35
   6  36   6   36.75   10.05
   6  36   8   54.35   11.25
   6  36  10   10.74    6.33
   6  36  12   -0.67    4.59
   7   1 -27  126.61   17.07
   7  -1 -27  104.62   15.52
   7   1 -25   32.66    9.00
   7  -1 -25   32.12    7.73
   7   1 -23  298.47   22.86
   7  -1 -23  320.86   23.80
   7   1 -21  636.87   31.15
   7  -1 -21  602.03   30.83
   7   1 -19  834.24   33.45
   7   1 -17  121.23   11.91
  -7  -1  -9 1502.16   30.62
  -7  -1  -7 1195.25   27.77
   7   1  -7 1124.15   20.95
  -7  -1  -5  579.32   14.93
  -7  -1  -5  600.97   19.71
  -7   1  -5  560.87   10.89
   7   1  -5  550.07   15.70
  -7  -1  -3  233.15   12.41
  -7   1  -3  224.29   12.07
   7   1  -3  210.94   10.52
  -7   1  -1  462.21   17.23
   7   1  -1  437.42   15.99
  -7  -1   1  451.60   17.45
  -7   1   1  428.86   16.81
  -7  -1   3  224.22   12.19
  -7   1   3  231.78   12.29
   7   1   3  220.55   12.11
  -7  -1   5  562.29   19.28
   7   1   5  578.07   19.24
  -7  -1   7 1232.82   28.07
   7   1   7 1228.54   28.98
   7  -1   7 1237.21   29.28
  -7  -1   9 1494.53   30.77
   7   1   9 1560.93   33.29
   7  -1   9 1603.15   33.96
   7   1  11  690.08   22.90
   7  -1  11  675.03   22.09
   7  -1  13  225.29   13.76
   7   1  13  236.26   14.02
   7  -1  15    8.25    3.83
   7   1  15   12.30    4.31
   7  -1  17  108.47    9.81
   7   1  17  115.73   10.57
  -7  -1  27   70.64   18.66
   7  -1  27   86.11   18.09
   7   1  27  100.35   18.93
  -7  -1  29   43.08   19.19
   7  -1  29   34.08   13.59
   7   1  29   33.94   14.12
  -7   1  31   33.59   13.15
   7  -1  31   29.54   11.91
   7   1  31   28.34   13.05
   7  -1  33  101.22   15.42
   7  -1  33   83.37   17.25
   7   1  33   60.52   14.61
   7  -1  35  127.22   16.89
   7  -1  35   82.34   16.58
   7   1  35   81.58   16.47
   7   1  35  149.34   18.21
   7  -1  37  122.60   14.61
   7   1  37  126.75   15.31
   7   1  39   58.63    9.58
   7  -1  39   42.97    8.15
   7   3 -27   25.33    8.82
   7  -3 -27    9.36    5.34
   7   3 -25   62.01   11.20
   7  -3 -25   58.36   10.52
   7   3 -23   58.34   10.61
   7  -3 -23   63.92   12.47
   7   3 -21  325.69   22.74
   7   3 -19  113.76   12.21
   7   3 -17   17.30    5.30
   7   3 -15   10.13    3.58
   7   3 -13  143.25   11.61
   7   3 -11  273.14   14.66
   7   3  -9  280.06   13.65
  -7   3  -7  410.56   13.73
  -7  -3  -7  427.74   15.11
  -7  -3  -7  408.54   16.82
  -7  -3  -5   30.52    4.93
  -7  -3  -5   14.97    3.94
   7   3  -5   27.91    4.44
   7  -3  -3  130.41    9.98
  -7  -3  -3  125.22    9.62
   7   3  -3  150.65    9.28
   7  -3  -1   16.92    4.94
  -7  -3  -1    2.39    4.80
   7   3  -1   14.07    6.66
  -7   3   1   24.16    4.91
  -7  -3   1   28.56    8.01
  -7   3   3  127.57    8.83
  -7  -3   3  151.83   10.97
   7   3   3  131.61    9.86
  -7  -3   5   24.06    5.52
  -7   3   5   27.24    5.14
   7   3   5   23.39    4.80
  -7  -3   7  410.83   16.84
   7   3   7  433.14   17.59
  -7  -3   9  224.61   12.45
   7   3   9  245.32   13.43
   7  -3  11  250.58   14.34
   7   3  11  273.69   15.06
   7   3  13  148.59   11.56
   7  -3  13  135.33   10.88
   7  -3  15   15.37    4.57
   7   3  15   10.49    3.65
   7  -3  17   15.49    4.23
   7   3  17   19.39    4.75
   7   3  25   65.65   16.32
  -7  -3  27   12.97    9.22
   7   3  27   21.25   10.39
   7   3  29   13.98   10.90
   7  -3  29   -2.42    7.22
   7  -3  31   13.52    7.86
   7  -3  31   20.63   10.78
   7   3  31    7.01    7.08
   7  -3  33   -0.58    5.24
   7  -3  33    7.50    7.61
   7   3  33    8.54    7.40
   7  -3  35   52.20   10.87
   7   3  35   59.52   12.63
   7   3  35   59.84   14.57
   7  -3  37   32.08    7.52
   7   3  37   23.57    9.03
   7   3  39   13.04    5.40
   7   5 -27   51.98   10.34
   7  -5 -27   50.23   11.15
   7   5 -25   34.47   10.12
   7  -5 -25   25.02    7.73
   7   5 -23   21.44    7.88
   7   5 -21   16.17    6.48
   7   5 -19   25.58    8.06
   7   5 -17   39.63    8.02
   7   5 -15  184.47   14.47
  -7   5 -15  189.42   13.54
   7   5 -13  353.95   18.20
  -7   5 -13  346.09   16.97
   7   5 -11  236.84   13.87
  -7   5 -11  226.45   12.89
  -7   5  -9   74.90    7.20
   7   5  -9   75.61    7.42
   7  -5  -9   76.02    8.20
  -7   5  -7   14.91    3.69
   7   5  -7   16.57    3.89
  -7  -5  -7   19.19    4.28
   7  -5  -7   20.94    4.62
  -7   5  -5   74.27    6.69
  -7  -5  -5   65.08    7.00
   7  -5  -5   72.48    7.72
   7   5  -5   72.14    6.49
  -7   5  -3  160.26    8.99
   7  -5  -3  162.39   11.22
   7   5  -3  146.64    9.06
  -7   5  -1   22.27    5.34
   7  -5  -1   30.18    7.23
  -7   5  -1   20.74    3.45
   7   5  -1   12.98    4.92
  -7   5   1   26.73    4.47
  -7   5   1   18.38    4.50
  -7   5   3  165.28    9.92
   7  -5   3  158.88   10.61
   7   5   3  151.01   10.49
  -7   5   5   68.31    7.48
   7  -5   5   83.66    8.18
   7   5   5   66.72    7.89
   7  -5   7   21.10    4.57
   7   5   7   19.47    5.17
   7  -5   9   76.49    7.69
   7   5   9   72.14    8.33
   7   5  11  232.10   14.43
   7   5  13  344.79   18.06
   7  -5  15  183.13   13.42
   7   5  15  193.16   14.02
   7   5  17   30.29    7.46
   7   5  19    5.34    5.29
   7   5  25   20.43    9.65
   7   5  25   10.00    9.23
   7   5  27   44.66   13.66
   7  -5  29   94.07   15.53
   7   5  29   79.20   16.92
   7  -5  31   -6.51    7.02
   7   5  31  -19.18   10.27
   7  -5  33   -5.34    5.99
   7   5  33   -7.66    8.64
   7   5  35   -3.86    6.89
   7   5  37   19.10    7.27
   7   5  37    5.23    6.41
   7   5  39    6.58    4.65
   7   5  39    5.68    4.98
   7   7 -27  130.36   16.69
   7  -7 -27  134.77   17.54
   7   7 -25   59.80   11.34
   7   7 -23   19.08    6.31
   7   7 -21   29.78    8.59
   7   7 -19   84.92   11.91
   7   7 -17  202.99   16.28
  -7   7 -17  205.38   15.79
   7   7 -15  378.43   20.54
  -7   7 -15  353.21   18.94
   7   7 -13  526.71   22.64
  -7   7 -13  497.01   21.45
   7   7 -11  571.32   21.74
  -7   7 -11  550.02   20.78
   7   7  -9  251.62   13.13
  -7   7  -9  235.84   12.89
  -7  -7  -7   10.99    4.24
  -7   7  -7    5.58    3.14
  -7   7  -5   11.14    3.69
  -7  -7  -5    2.14    3.05
   7   7  -5   11.12    3.38
  -7   7  -3  208.64   11.52
   7   7  -3  212.14   11.32
   7   7  -1  157.28   10.45
  -7   7  -1  165.82   10.30
   7   7   1  159.29   10.81
  -7   7   1  161.43   10.24
  -7   7   3  211.51   11.41
   7   7   3  213.56   12.69
  -7   7   5   11.61    3.95
   7   7   5   13.04    4.56
   7   7   7    9.66    4.06
   7   7   9  262.66   15.74
   7   7  11  596.71   24.00
   7   7  13  543.73   23.41
   7   7  15  364.25   20.05
   7   7  17  187.22   15.48
   7   7  19   66.53    9.77
   7  -7  25   73.59   13.06
   7   7  25   75.66   15.75
   7   7  25   57.05   15.24
   7   7  27  158.57   21.04
   7   7  27  117.83   21.84
   7   7  29  159.83   24.32
   7   7  31   59.56   15.14
   7   7  33    3.68    7.08
   7   7  35   -3.51    6.84
   7   7  37    3.61    5.10
   7   7  37    2.89    5.39
   7   7  39   15.56    5.51
   7   7  39   11.07    5.59
   7   9 -27  174.19   19.20
   7   9 -25   70.13   12.43
   7   9 -23   10.21    4.62
  -7   9 -21   53.65   10.07
   7   9 -21   42.99    8.40
   7   9 -19  124.25   14.20
  -7   9 -19  108.82   13.14
   7   9 -17  304.51   20.20
  -7   9 -17  307.29   19.86
   7   9 -15  698.59   28.29
  -7   9 -15  693.79   27.71
   7   9 -13  520.71   22.90
  -7   9 -13  516.67   22.92
   7   9 -11  625.86   22.94
  -7   9 -11  627.79   23.88
   7   9  -9  363.91   16.30
  -7   9  -9  419.59   19.05
  -7   9  -7   24.78    6.53
  -7   9  -5   49.80    6.35
   7   9  -5   39.96    5.12
  -7   9  -3   75.00    7.67
   7   9  -3   74.09    7.02
  -7   9  -1  594.20   20.15
   7   9  -1  595.06   20.26
  -7   9   1  614.33   20.89
   7   9   1  603.32   21.07
  -7   9   3   72.84    7.79
  -7   9   3   74.52    7.63
   7   9   3   75.82    8.29
   7   9   5   50.54    7.49
   7   9   7   18.88    5.82
   7   9   9  395.22   20.12
   7   9  11  659.60   26.34
   7   9  13  503.58   24.11
   7   9  15  649.65   27.27
   7   9  17  275.21   18.45
   7   9  19  107.82   12.64
   7   9  23   21.94   10.39
   7   9  25   72.04   14.93
   7   9  25   96.86   19.73
   7   9  27  187.02   24.08
   7   9  27  169.14   25.50
   7   9  29  145.19   21.25
   7   9  29  141.01   23.39
   7   9  31   81.39   18.25
   7   9  33   -5.79    6.34
   7   9  35  -21.21    9.19
   7   9  37    9.36    4.76
   7   9  37    3.86    6.06
   7   9  39   31.85    6.48
   7  11 -25   38.42    9.74
   7  11 -23    4.09    6.65
  -7  11 -21   42.91    9.20
   7  11 -21   34.23    8.27
   7  11 -19  105.33   12.88
  -7  11 -19  118.50   13.79
   7  11 -17  333.20   20.95
  -7  11 -17  355.34   22.16
   7  11 -15  542.27   25.36
  -7  11 -15  539.30   25.52
  -7  11 -13  374.21   20.58
   7  11 -13  370.93   20.03
  -7  11 -11  373.77   20.22
   7  11 -11  335.26   17.72
  -7  11  -9  173.50   13.79
  -7  11  -7   85.06    8.97
  -7  11  -5    1.83    3.39
   7  11  -5   -0.35    2.67
  -7  11  -3   32.91    5.39
   7  11  -3   44.30    6.02
  -7  11  -1 1297.43   31.69
   7  11  -1 1287.51   31.65
   7  11   1 1293.62   32.51
  -7  11   1 1293.71   32.35
  -7  11   3   29.05    5.22
   7  11   3   55.51    7.85
   7  11   5    7.56    4.82
   7  11   7   87.92   10.33
   7  11   9  163.43   13.87
   7  11  11  338.74   19.64
   7  11  13  362.57   21.59
   7  11  15  528.74   25.96
   7  11  17  339.68   21.06
   7  11  19  112.94   12.61
   7  11  23  -14.30    9.43
   7  11  25   42.10   14.21
   7  11  27  142.39   21.47
   7  11  27  178.17   26.75
   7  11  29  143.26   20.39
   7  11  29  142.55   23.74
   7  11  31   88.91   18.50
   7  11  33   14.08    9.77
   7  11  35  -11.48    8.14
   7  11  37   -5.66    5.24
   7  11  37   -7.49    5.10
   7  13 -25   -3.02    5.76
  -7  13 -23   -0.96    4.92
   7  13 -23    2.17    5.50
  -7  13 -21   26.74    8.40
   7  13 -21   21.62    6.97
  -7  13 -19   27.09    7.76
   7  13 -19   31.05    7.47
  -7  13 -17  126.29   13.86
   7  13 -17  136.37   14.29
  -7  13 -15  110.94   12.84
   7  13 -15  105.40   12.04
  -7  13 -13  131.59   13.60
  -7  13 -11   53.18    8.98
  -7  13  -9    6.17    4.97
  -7  13  -7   35.44    6.68
  -7  13  -5  172.77   12.98
  -7  13  -3  110.40   10.50
   7  13  -1  292.78   16.50
  -7  13  -1  294.65   16.56
   7  13   1  315.65   17.32
  -7  13   1  290.90   16.83
   7  13   3  123.86   11.43
  -7  13   3  117.61   11.09
   7  13   5  193.64   14.51
   7  13   7   40.72    7.36
   7  13   9    6.16    4.55
   7  13  11   63.93   10.35
   7  13  13  128.82   14.73
   7  13  15  106.40   12.97
   7  13  21   27.05   12.17
   7  13  23    8.31    9.25
   7  13  25   -5.51    9.85
   7  13  27   26.58   11.56
   7  13  27   28.59   12.14
   7  13  29   83.48   15.76
   7  13  29   76.92   18.65
   7  13  31    5.85    7.52
   7  13  31   11.98    8.37
   7  13  33    9.17    8.33
   7  13  35    4.05    3.71
   7  13  35   14.33    7.02
   7  13  37   -7.63    4.86
   7  13  37   -2.18    6.43
   7  15 -23   98.06   13.82
  -7  15 -23  120.86   15.62
  -7  15 -21  155.68   17.29
   7  15 -21  138.86   16.36
  -7  15 -19   25.43    8.90
  -7  15 -17    4.49    5.30
  -7  15 -15   11.60    5.47
  -7  15 -13   18.71    7.31
  -7  15 -11   23.22    6.95
  -7  15  -9  191.36   15.66
  -7  15  -7  474.01   23.01
  -7  15  -5  382.62   20.40
  -7  15  -3    3.90    3.73
  -7  15  -1   -0.41    4.29
  -7  15   1    4.43    4.81
  -7  15   3    5.06    4.16
   7  15  19   18.65   12.46
   7  15  21  155.97   25.69
   7  15  23  110.91   21.78
   7  15  25   22.88    7.92
   7  15  27   -4.39    7.51
   7  15  27   10.93    9.34
   7  15  29    6.96    7.24
   7  15  29   14.78    9.70
   7  15  31   11.46    8.08
   7  15  31    9.76    8.30
   7  15  33   71.87   14.63
   7  15  35   44.90    8.16
   7  15  35   36.10    9.80
  -7  17 -21  188.99   19.32
  -7  17 -19  142.94   16.95
  -7  17 -17  175.57   18.23
  -7  17 -15   30.71    8.06
  -7  17 -13   30.98    8.76
  -7  17 -11  116.54   13.08
  -7  17  -9  311.63   20.48
  -7  17  -7  639.93   27.80
  -7  17  -5  166.67   13.90
  -7  17  -3  236.63   16.84
  -7  17  -1   33.12    7.13
  -7  17   1   28.91    6.62
  -7  17   3  239.14   17.41
   7  17  17  200.22   28.10
   7  17  19  176.63   26.21
   7  17  21  172.46   26.95
   7  17  23  184.39   27.29
   7  17  25   86.88   18.03
   7  17  27    8.56    7.23
   7  17  29    6.54    5.62
   7  17  29    2.94    8.58
   7  17  31   23.02    8.73
   7  17  31   17.69    9.61
   7  17  33   77.91   11.77
   7  17  33   75.28   10.26
   7  17  33   75.08   14.36
   7  17  35   69.52    8.89
   7  17  35   46.88   10.42
  -7  19 -19  190.10   20.36
  -7  19 -17   48.32   11.27
   7  19 -15  -11.59   14.38
  -7  19 -15    6.19    5.67
  -7  19 -13   33.58    8.69
  -7  19 -11   17.16    6.34
  -7  19  -9  331.67   22.31
  -7  19  -7  176.12   15.84
  -7  19  -5  229.12   18.30
  -7  19  -3   84.04   11.62
  -7  19  -1   44.23    8.69
  -7  19   1   41.69    8.70
  -7  19   3  103.83   13.57
   7  19  15   -7.73   10.01
   7  19  17   63.31   18.09
   7  19  19  258.94   33.10
   7  19  21   80.75   19.31
   7  19  23  178.77   27.15
   7  19  25   -6.43    9.30
   7  19  27   -9.26    6.80
   7  19  29   -1.57    5.81
   7  19  29    5.88    7.11
   7  19  31   13.80    6.95
   7  19  31   10.69    8.08
   7  19  33   36.81    7.74
   7  19  33   36.61    9.55
  -7  21 -17    2.88    5.92
   7  21 -15   -3.06   12.77
  -7  21 -15    3.55    5.23
   7  21 -13   15.07   15.33
  -7  21 -13    1.13    5.11
   7  21 -11   29.47   13.26
  -7  21 -11   29.45    8.15
  -7  21  -9   12.22    6.00
  -7  21  -7  113.62   13.64
  -7  21  -5   52.55    9.80
  -7  21  -3    4.98    4.63
  -7  21  -1    1.96    4.25
  -7  21   1    3.11    6.58
  -7  21   3   10.22    7.48
   7  21  11   25.13   10.01
   7  21  13    2.17    9.11
   7  21  15  -11.73   13.02
   7  21  17  -13.60   10.46
   7  21  19   74.41   19.10
   7  21  21  200.04   28.34
   7  21  23   16.21   10.07
   7  21  25   -3.17    7.64
   7  21  27    7.45    6.82
   7  21  29   -6.37    7.18
   7  21  29    4.08    5.51
   7  21  31    4.85    4.41
   7  21  31    5.80    7.59
   7  21  33    5.09    4.36
   7  23 -17   17.54   14.44
   7  23 -15   45.77   18.01
   7  23 -13   73.19   21.63
  -7  23 -13   68.90   11.93
   7  23 -11    6.65   13.24
  -7  23 -11    4.17    5.38
   7  23  -9  -10.03   14.46
  -7  23  -9    4.99    4.35
   7  23  -7   19.87    8.04
   7  23  -7   16.30   14.58
  -7  23  -7   15.39    6.58
   7  23  -5    4.67    6.33
   7  23  -5   19.80   14.92
  -7  23  -5    5.79    4.74
   7  23  -3    9.86    7.89
   7  23  -3   10.35   16.26
  -7  23  -3    2.55    4.63
   7  23  -1   21.07    9.31
   7  23  -1   28.50   17.13
  -7  23  -1   23.97    7.65
   7  23   1   36.93   10.55
   7  23   1   37.35   19.91
  -7  23   1   21.62    8.03
   7  23   3   11.80    9.02
   7  23   3    7.50   12.21
   7  23   5    4.93    8.43
   7  23   5   17.39   14.80
   7  23   7    6.79    6.78
   7  23   9   10.80    7.18
   7  23  11    6.57    6.80
   7  23  13   85.87   18.97
   7  23  15   57.61   16.63
   7  23  17   -3.44   10.26
   7  23  19   17.79    8.82
   7  23  21   30.88   11.40
   7  23  23   -3.51    6.96
   7  23  25    4.13    6.89
   7  23  27  -10.06    6.54
   7  23  27    5.08    8.57
   7  23  29   -1.50    4.44
   7  23  29    1.28    5.18
   7  23  31   -0.79    3.69
   7  23  31   12.95    6.68
   7  25 -17   46.08   18.66
   7  25 -15  157.22   31.80
   7  25 -13  147.21   31.72
   7  25 -11   69.07   26.60
   7  25  -9   38.86   11.69
   7  25  -9   32.37   18.90
  -7  25  -9   22.87    7.52
   7  25  -7   18.74    9.70
   7  25  -7    2.44   13.48
  -7  25  -7    1.71    4.35
   7  25  -5   30.58   10.72
   7  25  -5   28.88   19.11
  -7  25  -5   11.12    6.22
   7  25  -3   36.17   11.89
   7  25  -3   62.23   20.40
  -7  25  -3   46.35    9.83
   7  25  -1   96.93   17.67
   7  25  -1  117.49   30.15
  -7  25  -1   60.29   11.62
   7  25   1   75.30   15.85
   7  25   1   63.94   25.73
   7  25   3   35.12   11.53
   7  25   3   83.68   23.28
   7  25   5    5.66    7.25
   7  25   5   18.03   15.81
   7  25   7    1.50    7.06
   7  25   7   18.17   15.72
   7  25   9   46.20   13.04
   7  25  13  119.98   22.86
   7  25  15  195.54   27.52
   7  25  17   17.05    9.31
   7  25  19   -8.45   10.41
   7  25  21    2.05    7.15
   7  25  23   -7.68    8.03
   7  25  25   19.22    9.19
   7  25  27    7.23    5.39
   7  25  27   18.27    8.55
   7  25  29   19.04    6.55
   7  25  29   16.19    7.79
   7  27 -17   50.00   19.02
   7  27 -15  135.32   31.09
   7  27 -13  114.33   29.23
   7  27 -11   49.15   22.64
   7  27  -9   21.97    9.21
   7  27  -9   23.10   20.71
   7  27  -7   16.99    9.00
   7  27  -7    5.40   12.45
   7  27  -5   83.55   16.01
   7  27  -5  148.94   32.86
   7  27  -3   72.30   14.65
   7  27  -3   47.67   21.70
   7  27  -1  100.93   16.85
   7  27  -1  109.40   29.64
   7  27   1  108.12   18.28
   7  27   1   99.07   31.20
   7  27   3   63.05   14.73
   7  27   3   86.86   25.95
   7  27   5   82.95   16.09
   7  27   5   76.71   26.37
   7  27   7    7.93    7.82
   7  27   7   -0.68   11.29
   7  27   9   12.21    5.70
   7  27  11   61.67   16.34
   7  27  13  200.40   27.38
   7  27  15  149.63   23.82
   7  27  17   44.73   14.54
   7  27  19   18.73    8.74
   7  27  21    4.48    9.51
   7  27  23   17.07    9.78
   7  27  25    3.02    4.50
   7  27  25   12.35    7.59
   7  27  27   46.77    8.86
   7  27  27   52.40   10.32
   7  29 -15   40.59   18.82
   7  29 -13   65.91   22.84
   7  29 -11   23.55    8.40
   7  29 -11   71.98   24.09
   7  29  -9    8.46    6.64
   7  29  -9   15.19   16.80
   7  29  -7    9.00    8.02
   7  29  -7   10.18   17.76
   7  29  -5   13.92    7.11
   7  29  -5   37.82   18.95
   7  29  -3   53.42   13.35
   7  29  -3   56.27   21.27
   7  29  -1   60.29   13.48
   7  29  -1   79.07   24.68
   7  29   1   52.72   13.17
   7  29   1   49.19   21.74
   7  29   3   48.16   12.86
   7  29   3   36.01   17.57
   7  29   5    1.30    6.11
   7  29   5   15.10   13.34
   7  29   7    1.46    5.57
   7  29   9    6.16    9.15
   7  29  11   42.02   13.67
   7  29  13   73.47   17.12
   7  29  15   82.73   16.99
   7  29  17   37.41   12.27
   7  29  19   -5.52    7.20
   7  29  21   11.10    8.06
   7  29  23   -6.48    6.36
   7  29  25    9.19    4.48
   7  29  25    9.60    5.58
   7  31 -11   -1.95    6.23
   7  31 -11   -2.62   13.08
   7  31  -9    1.50    5.33
   7  31  -9    4.85   11.00
   7  31  -7    6.47    4.58
   7  31  -7   -2.39   16.30
   7  31  -5   11.52    6.71
   7  31  -5   -4.45   16.13
   7  31  -3   -3.58    6.17
   7  31  -3   -7.33   13.33
   7  31  -1   15.51    8.35
   7  31  -1    9.39   12.84
   7  31   1   15.26    8.56
   7  31   1   -1.40   13.30
   7  31   3   -3.36    6.66
   7  31   5   13.44    7.52
   7  31   7  -13.91    8.41
   7  31   9   -4.79    8.38
   7  31  11   10.65    7.60
   7  31  13    9.56    6.91
   7  31  15   22.50    9.87
   7  31  17    1.74    5.92
   7  31  19    5.63    5.76
   7  31  21   -0.57    4.55
   7  33 -11    2.64    3.86
   7  33  -9   14.91    6.68
   7  33  -7   22.90    8.07
   7  33  -5   25.46    8.40
   7  33  -3   14.56    6.62
  -7  33  -1   -2.05    5.29
   7  33  -1   -2.28    5.00
   7  33   1   -2.79    5.40
   7  33   3   -0.10    4.96
   7  33   7   27.81    9.75
   7  33   9    7.09    7.18
   7  33  11   -1.90    5.77
   7  33  13   -8.87    6.66
   7  33  15  -10.00    7.34
   7  33  17    8.81    5.63
   7  33  19   12.79    6.25
   7  35  -9    5.95    4.44
   7  35  -7   37.28    8.63
  -7  35  -5   32.93    9.06
   7  35  -5   15.34    6.47
  -7  35  -3    7.58    5.52
   7  35  -3    4.81    5.26
   7  35  -1   -1.32    4.12
   7  35   3   12.43    7.06
   7  35   5   34.05   10.19
   7  35   7   44.00   10.99
   7  35   9   11.74    6.56
   7  35  11   -6.49    5.72
   7  35  13   -4.81    5.14
   7  37  -1   -3.29    4.99
   7  37   1   -5.06    4.42
   7  37   3   -2.65    5.13
   7  37   5   22.50    7.18
   7  37   7   31.53    7.76
   8   0 -28    9.35    7.04
   8   0 -26   70.11   12.48
   8   0 -24   -2.63    6.33
   8   0 -22  340.98   24.12
   8   0 -20  159.27   15.70
   8   0  -6  972.05   23.00
   8   0   2   63.83    8.06
   8   0   4   34.70    6.02
   8   0   6 1067.96   28.42
   8   0   8  714.51   23.87
   8   0  10 1830.75   38.78
   8   0  12   20.35    5.54
   8   0  14   -2.67    3.33
   8   0  16   -2.35    4.69
   8   0  18  252.34   16.66
   8   0  32  -13.90    7.59
   8   0  34   69.04   12.89
   8   0  36   26.29    8.21
   8   0  38   60.82   10.26
   8   2 -28   12.70    7.63
   8  -2 -28    4.64    5.07
   8   2 -26    2.83    6.15
   8  -2 -26  -10.41    7.59
   8   2 -24   45.35   10.39
   8  -2 -24   32.95    9.03
   8   2 -22   98.82   13.35
   8  -2 -22  112.21   14.32
   8   2 -20  255.83   19.58
   8   2 -18   80.12   10.47
   8   2 -16   -1.74    4.91
   8   2 -14   17.31    4.98
   8   2  -6  187.35    9.84
   8   2  -4   77.35    7.16
   8   2  -2    2.76    2.96
   8   2   0   44.67    6.45
   8   2   2   -4.72    3.49
   8   2   4   72.90    8.10
   8   2   6  201.78   12.88
   8  -2   8  875.64   26.90
   8   2   8  908.04   27.11
   8   2  10  317.13   16.64
   8  -2  10  293.75   16.05
   8  -2  12   32.44    6.30
   8   2  12   35.20    6.29
   8  -2  14   22.94    5.31
   8   2  14   22.85    5.00
   8  -2  16    6.41    3.87
   8   2  16   -2.16    5.77
   8   2  18   76.80    9.51
   8  -2  18   78.76    9.73
   8   2  28   13.31   10.04
   8  -2  30   -3.93    7.16
   8   2  30    1.44    7.46
   8  -2  32  -11.60    6.98
   8   2  32  -10.48    8.90
   8  -2  34    8.95    5.76
   8   2  34   17.91    7.69
   8   2  34   14.55    9.36
   8   2  36   66.39   11.98
   8  -2  36   37.29    9.43
   8   2  36   33.91   10.43
   8  -2  38   12.34    5.45
   8   2  38   31.07    7.83
   8   4 -26   31.03    8.86
   8  -4 -26   20.99    7.43
   8   4 -24    4.26    4.85
   8  -4 -24   -0.27    4.73
   8   4 -22   40.65    9.24
   8   4 -20  120.90   13.98
   8   4 -18    0.43    4.31
   8   4 -16   14.71    4.55
   8   4 -14  122.14   11.52
   8   4 -12    5.88    3.58
   8   4 -10    1.66    2.72
   8   4  -8   79.49    7.21
   8   4  -6   14.96    3.51
   8   4  -4   13.86    3.54
  -8   4  -2  115.50    7.89
   8   4  -2  122.64    9.16
   8   4   0   14.41    3.99
  -8   4   0    5.24    2.15
   8   4   2  118.48    9.60
  -8   4   2  109.73    8.28
   8   4   4   13.32    4.84
  -8   4   4    7.77    3.13
   8   4   6   18.12    4.55
   8   4   8   72.77    8.35
   8   4  10    5.12    3.73
   8  -4  12   -7.03    5.72
   8   4  12   -0.01    4.09
   8   4  14  127.74   11.88
   8  -4  14  138.65   11.61
   8   4  16   14.11    4.75
   8  -4  16   20.65    4.94
   8   4  18    1.58    4.04
   8   4  24    1.28    6.16
   8  -4  26   30.70    9.41
   8   4  26   29.21    9.34
   8   4  26   33.87   13.30
   8  -4  28   28.24    8.36
   8   4  28   21.82    9.59
   8  -4  30   -3.36    6.80
   8   4  30   -3.57    8.23
   8  -4  32   -6.69    6.45
   8   4  32   -7.35    7.01
   8  -4  34   -1.02    5.41
   8   4  34    6.53    5.50
   8   4  34   -9.02    7.71
   8  -4  36   34.82    8.40
   8   4  36   28.01    7.90
   8   4  36   17.41    8.74
   8   4  38    5.62    4.91
   8  -6 -26   75.57   13.99
   8   6 -26   66.15   11.74
   8   6 -24   -6.31    5.20
   8   6 -22    6.52    6.47
   8   6 -20   29.95    7.68
   8   6 -18   15.93    5.51
   8   6 -16   47.13    8.36
   8   6 -14  236.09   15.81
   8   6 -12  119.01   10.54
   8   6 -10  104.91    9.06
  -8   6  -8    1.57    2.78
  -8  -6  -6    2.06    2.37
  -8   6  -6    3.10    3.05
   8   6  -6    0.93    2.46
  -8  -6  -4    0.16    3.78
  -8   6  -4    5.35    3.29
   8   6  -4    6.06    3.61
   8   6  -2  153.17   10.71
  -8   6  -2  153.78    9.90
  -8   6   0   15.65    5.16
   8   6   0    1.44    3.39
  -8   6   2  165.87    9.81
   8   6   2  157.95   11.12
  -8   6   4    2.69    2.62
   8   6   4    0.96    3.96
   8   6   6    1.62    3.80
   8   6   8    0.82    4.72
   8   6  10  112.72   10.88
   8   6  12  119.20   11.67
   8   6  14  244.67   17.22
   8  -6  14  221.00   15.57
   8   6  16   38.47    8.08
   8  -6  16   39.67    7.61
   8   6  18   15.08    6.74
   8   6  20   12.23    6.26
   8  -6  24  -22.50    8.47
   8   6  24   -4.03    8.36
   8   6  24    1.27    6.60
   8  -6  26   69.14   13.09
   8   6  26   60.64   14.47
   8   6  26   78.46   17.24
   8   6  28  136.08   19.86
   8  -6  28  138.63   18.90
   8   6  28  122.56   21.22
   8  -6  30   15.07    7.56
   8   6  30   12.11    8.54
   8  -6  32   -2.88    5.05
   8   6  32   22.35   10.94
   8   6  34    6.17    5.54
   8   6  34   10.76    8.16
   8   6  36    2.07    5.40
   8   6  36   -0.85    6.16
   8   6  38   -2.60    3.66
   8   6  38    9.58    5.15
   8   8 -26   35.88    9.17
   8   8 -24   11.99    6.02
   8   8 -22    0.61    5.15
   8   8 -20    9.36    5.29
   8   8 -18    7.05    4.72
   8   8 -16  124.77   12.28
   8   8 -14  271.75   16.89
  -8   8 -14  255.67   16.22
   8   8 -12  383.19   18.72
  -8   8 -12  386.90   18.88
  -8   8 -10   71.77    7.84
  -8   8  -8   25.70    5.33
  -8   8  -6   11.74    4.01
  -8   8  -4   41.60    5.91
   8   8  -4   42.38    5.95
   8   8  -2   53.38    7.05
  -8   8  -2   56.94    7.39
   8   8   0   98.05    8.81
  -8   8   0  108.04    9.04
  -8   8   2   55.19    7.10
   8   8   2   52.40    7.17
   8   8   4   47.50    7.37
   8   8   6    6.06    3.86
   8   8   8   16.38    6.00
   8   8  10   73.50    9.56
   8   8  12  424.02   22.52
   8   8  14  265.05   18.14
   8   8  16  122.57   13.07
   8  -8  16  119.58   12.19
   8   8  18   12.42    5.41
   8   8  20   19.78    6.90
   8  -8  24    6.54    5.68
   8   8  24   27.72   11.69
   8   8  24   19.31   10.88
   8   8  26   36.83   13.02
   8   8  26   38.02   14.36
   8   8  28  123.15   19.18
   8   8  28  119.12   21.61
   8   8  30   48.03   11.55
   8   8  30   53.95   15.73
   8   8  32   -0.45    6.18
   8   8  34   13.08    6.98
   8   8  34   14.47    9.01
   8   8  36    0.10    3.78
   8   8  36   -4.92    7.45
   8   8  38    1.61    3.39
   8   8  38   -0.68    4.28
   8  10 -26   63.61   11.79
   8  10 -24   -8.93    5.84
   8  10 -22   -0.88    4.51
   8  10 -20    6.90    4.42
   8  10 -18   62.88    9.66
   8  10 -16  268.76   18.45
  -8  10 -16  300.67   19.60
  -8  10 -14  167.48   13.91
  -8  10 -12  165.41   12.95
  -8  10 -10  114.94   11.42
  -8  10  -8   -7.54    4.24
  -8  10  -6    6.35    3.97
  -8  10  -4    3.48    3.62
   8  10  -4    6.15    3.46
  -8  10  -2   97.08    9.17
   8  10  -2   94.00    8.74
  -8  10   0 1225.22   31.90
   8  10   0 1248.86   32.37
   8  10   2  101.19    9.90
  -8  10   2   85.58    8.80
   8  10   4   -0.38    4.83
   8  10   6   11.39    4.04
   8  10   8    0.69    4.50
   8  10  10  128.74   12.61
   8  10  12  189.83   15.49
   8  10  14  186.19   15.75
   8  10  16  271.11   19.95
   8  10  18   72.36   10.63
   8  10  20    7.25    4.83
   8  10  22   -2.04    7.47
   8  10  24  -40.69   12.57
   8  10  24    4.97    8.75
   8  10  26   54.76   14.80
   8  10  26   63.57   16.27
   8  10  28   54.96   14.39
   8  10  28   50.17   15.34
   8  10  30   54.12   12.67
   8  10  30   74.89   16.96
   8  10  32   24.78   10.26
   8  10  34    1.04    4.46
   8  10  34    1.11    5.95
   8  10  36   -5.42    5.17
   8  10  36  -14.30    8.10
   8  10  38   -0.86    3.78
   8  12 -24   -3.50    5.52
   8  12 -22   10.66    6.13
  -8  12 -18  116.25   13.66
  -8  12 -16  159.76   14.68
  -8  12 -14   80.48   10.50
  -8  12 -12   67.25    9.72
  -8  12 -10   40.10    7.88
  -8  12  -8    5.40    4.49
  -8  12  -6   55.77    7.76
  -8  12  -4  111.73   10.60
   8  12  -4   95.49    9.28
   8  12  -2  197.60   13.36
  -8  12  -2  182.89   12.99
   8  12   0  998.06   30.58
  -8  12   0  971.81   29.94
   8  12   2  212.66   14.72
  -8  12   2  181.82   13.58
   8  12   4  115.74   11.48
   8  12   6   58.35    8.80
   8  12   8    3.99    4.55
   8  12  10   39.86    8.39
   8  12  12   68.00   10.01
   8  12  14   94.54   12.47
   8  12  16  160.57   15.63
   8  12  18  119.66   13.92
   8  12  22   13.50    9.11
   8  12  24    1.44    7.68
   8  12  26   17.76   10.56
   8  12  26    8.50    9.12
   8  12  28   47.53   13.77
   8  12  28   55.55   15.66
   8  12  30   33.82   10.82
   8  12  30   55.83   15.57
   8  12  32    1.66    5.51
   8  12  32    2.11    5.73
   8  12  34   -9.04    5.36
   8  12  34    6.33    6.26
   8  12  36    1.78    3.88
   8  12  36   -2.04    5.02
  -8  14 -20   10.46    6.36
  -8  14 -18   21.75    7.12
  -8  14 -16   12.62    5.67
  -8  14 -14   29.43    7.94
  -8  14 -12   38.66    9.31
  -8  14 -10   23.13    6.15
  -8  14  -8   37.92    7.47
  -8  14  -6  445.44   21.86
  -8  14  -4   42.80    7.76
  -8  14  -2   92.05   10.11
   8  14   0  108.59   10.80
  -8  14   0  104.84   11.23
   8  14   2   92.01   10.83
  -8  14   2   88.45   10.22
   8  14   4   56.60    8.50
   8  14   6  548.44   26.49
   8  14   8   42.65    8.89
   8  14  10   33.50    8.12
   8  14  12   54.99    9.96
   8  14  14   44.94   10.17
   8  14  20   10.96    9.51
   8  14  22   85.43   19.58
   8  14  24   -2.08    9.01
   8  14  26    8.48    7.61
   8  14  26   -0.39    8.71
   8  14  28   26.13   11.27
   8  14  28   37.46   13.37
   8  14  30   22.26    9.76
   8  14  30   10.83   10.42
   8  14  32   14.09    7.48
   8  14  32    0.43    6.23
   8  14  34   16.09    5.55
   8  14  34   21.76    8.70
   8  14  36    3.60    3.61
   8  14  36    3.62    4.19
  -8  16 -20   43.43    9.50
  -8  16 -18   48.17    9.89
  -8  16 -16   25.35    8.39
  -8  16 -14    5.73    4.64
  -8  16 -12    1.65    4.56
  -8  16 -10   10.30    5.10
  -8  16  -8  323.56   19.89
  -8  16  -6  166.63   14.34
  -8  16  -4   69.73    9.42
  -8  16  -2   -1.59    3.88
  -8  16   0    2.94    4.03
  -8  16   2    3.43    4.61
   8  16  18   53.27   16.88
   8  16  20   42.98   17.03
   8  16  22   32.05   12.11
   8  16  24  110.05   21.60
   8  16  26   -5.82    8.59
   8  16  26    2.30    8.12
   8  16  28   -2.77    5.99
   8  16  28   10.53    8.73
   8  16  30    9.75    7.77
   8  16  30   -7.83    9.51
   8  16  32   15.18    5.72
   8  16  32   28.84    8.71
   8  16  32   17.29    9.25
   8  16  34   24.06    6.31
   8  16  34   18.89    8.14
  -8  18 -20   52.40   10.68
  -8  18 -18  105.27   14.95
   8  18 -16  -17.78   15.32
  -8  18 -16    3.98    4.81
  -8  18 -14    2.65    4.21
  -8  18 -12   15.92    6.34
  -8  18 -10   17.80    5.96
  -8  18  -8  226.40   17.99
  -8  18  -6   93.16   11.62
  -8  18  -4   27.47    6.60
  -8  18  -2   27.45    7.64
  -8  18   0   -1.26    4.07
  -8  18   2   20.95    6.39
   8  18  14    3.51    7.89
   8  18  16    1.49    8.85
   8  18  18   98.02   20.15
   8  18  20   82.20   19.39
   8  18  22   52.43   15.57
   8  18  24   18.19   10.42
   8  18  26   -1.93    7.11
   8  18  26  -12.33   10.52
   8  18  28    0.78    6.80
   8  18  28   13.38    7.78
   8  18  30    4.45    3.71
   8  18  30   -2.32    5.49
   8  18  30   -8.99    7.81
   8  18  32    5.59    3.25
   8  18  32    7.30    5.28
   8  18  32    7.58    6.78
   8  18  34   36.44    8.80
  -8  20 -18   10.72    5.97
   8  20 -16   11.15   16.35
  -8  20 -16   -7.54    4.36
   8  20 -14   21.37   17.98
  -8  20 -14   10.76    6.00
   8  20 -12  -11.25   16.58
  -8  20 -12   -4.62    4.14
  -8  20 -10   10.62    5.90
  -8  20  -8   43.07    9.09
  -8  20  -6   40.04    8.56
  -8  20  -4   31.57    7.76
  -8  20  -2    1.91    4.14
  -8  20   0    6.53    5.23
  -8  20   2    0.16    4.24
   8  20  10    3.84    6.41
   8  20  12    9.65   11.74
   8  20  14    5.62    8.55
   8  20  16   -4.48    8.53
   8  20  18    8.86   10.86
   8  20  20   78.37   19.68
   8  20  22   39.68   14.24
   8  20  24   -5.09    8.55
   8  20  26   -1.42    7.24
   8  20  26   -5.35    8.68
   8  20  28   -8.15    7.67
   8  20  28    5.69    8.06
   8  20  30   -7.06    5.96
   8  20  30  -16.07    7.50
   8  20  32   -3.18    4.56
   8  20  32   -0.46    4.37
   8  22 -16   17.99   15.81
   8  22 -14   16.68   12.21
  -8  22 -14   35.80    9.44
   8  22 -12   -2.71   16.33
  -8  22 -12   14.85    7.25
   8  22 -10   99.16   28.25
  -8  22 -10   66.73   11.61
   8  22  -8   -6.43   13.54
  -8  22  -8   -4.69    5.06
   8  22  -6   18.68    8.27
   8  22  -6   30.44   15.94
  -8  22  -6   29.01    7.95
   8  22  -4   -5.62   16.63
  -8  22  -4   -3.81    5.28
   8  22  -2   42.12   19.36
  -8  22  -2    4.47    5.07
  -8  22   0    9.66    5.30
   8  22   2    1.99    5.89
   8  22   4   -5.34    6.79
   8  22   4   27.16   14.28
   8  22   6   23.21    9.98
   8  22   6   26.60   15.27
   8  22   8   -5.76    8.71
   8  22  10   78.23   16.07
   8  22  12   15.45   11.42
   8  22  14   28.59   12.85
   8  22  16    6.02    8.68
   8  22  18   -9.60   10.57
   8  22  20   55.30   16.27
   8  22  22   94.31   19.47
   8  22  24   19.68   12.01
   8  22  26  -18.37   10.07
   8  22  26   -3.18    7.52
   8  22  28   -1.81    6.32
   8  22  28    0.79    5.23
   8  22  30   -2.62    4.30
   8  22  30   -6.56    5.50
   8  24 -16   21.92   12.37
   8  24 -14  102.55   26.41
   8  24 -12    8.36   12.23
   8  24 -10  -10.38   18.28
  -8  24 -10   -2.08    5.42
   8  24  -8   73.06   22.36
  -8  24  -8   57.96   11.51
   8  24  -6   16.96    8.17
   8  24  -6   -7.23   13.92
  -8  24  -6   -0.92    4.38
   8  24  -4   -3.71    6.44
   8  24  -4   -2.62   12.99
  -8  24  -4   -0.02    5.17
   8  24  -2   39.88   13.10
   8  24  -2   13.60   18.70
  -8  24  -2   20.04    7.36
   8  24   0   43.08   12.52
   8  24   0   47.71   19.91
  -8  24   0   19.25    7.13
   8  24   2   25.10    9.65
   8  24   2    5.56   13.37
   8  24   4   -5.08    7.72
   8  24   4  -16.47   15.89
   8  24   6   -6.05    8.47
   8  24   6   -7.46   13.20
   8  24   8   48.89   14.41
   8  24  12   12.71    8.94
   8  24  14  104.88   20.95
   8  24  16    0.22    8.10
   8  24  18    3.88    7.67
   8  24  20   -3.24    7.30
   8  24  22    0.09    7.03
   8  24  24   19.25   10.12
   8  24  26    1.38    5.74
   8  24  26    7.07    6.54
   8  24  28    0.05    4.91
   8  24  28   10.75    6.93
   8  24  30   -5.23    4.31
   8  24  30   -4.10    3.91
   8  26 -16   45.30   17.83
   8  26 -14   69.57   23.18
   8  26 -12   46.73   21.27
   8  26 -10   -3.67   14.83
   8  26  -8   38.31   11.62
   8  26  -8   50.33   20.95
   8  26  -6   34.16   11.40
   8  26  -6   27.70   21.10
   8  26  -4   34.51   11.08
   8  26  -4   61.24   23.76
   8  26  -2   24.49    9.46
   8  26  -2   40.50   18.19
   8  26   0   35.92   10.50
   8  26   0   35.87   19.59
   8  26   2   32.51   11.13
   8  26   2   17.45   14.76
   8  26   4   16.43    8.60
   8  26   4   12.42   16.07
   8  26   6    1.83    6.76
   8  26   6   20.41   18.16
   8  26   8   19.12    7.51
   8  26  12   42.28   13.86
   8  26  14   92.44   19.91
   8  26  16   52.17   15.39
   8  26  18    7.10    8.71
   8  26  20   -2.12    7.15
   8  26  22   18.92    8.64
   8  26  24    3.92    5.37
   8  26  24    3.85    6.11
   8  26  26    5.50    4.53
   8  26  26    6.76    5.72
   8  26  28    9.12    4.62
   8  26  28   10.62    5.18
   8  28 -16   32.46   13.54
   8  28 -14   35.44   16.81
   8  28 -12   34.05   19.16
   8  28 -10   18.88   17.54
   8  28  -8    2.67    5.71
   8  28  -8   -1.08   15.85
   8  28  -6    1.16    7.12
   8  28  -6   13.29   15.01
   8  28  -4    1.47    5.21
   8  28  -4   16.36   15.06
   8  28  -2   36.25   11.21
   8  28  -2   28.91   18.37
   8  28   0   28.84    9.91
   8  28   0   33.83   18.55
   8  28   2   31.60   10.31
   8  28   2   28.27   17.39
   8  28   4    4.63    6.30
   8  28   4    2.03   13.61
   8  28   6    0.04    6.28
   8  28   6   -0.35   11.87
   8  28  10   13.78    9.75
   8  28  12   22.50   10.01
   8  28  14   75.96   17.69
   8  28  16   43.69   12.90
   8  28  18    3.85    6.21
   8  28  20    9.84    8.23
   8  28  22   -0.45    5.90
   8  28  24    3.30    4.02
   8  28  24   -2.13    5.21
   8  28  26    6.63    4.02
   8  28  26   11.78    5.34
   8  30 -14   -4.36   11.62
   8  30 -12   36.20   16.60
   8  30 -10  -10.74   12.30
   8  30  -8   -7.64    6.02
   8  30  -8   12.30   13.63
   8  30  -6   12.29    7.43
   8  30  -6   -5.56   15.68
   8  30  -4    8.85    7.49
   8  30  -4  -10.42   18.39
   8  30  -2    2.67    6.75
   8  30  -2   -7.69   14.19
   8  30   0   17.25    8.52
   8  30   0   32.24   18.03
   8  30   2    5.69    5.62
   8  30   2   -4.11   13.86
   8  30   4   -5.00    5.92
   8  30   4  -31.89   17.44
   8  30   6    6.27    6.15
   8  30   8    8.95    6.97
   8  30  10  -11.20    9.38
   8  30  12   13.25    9.27
   8  30  14   19.24    9.74
   8  30  16  -10.07    7.52
   8  30  18    9.79    6.00
   8  30  20    0.68    5.19
   8  30  22   -1.38    3.85
   8  30  22    7.93    5.15
   8  32 -10   -5.75   13.05
   8  32  -8   11.17    6.77
   8  32  -8  -10.02   17.02
   8  32  -6    5.12    5.84
   8  32  -6   -6.96   13.36
   8  32  -4    2.13    5.23
   8  32  -4   -5.77   14.30
   8  32  -2  -12.97    7.25
   8  32  -2  -25.54   17.23
   8  32   0    0.72    4.96
   8  32   2  -10.20    7.65
   8  32   6   -5.61    7.19
   8  32   8    2.74    5.88
   8  32  10    3.47    5.94
   8  32  12   -2.03    6.52
   8  32  14   -8.90    6.31
   8  32  16    9.76    7.03
   8  32  18  -18.04    5.45
   8  32  18   -2.10    5.22
   8  32  20    7.52    4.92
   8  34  -8   11.98    6.17
   8  34  -6   10.35    5.37
  -8  34  -4   11.28    5.62
   8  34  -4    3.56    4.74
   8  34  -2  -10.94    6.57
   8  34   4    9.37    6.85
   8  34   6   11.84    7.62
   8  34   8   26.18    9.40
   8  34  10    6.26    4.67
   8  34  12   -0.79    4.62
   8  34  14   -2.89    4.59
   8  36   0   -0.12    4.75
   8  36   2   -3.10    4.96
   8  36   4   17.28    7.30
   8  36   6   15.22    6.32
   8  36   8    6.16    4.97
   9   1 -27    9.71    6.08
   9  -1 -27   19.46    8.56
   9   1 -25    3.34    5.18
   9  -1 -25    8.29    5.66
   9   1 -23   -1.32    4.64
   9  -1 -23    3.83    4.87
   9   1 -21   55.93   10.29
   9  -1 -21   58.63   10.52
   9   1 -19   -1.63    4.80
   9   1 -17   -2.83    5.24
   9   1  -5    3.09    3.52
   9   1  -3   22.67    5.57
   9   1  -1  718.08   22.49
   9   1   1  691.50   23.16
   9   1   3   23.69    6.02
   9  -1   5    2.37    3.60
   9   1   5   -1.47    3.43
   9   1   7  260.61   15.44
   9  -1   7  260.42   15.38
   9  -1   9  233.27   14.87
   9   1   9  239.21   15.21
   9   1  11   37.59    7.13
   9  -1  11   38.30    7.56
   9  -1  13  237.63   15.83
   9   1  13  235.38   15.96
   9   1  15   77.81    9.72
   9  -1  15   86.35   10.19
   9   1  17   -2.86    4.34
   9  -1  17    7.89    3.41
   9  -1  19   -9.60    4.86
   9   1  19   -5.23    5.03
   9   1  25   -5.23    6.21
   9  -1  27    8.47    5.98
   9   1  29  -29.70   10.23
   9  -1  29    2.13    6.57
   9  -1  31   22.48    7.21
   9   1  31    6.68    6.29
   9  -1  33  -19.49    7.99
   9   1  33  -26.95    9.12
   9   1  35   -0.45    4.48
   9  -1  35    3.03    4.28
   9  -1  37    9.06    4.96
   9   1  37    5.48    4.80
   9   1  39    4.37    3.54
   9   3 -27   -2.40    5.11
   9  -3 -27   -4.90    7.56
   9   3 -25   47.82   10.65
   9  -3 -25   30.33    8.17
   9   3 -23   13.21    6.63
   9  -3 -23   10.93    6.56
   9   3 -21   13.70    5.98
   9   3 -19   63.40   10.52
   9   3 -17   20.10    6.15
   9   3 -15  119.56   12.01
   9   3 -13    0.73    3.97
   9   3 -11   64.48    7.72
   9   3  -5   24.40    4.61
   9   3  -3  209.66   12.06
   9   3  -1   70.00    7.27
   9   3   1   69.59    7.47
   9   3   3  156.99   11.63
  -9   3   3  135.80   10.71
   9   3   5   22.82    5.61
   9   3   7   22.25    5.46
   9   3   9  219.94   14.89
   9  -3   9  196.37   13.64
   9   3  11   75.93    9.42
   9  -3  11   68.53    8.66
   9  -3  13    0.77    4.37
   9   3  13    1.38    4.29
   9  -3  15  125.72   11.62
   9   3  15  129.66   12.49
   9  -3  17   28.49    6.19
   9   3  17   25.22    6.38
   9   3  19   63.91    9.16
   9  -3  23   14.11    5.92
   9   3  23    8.21    6.99
   9  -3  25   47.15   12.01
   9   3  25   49.49   13.44
   9  -3  27    2.90    6.50
   9   3  27   -4.79    7.02
   9  -3  29   24.17    9.71
   9  -3  31   -1.07    6.42
   9   3  31  -28.88    9.71
   9  -3  33   -9.80    7.81
   9   3  33   -7.89    7.80
   9  -3  35    5.69    4.74
   9   3  35    2.77    5.19
   9  -3  37   19.43    6.28
   9   3  37    4.17    4.88
   9   3  39   -1.59    3.46
   9   5 -25    2.90    4.77
   9  -5 -25   -1.66    6.43
   9   5 -23    0.57    4.84
   9   5 -21   71.19   11.20
   9   5 -19   22.19    6.59
   9   5 -17   -0.93    3.55
   9   5 -15   54.09    8.30
   9   5 -13   62.37    8.33
   9   5  -5    9.68    3.63
   9   5  -3   21.29    4.96
   9   5  -1    8.61    3.70
   9   5   1   -3.37    4.94
   9   5   3   11.53    3.91
   9   5   5   13.84    5.33
   9   5   7  162.44   13.20
   9   5   9    9.32    4.97
   9   5  11   15.87    4.89
   9  -5  13   54.19    7.89
   9   5  13   76.01   10.37
   9  -5  15   50.72    8.31
   9   5  15   60.53    9.00
   9   5  17   -3.10    5.55
   9  -5  17    0.66    3.86
   9   5  19   12.20    5.03
   9  -5  23   -2.88    7.29
   9   5  23   -7.17    7.56
   9  -5  25   -4.85    8.17
   9   5  25    4.68    6.64
   9  -5  27   78.03   14.86
   9   5  27   68.63   14.51
   9  -5  29   21.85    8.39
   9   5  29   25.51   10.38
   9  -5  31   -3.56    5.85
   9  -5  33   11.22    4.68
   9   5  33  -14.29    7.12
   9  -5  35   18.30    6.71
   9   5  35   12.37    6.51
   9   5  37    6.07    4.60
   9   5  39   -0.60    3.47
   9   7 -25    3.79    4.67
   9   7 -23   36.12    8.83
   9   7 -21   25.48    6.89
   9   7 -19   24.51    7.48
   9   7 -17    6.84    4.52
   9   7  -5   43.92    7.25
   9   7  -3   -1.24    3.00
  -9   7  -3    2.59    2.75
   9   7  -1    6.37    4.61
  -9   7  -1    9.62    4.38
   9   7   1    4.15    5.25
   9   7   3   -2.71    3.57
   9   7   5   36.72    7.35
   9   7   7   35.70    7.50
   9   7   9   15.66    5.68
   9   7  11    3.23    4.83
   9   7  13   40.84    7.92
   9  -7  15   45.63    8.50
   9   7  15   57.90    9.63
   9   7  17    6.76    5.37
   9  -7  17    1.30    3.63
   9   7  19   22.29    6.39
   9  -7  23   41.59    9.85
   9   7  23   35.17   10.71
   9  -7  25  -22.00    8.70
   9   7  25    6.91    8.58
   9  -7  27   43.23   11.48
   9   7  27   65.30   14.78
   9   7  27   66.00   17.33
   9  -7  29   19.49    8.53
   9   7  29   17.07    8.39
   9   7  29    9.54    7.76
   9  -7  31   10.44    6.91
   9   7  31   16.17   11.11
   9   7  33   21.69    8.58
   9   7  33    8.67    8.42
   9   7  35   21.63    7.75
   9   7  35   23.73    9.12
   9   7  37   12.01    4.83
  -9   9  -9   50.37    7.52
  -9   9  -7   62.24    8.09
   9   9  -5  118.69    9.68
  -9   9  -5  119.43   10.15
   9   9  -3   19.12    5.06
  -9   9  -3   21.04    5.24
   9   9  -1   16.84    5.01
  -9   9  -1   14.18    4.28
   9   9   1   21.17    5.61
  -9   9   1   12.65    4.10
   9   9   3   28.02    6.26
   9   9   5  140.71   12.61
   9   9   7   77.08   10.26
   9   9   9   62.61    9.04
   9   9  11   -3.15    5.65
   9   9  13   18.09    5.43
   9   9  15   23.26    6.83
   9   9  17   -5.29    5.26
   9  -9  17    3.76    4.05
   9   9  19    2.34    4.98
   9   9  21   37.09   10.90
   9  -9  23   43.57   11.59
   9   9  23   49.32   14.44
   9   9  23   47.30   12.90
   9   9  25    2.39    7.14
   9   9  25   -7.91    9.55
   9   9  27    2.66    6.85
   9   9  27   13.43   11.18
   9   9  29    7.40    7.66
   9   9  29   18.27   11.45
   9   9  31   -2.75    6.10
   9   9  31    0.71    6.77
   9   9  33   19.59    7.79
   9   9  33   19.29    8.92
   9   9  35   24.78    7.42
   9   9  35   14.11    7.14
   9   9  37   -1.28    3.46
  -9  11 -13    3.69    3.14
  -9  11 -11    6.62    3.27
  -9  11  -9   16.83    4.92
  -9  11  -7  143.08   12.06
  -9  11  -5  100.18   10.12
  -9  11  -3   22.56    5.32
   9  11  -3   23.66    5.20
  -9  11  -1  168.75   12.86
   9  11  -1  168.98   13.17
   9  11   1  186.78   14.05
  -9  11   1  164.25   12.85
   9  11   3   37.16    7.34
   9  11   5  121.88   12.14
   9  11   7  173.19   14.59
   9  11   9    6.93    4.41
   9  11  11    2.34    4.00
   9  11  13   -1.46    5.93
   9  11  15   34.04    8.55
   9  11  17   54.63    9.95
   9  11  19   -0.20    4.27
   9  11  21   59.30   10.13
   9  11  21   57.17   16.38
   9  11  23   13.34    6.15
   9  11  23   27.98   11.52
   9  11  25   -3.26    8.22
   9  11  25    5.32    8.43
   9  11  27   -2.84    7.67
   9  11  27    7.40    7.08
   9  11  29    7.46    6.54
   9  11  29   25.49   10.44
   9  11  31    1.67    5.42
   9  11  31   12.56    8.96
   9  11  33   14.31    5.97
   9  11  33   15.74    8.34
   9  11  35   37.01    8.44
   9  11  35   18.85    8.33
   9  11  37    0.60    3.04
  -9  13 -15   10.86    5.72
  -9  13 -13   45.68    8.39
  -9  13 -11   -4.89    3.58
  -9  13  -9   21.91    5.80
  -9  13  -7  128.89   12.45
  -9  13  -5  153.02   13.08
  -9  13  -3   -1.51    4.68
   9  13  -3   -6.26    4.60
  -9  13  -1  220.43   15.31
   9  13  -1  232.77   15.78
   9  13   1  243.97   16.51
  -9  13   1  233.08   16.39
   9  13   3   -3.81    5.08
   9  13   5  217.08   17.07
   9  13   7  165.56   16.06
   9  13   9   20.36    6.25
   9  13  11   -7.88    5.56
   9  13  13   36.80    8.62
   9  13  15   17.91    6.03
   9  13  17    7.09    4.88
   9  13  19   19.13   11.36
   9  13  21   31.28   13.73
   9  13  23    0.53    7.54
   9  13  23   23.16   11.75
   9  13  25   -2.86    8.87
   9  13  25   -5.30    8.68
   9  13  27    2.05    7.21
   9  13  27   -3.62    7.66
   9  13  29   17.71    9.36
   9  13  29   18.13    9.94
   9  13  31    2.07    4.00
   9  13  31    1.57    5.21
   9  13  31    8.38    8.28
   9  13  33    8.71    5.01
   9  13  33    4.82    5.07
   9  13  33    7.44    7.96
   9  13  35   17.20    5.62
   9  13  35    4.76    4.67
  -9  15 -17   -1.38    4.86
  -9  15 -15    7.64    5.40
  -9  15 -13   22.48    6.79
  -9  15 -11    7.19    4.37
  -9  15  -9   16.36    5.63
  -9  15  -7  117.61   12.48
  -9  15  -5   67.92    9.65
  -9  15  -3    1.33    3.87
  -9  15  -1  106.31   12.10
   9  15   1  121.61   12.45
  -9  15   1  115.56   12.23
   9  15   3  -17.86    6.61
   9  15   5   88.78   11.59
   9  15   7  133.67   14.49
   9  15   9   15.48    6.53
   9  15  11    9.95    5.59
   9  15  13   39.67    9.40
   9  15  17   -4.90   10.05
   9  15  19   -8.80   11.57
   9  15  21   -5.34    7.30
   9  15  23   22.80   10.57
   9  15  25   -5.30    9.17
   9  15  25   -4.57    8.05
   9  15  27   12.55    8.52
   9  15  27   21.38    9.90
   9  15  29   13.84    6.63
   9  15  29   18.55    8.34
   9  15  29    5.60    7.65
   9  15  31   -1.12    3.92
   9  15  31    6.80    7.71
   9  15  31  -14.17    7.89
   9  15  33   -0.27    3.29
   9  15  33    1.10    4.91
   9  15  33   -3.33    5.81
   9  15  35   10.03    4.00
  -9  17 -17   -7.09    5.56
  -9  17 -15    6.10    4.98
   9  17 -15   -4.56   13.75
  -9  17 -13    2.24    3.75
  -9  17 -11   23.13    6.45
  -9  17  -9    7.62    4.91
  -9  17  -7   29.85    6.95
  -9  17  -5   26.75    6.84
  -9  17  -3   22.26    6.58
  -9  17  -1   15.73    5.25
  -9  17   1   24.26    6.98
   9  17  15   13.59   10.94
   9  17  17  -10.23    9.00
   9  17  19   14.42    7.35
   9  17  21    2.14    9.87
   9  17  23    8.98   10.26
   9  17  25   -1.03    6.50
   9  17  25   -2.41    6.69
   9  17  27    6.35    7.61
   9  17  27    8.14    7.39
   9  17  29   29.53    7.98
   9  17  29   45.54   11.78
   9  17  29   25.44    9.40
   9  17  31    5.99    3.50
   9  17  31   -0.93    4.33
   9  17  31    1.97    6.02
   9  17  33   -1.67    2.82
   9  17  33    0.89    4.02
   9  17  33    7.78    5.24
  -9  19 -17  -12.13    7.66
   9  19 -17    3.92   12.78
  -9  19 -15   16.66    5.88
   9  19 -15    7.99   12.27
  -9  19 -13   21.56    6.89
   9  19 -13   40.00   19.22
  -9  19 -11   -1.52    4.12
   9  19 -11  -20.38   16.17
  -9  19  -9    5.91    4.55
  -9  19  -7   32.58    7.47
  -9  19  -5    5.65    4.58
  -9  19  -3    1.93    3.93
  -9  19  -1   23.87    7.14
  -9  19   1   22.58    7.04
   9  19  13   47.95   15.48
   9  19  15   24.10   12.86
   9  19  17    7.33    8.68
   9  19  19    7.19    7.78
   9  19  21   48.45   16.17
   9  19  23   -6.04    9.11
   9  19  25    3.93    6.76
   9  19  25   -0.60    7.67
   9  19  27   53.17   13.37
   9  19  27   50.34   13.16
   9  19  29   15.62    6.57
   9  19  29    1.84    6.48
   9  19  31    8.92    5.71
   9  19  31    6.87    6.39
   9  21 -17    5.30   12.37
   9  21 -15   35.11   17.07
  -9  21 -15   30.38    8.15
   9  21 -13   38.50   16.17
  -9  21 -13   29.78    8.24
   9  21 -11   -1.51   12.63
  -9  21 -11    1.76    4.69
   9  21  -9   13.99   14.49
  -9  21  -9   15.20    6.16
   9  21  -7    1.42   13.21
  -9  21  -7   11.69    5.59
   9  21  -5    6.75   14.11
  -9  21  -5    3.25    3.89
   9  21  -3   25.88   16.63
  -9  21  -3    3.92    4.51
  -9  21  -1   21.55    7.11
   9  21   3    6.20    5.79
   9  21   5   -9.61    7.26
   9  21   7   -0.55    6.38
   9  21  11   -1.64    7.85
   9  21  13   46.16   14.72
   9  21  15   61.71   16.48
   9  21  17   -1.20    8.90
   9  21  19   -6.22    9.13
   9  21  21   17.85   10.53
   9  21  23    6.23    7.48
   9  21  25   15.00    6.76
   9  21  25   16.77   10.16
   9  21  27   15.50    6.63
   9  21  27   26.00   10.24
   9  21  29    7.03    5.61
   9  21  29    0.53    6.06
   9  21  31   -7.04    5.73
   9  21  31   10.90    6.73
   9  23 -17   -2.23   13.11
   9  23 -15   22.73   15.26
   9  23 -13   -2.38   15.67
   9  23 -11  -27.12   19.11
  -9  23 -11    2.80    4.42
   9  23  -9   56.01   22.49
  -9  23  -9   51.23   10.68
   9  23  -7   -1.07   14.47
  -9  23  -7    3.72    4.21
   9  23  -5   -0.67    5.29
   9  23  -5  -10.33   16.57
  -9  23  -5   -4.01    4.78
   9  23  -3    9.95    8.16
   9  23  -3  -13.54   16.70
  -9  23  -3   -0.03    4.75
   9  23  -1    9.97    7.39
   9  23  -1   22.59   13.36
  -9  23  -1    9.54    5.41
   9  23   1   17.53    8.69
   9  23   1   24.25   15.98
   9  23   3   12.84    7.37
   9  23   3    7.39   11.91
   9  23   5  -11.29   10.28
   9  23   5    5.23   13.14
   9  23   7   24.13   10.81
   9  23  11  -16.26   10.45
   9  23  13   37.72   13.94
   9  23  15   30.54   12.82
   9  23  17   -2.55    6.62
   9  23  19   19.52    8.03
   9  23  21   22.25   11.08
   9  23  23    4.56    6.23
   9  23  25   -1.71    6.18
   9  23  25    9.57    7.10
   9  23  27   -6.01    5.46
   9  23  27   -1.73    5.65
   9  23  29   -2.85    4.32
   9  23  29   -6.11    5.42
   9  25 -17    6.58   10.69
   9  25 -15    5.94   12.40
   9  25 -13  -26.54   19.10
   9  25 -11  -24.63   18.69
   9  25  -9   -9.92   14.87
   9  25  -7   99.98   26.62
   9  25  -5   14.85    9.59
   9  25  -5   17.60   15.64
   9  25  -3    1.42    6.33
   9  25  -3   10.51   15.04
  -9  25  -3    2.83    4.08
   9  25  -1   13.14    9.42
   9  25  -1  -14.73   15.39
   9  25   1    4.78    5.79
   9  25   1   -0.91   15.25
   9  25   3   13.95    8.76
   9  25   3   34.68   16.76
   9  25   5   -4.79    7.14
   9  25   5   -7.41   14.85
   9  25   7   43.20   12.00
   9  25  11    8.64    7.18
   9  25  13   18.16   11.48
   9  25  15   19.19   11.83
   9  25  17   -4.01    6.99
   9  25  19    8.68    8.67
   9  25  21   10.42    8.83
   9  25  23    1.92    4.89
   9  25  23   23.63    9.19
   9  25  25   -1.72    5.32
   9  25  25   -5.10    4.74
   9  25  27    2.81    3.72
   9  25  27    7.39    5.70
   9  27 -17   -3.95   11.05
   9  27 -15    3.64   11.65
   9  27 -13   10.67   12.10
   9  27 -11    1.12   12.25
   9  27  -9    5.12   13.65
   9  27  -7    7.10    5.54
   9  27  -7   26.32   18.34
   9  27  -5    9.82    7.17
   9  27  -5   37.14   19.66
   9  27  -3   24.55    9.73
   9  27  -3   11.51   17.01
   9  27  -1   -2.46    7.21
   9  27  -1   26.55   19.40
   9  27   1    6.31    7.16
   9  27   1    2.62   12.45
   9  27   3    9.64    8.67
   9  27   3  -13.96   15.83
   9  27   5   24.38    9.38
   9  27   5    1.83   11.49
   9  27   9   48.92   14.90
   9  27  11   -1.36    8.01
   9  27  13    6.04    8.67
   9  27  15   23.01    9.75
   9  27  17    8.28    8.51
   9  27  19    2.61    6.87
   9  27  21    9.81    6.59
   9  27  23   -2.76    5.25
   9  27  23   11.80    7.81
   9  27  25    5.45    3.94
   9  27  25   -5.02    5.04
   9  29 -17  -16.08   12.98
   9  29 -15  -21.24   13.90
   9  29 -13  -11.76   10.15
   9  29 -11    4.40   13.81
   9  29  -9    1.40   11.96
   9  29  -7   -0.40    5.31
   9  29  -7   22.34   16.91
   9  29  -5   10.74    7.39
   9  29  -5    5.65   12.87
   9  29  -3    0.01    5.38
   9  29  -3   -0.38   12.37
   9  29  -1    1.18    5.69
   9  29  -1    0.21   12.67
   9  29   1   16.00    7.90
   9  29   1  -15.44   15.67
   9  29   3  -10.46    7.16
   9  29   3  -11.22   13.53
   9  29   5   -5.10   14.08
   9  29   9    2.66    6.42
   9  29  11    0.43    7.41
   9  29  13   16.82    9.37
   9  29  15    8.57    7.37
   9  29  17  -16.38    8.60
   9  29  19   14.22    7.64
   9  29  21   -3.95    3.64
   9  29  21    9.23    6.21
   9  29  23    4.21    3.19
   9  29  23   -1.84    4.80
   9  31 -13   -7.92   10.84
   9  31 -11   10.78   13.09
   9  31  -9   -9.88   10.49
   9  31  -7   15.34    7.18
   9  31  -7   -4.08   14.72
   9  31  -5   12.63    7.16
   9  31  -5    1.03   11.59
   9  31  -3    8.58    6.66
   9  31  -3   -1.46   10.90
   9  31  -1   -3.76    5.78
   9  31  -1   -1.48   13.36
   9  31   1   -5.82    5.70
   9  31   1  -25.17   14.26
   9  31   3  -39.24   18.05
   9  31   7   14.49    8.93
   9  31   9    6.14    6.81
   9  31  11    4.37    6.97
   9  31  13    4.84    5.81
   9  31  15   -1.08    5.39
   9  31  17   -3.76    4.52
   9  31  17    6.63    5.09
   9  31  19  -14.89    5.13
   9  31  19   -4.87    4.68
   9  33  -7    6.96    5.52
   9  33  -5   -0.85    4.31
   9  33  -3   -4.13    5.49
   9  33   5   14.21    7.99
   9  33   7   18.66    8.17
   9  33   9    8.63    6.79
   9  33  11    1.35    4.97
   9  33  13   -3.15    5.13
   9  33  15   -9.07    5.76
   9  35   1   13.39    7.08
   9  35   3  -10.33    6.25
   9  35   5    1.55    4.83
   9  35   7    6.75    5.40
   9  35   9    5.14    4.74
   9  35  11   -1.09    3.64
  10   0 -26  133.19   17.12
  10   0 -24   14.98    6.60
  10   0 -22   45.42    9.62
  10   0 -20    9.35    5.97
  10   0 -18  117.86   13.72
  10   0  -6  168.24   11.06
  10   0  -4   37.39    5.62
  10   0  -2  729.27   23.91
  10   0   0 1739.88   38.00
  10   0   2  805.20   26.48
  10   0   4   48.62    7.10
  10   0   6  192.71   14.04
  10   0   8   33.01    6.67
  10   0  10   57.81    8.31
  10   0  12  223.29   16.19
  10   0  14  393.01   21.90
  10   0  16   52.06    8.52
  10   0  18  116.94   12.98
  10   0  22   39.85   10.44
  10   0  22   42.46   13.45
  10   0  24    8.63    6.52
  10   0  24   17.38    8.41
  10   0  26  117.88   18.63
  10   0  26  124.39   19.42
  10   0  28   57.64   13.59
  10   0  30   68.85   14.17
  10   0  32   25.14    9.21
  10   0  34   15.38    6.24
  10   0  36    3.44    4.57
  10   0  38    5.69    4.44
  10   2 -26   32.48    7.49
  10  -2 -26   41.49   10.33
  10   2 -24   46.12   10.32
  10  -2 -24   53.68   10.92
  10   2 -22   -4.94    5.31
  10  -2 -22   -2.15    5.40
  10   2 -20    5.07    5.27
  10  -2 -20   13.42    6.79
  10   2 -18    6.32    4.28
  10   2 -16  107.89   12.47
  10   2  -6    0.03    2.70
  10   2  -4  176.53   11.51
  10   2  -2  458.74   18.87
  10   2   0  653.31   23.70
  10   2   2  424.18   19.40
  10   2   4  195.23   13.55
  10   2   6    0.52    4.22
  10  -2   6    2.23    4.13
  10   2   8   -3.19    4.15
  10  -2   8   -7.95    4.57
  10  -2  10    0.09    4.00
  10   2  10    3.43    4.20
  10  -2  12  187.28   14.62
  10   2  12  216.19   15.84
  10   2  14  176.27   15.17
  10  -2  14  174.69   14.62
  10   2  16  112.23   12.21
  10  -2  16  119.75   12.80
  10   2  18    7.80    4.93
  10  -2  18   17.40    6.26
  10   2  20    3.67    4.10
  10  -2  22   -8.58    7.67
  10  -2  22   -5.24    7.29
  10   2  22    3.28    5.47
  10  -2  24   48.23   12.59
  10   2  24   47.89   13.11
  10  -2  24   47.84   12.11
  10  -2  26   38.66    9.59
  10   2  26   30.63    9.40
  10  -2  26   31.70   10.28
  10   2  26   42.17   13.40
  10   2  28   62.74   14.52
  10  -2  28   69.64   15.18
  10   2  28   63.19   13.46
  10  -2  30   66.72   14.19
  10   2  30   45.49   11.86
  10   2  32    4.21    5.41
  10  -2  32   17.87    8.53
  10   2  34  -11.81    6.38
  10  -2  34    7.53    5.96
  10   2  36   -4.14    4.90
  10  -2  36   -2.27    4.69
  10   2  38    3.72    3.89
  10   4 -26   11.09    6.16
  10   4 -24   -8.22    5.92
  10  -4 -24   -6.60    5.98
  10   4 -22   -1.62    4.76
  10   4 -20    5.44    4.56
  10   4 -18   -9.21    5.25
  10   4  -4   61.01    7.50
  10   4  -2   97.63    9.38
  10   4   0   -8.74    5.46
  10   4   2   58.00    7.33
  10   4   4   47.68    6.77
  10   4   6   34.26    6.58
  10   4   8   35.04    7.88
  10  -4  10    3.43    3.96
  10   4  10    2.34    4.27
  10   4  12   11.66    5.81
  10  -4  12    0.77    4.82
  10  -4  14   91.06   10.74
  10   4  14   91.15   11.71
  10  -4  16   57.34    8.78
  10   4  16   60.34    9.39
  10  -4  18   10.02    5.12
  10   4  18    0.95    4.43
  10   4  20   13.62    6.11
  10  -4  22   -6.05    7.12
  10   4  22   -0.81    7.37
  10  -4  22   13.36    7.19
  10  -4  24   -0.39    6.37
  10   4  24   -2.47    7.08
  10  -4  24    0.77    7.01
  10  -4  26   19.98    7.97
  10   4  26    3.20    6.78
  10  -4  28   23.36    9.81
  10   4  28   24.94    8.48
  10   4  28   40.17   11.62
  10  -4  30   13.05    8.17
  10   4  30   17.48    7.47
  10   4  30   10.26    6.77
  10  -4  32    1.72    4.87
  10   4  32  -18.84    8.15
  10  -4  34    3.96    4.37
  10   4  34    4.09    5.20
  10  -4  36    5.82    4.48
  10   4  36    9.91    5.62
  10   4  38   -3.67    4.80
  10   6  -4   18.73    4.79
  10   6  -2   42.19    6.53
  10   6   0   -2.95    4.25
  10   6   2   43.87    7.29
  10   6   4   14.63    5.43
  10   6   6  140.52   12.94
  10   6   8   90.59   11.07
  10   6  10   63.69   10.48
  10   6  12   10.49    6.21
  10  -6  12    8.52    4.19
  10   6  14    7.87    4.51
  10  -6  14    0.10    3.94
  10   6  16    9.09    5.12
  10  -6  16    5.82    3.92
  10   6  18   53.76    9.46
  10  -6  18   44.52    8.02
  10   6  20   81.77   11.70
  10  -6  22   69.57   13.44
  10  -6  22   90.83   16.57
  10   6  22   53.00   14.58
  10  -6  24   15.77    8.69
  10   6  24   41.09   13.46
  10  -6  26   -3.37    6.38
  10   6  26    9.07    9.19
  10   6  28   -0.60    5.64
  10   6  28   13.17    9.12
  10  -6  30    2.60    5.37
  10   6  30   -5.96    7.43
  10   6  30    6.06    5.54
  10  -6  32    8.30    6.22
  10   6  32   -2.95    5.98
  10  -6  34   45.70   10.04
  10   6  34   38.74    9.20
  10   6  36   25.06    7.76
  10   6  38   13.77    4.37
  10   8  -4  299.02   15.82
  10   8  -2   38.07    6.09
  10   8   0   31.71    7.01
  10   8   2   39.89    7.26
  10   8   4  355.37   19.86
  10   8   6  186.81   15.15
  10   8   8  326.69   20.52
  10   8  10  104.24   11.98
  10   8  12   25.39    6.99
  10   8  14   -0.29    5.26
  10  -8  14    3.37    4.80
  10   8  16    1.41    4.64
  10  -8  16    2.20    3.80
  10   8  18   23.81    7.39
  10   8  20  163.95   16.31
  10   8  20  159.56   21.95
  10   8  22  149.63   22.71
  10  -8  22  141.33   18.93
  10  -8  24   75.05   14.32
  10   8  24   73.55   16.36
  10  -8  26    0.18    5.84
  10   8  26   -0.47    7.14
  10  -8  28    3.68    6.99
  10   8  28    3.27    6.61
  10  -8  30    7.67    6.20
  10   8  30   -6.37    5.57
  10   8  30   18.21    9.38
  10   8  32   41.91   11.13
  10   8  32   24.92    8.38
  10   8  34   43.13   10.32
  10   8  36   60.30   10.35
  10  10  -4  132.92   11.20
 -10  10  -4  115.11   10.88
 -10  10  -2    9.20    3.54
  10  10  -2    8.89    4.44
 -10  10   0    8.51    3.59
  10  10   0   15.06    4.87
  10  10   2   18.33    5.71
  10  10   4  165.11   14.69
  10  10   6  441.56   23.80
  10  10   8  216.53   17.24
  10  10  10  122.78   13.51
  10  10  12    9.67    4.80
  10  10  14  -12.22    6.71
  10 -10  16   17.69    5.95
  10  10  16   25.65    8.06
  10  10  18   13.38    6.10
  10  10  20  121.51   14.96
  10  10  20  122.62   21.02
  10 -10  20   98.50   16.09
  10  10  22  151.30   23.47
  10 -10  22  173.10   19.99
  10  10  24   51.03   13.95
  10  10  26   22.46   10.39
  10  10  28   -3.98    6.31
  10  10  28    6.28    8.20
  10  10  30    4.60    5.73
  10  10  30   -4.64    7.96
  10  10  32   36.32    8.78
  10  10  32   44.26   10.40
  10  10  34   60.34   11.13
  10  10  36   28.43    6.99
 -10  12  -8  168.12   14.06
 -10  12  -6  168.78   13.79
  10  12  -4   49.74    7.59
 -10  12  -4   40.90    7.04
  10  12  -2   -3.43    4.05
 -10  12  -2    5.53    4.17
  10  12   0   19.42    5.71
 -10  12   0   26.48    6.22
  10  12   2   -0.82    4.06
  10  12   4   67.52   10.27
  10  12   6  211.14   17.65
  10  12   8  205.79   17.40
  10  12  10   47.04    8.51
  10  12  12   -3.16    4.97
  10  12  14   -2.34    4.60
  10  12  16   15.96    7.50
  10  12  18   12.16    5.88
  10  12  20   32.27    8.56
  10  12  20   39.16   14.17
  10  12  22   73.92   16.71
  10  12  24   33.53   11.94
  10  12  24   31.63   12.74
  10  12  26    3.43    7.41
  10  12  26   -0.52    8.08
  10  12  28    3.67    4.37
  10  12  28    1.97    5.77
  10  12  28   -1.21    6.23
  10  12  30   -3.35    4.92
  10  12  30    0.72    5.55
  10  12  30    5.85    6.93
  10  12  32    9.84    5.42
  10  12  32    4.77    5.54
  10  12  32   11.27    6.97
  10  12  34   42.26    8.98
  10  12  36   13.20    5.16
 -10  14 -10   11.48    5.48
 -10  14  -8   62.01    9.40
 -10  14  -6   31.43    6.95
 -10  14  -4   16.77    5.30
 -10  14  -2   17.82    5.80
  10  14  -2   29.90    6.46
  10  14   0  207.23   16.22
 -10  14   0  198.02   16.23
  10  14   2   29.62    6.53
  10  14   4   22.17    7.09
  10  14   6   37.87    8.73
  10  14   8   91.71   12.46
  10  14  10   10.09    5.93
  10  14  12    1.97    5.04
  10  14  14   17.99    7.62
  10  14  16    1.86    5.08
  10  14  20    7.09   10.16
  10  14  22  -21.60   10.77
  10  14  22    1.34    7.65
  10  14  24   10.07    9.01
  10  14  24   14.60    9.32
  10  14  26   -2.25    6.33
  10  14  26   -2.56    6.60
  10  14  26    2.99    7.32
  10  14  28    8.20    5.71
  10  14  28    1.48    6.87
  10  14  28   -6.89    8.59
  10  14  30    5.55    4.68
  10  14  30    8.64    6.22
  10  14  30    0.59    6.07
  10  14  32    4.14    3.38
  10  14  32    6.87    5.97
  10  14  34   12.56    5.10
  10  14  34    1.91    3.71
  10  16 -16   61.07   19.30
  10  16 -14   33.15   16.49
 -10  16 -12   37.27    8.18
 -10  16 -10   28.54    7.64
 -10  16  -8    3.74    4.01
 -10  16  -6   12.86    4.75
 -10  16  -4    2.96    3.54
 -10  16  -2   91.13   11.59
 -10  16   0  210.25   17.16
  10  16   4    9.44    5.38
  10  16   6   14.13    5.69
  10  16   8    4.59    4.66
  10  16  10   26.20    7.81
  10  16  14   64.63   17.53
  10  16  16   69.45   18.30
  10  16  18   -0.81   10.35
  10  16  20   -0.98    8.24
  10  16  22   -3.37    9.26
  10  16  22    1.83    7.82
  10  16  24    2.65    7.18
  10  16  24    8.71   10.33
  10  16  26   22.04    9.64
  10  16  26   41.64   12.97
  10  16  28   42.61    9.46
  10  16  28   44.51   12.65
  10  16  28   35.79   11.47
  10  16  30   20.15    6.47
  10  16  30   14.75    7.47
  10  16  30   21.11    8.84
  10  16  32    7.72    3.88
  10  16  32    5.44    5.43
  10  16  32    8.23    6.68
  10  18 -16  103.48   27.18
  10  18 -14  121.10   30.44
 -10  18 -14   82.02   12.11
  10  18 -12   54.96   20.61
 -10  18 -12   57.10   10.60
  10  18 -10   34.28   19.26
 -10  18 -10   28.65    7.70
 -10  18  -8   19.69    6.23
 -10  18  -6   -0.67    4.15
 -10  18  -4   34.84    7.92
 -10  18  -2  137.32   14.62
 -10  18   0  124.18   14.17
  10  18  12   88.83   19.63
  10  18  14  116.44   21.85
  10  18  16   39.81   12.55
  10  18  18    9.89    7.76
  10  18  20   -9.33   10.23
  10  18  22   -4.91    7.73
  10  18  24   28.95   11.16
  10  18  24   33.45   12.16
  10  18  26   50.99   13.41
  10  18  26   32.50   11.71
  10  18  28   71.81   14.70
  10  18  28   45.75   11.82
  10  18  30   36.98    9.83
  10  18  30   41.45   10.81
  10  18  32    5.86    5.00
  10  18  32   13.71    5.83
  10  20 -18   23.39   16.50
  10  20 -16   65.49   21.03
  10  20 -14  115.76   28.23
 -10  20 -14   73.62   11.97
  10  20 -12   78.58   22.99
 -10  20 -12   49.05    9.34
  10  20 -10    8.63   17.12
 -10  20 -10    7.23    5.35
  10  20  -8   20.60   16.74
 -10  20  -8    6.13    4.38
  10  20  -6   14.31   15.46
 -10  20  -6   10.04    4.97
  10  20  -4   68.72   24.15
 -10  20  -4   37.16    8.76
  10  20  -2   94.18   26.00
 -10  20  -2   42.33    8.40
  10  20   4   39.66   11.45
  10  20   6   -1.07    5.87
  10  20  12  134.71   23.80
  10  20  14  129.11   23.82
  10  20  16   35.08   12.49
  10  20  18   -2.64    8.62
  10  20  20    9.49    7.26
  10  20  22   -0.97    5.67
  10  20  22   -9.71    6.47
  10  20  24   10.53    8.36
  10  20  24   10.40    8.31
  10  20  26   39.69   10.49
  10  20  26   30.52   10.32
  10  20  28   65.24   12.41
  10  20  28   14.47    8.11
  10  20  30   20.31    6.43
  10  20  30   37.39    9.70
  10  22 -18  -15.58   14.86
  10  22 -16    4.42   12.84
  10  22 -14   54.70   22.22
  10  22 -12    1.62   12.54
  10  22 -10   17.32   15.53
 -10  22 -10   -1.07    3.94
  10  22  -8   72.01   25.32
 -10  22  -8   59.66   10.84
  10  22  -6   23.03   17.80
 -10  22  -6    6.23    4.43
  10  22  -4   11.50   14.92
 -10  22  -4   -2.23    4.38
  10  22  -2   36.76   11.67
  10  22  -2   43.56   20.37
 -10  22  -2   20.94    7.33
  10  22   0    9.94    7.42
  10  22   0   27.10   17.85
  10  22   2   16.60    8.96
  10  22   2   62.88   22.66
  10  22   4  -10.08    9.09
  10  22   4  -17.05   17.44
  10  22   6    9.50    6.43
  10  22   6   28.15   16.14
  10  22  10   24.43   13.66
  10  22  12   26.97   13.32
  10  22  14   71.93   19.05
  10  22  16   18.10   11.04
  10  22  18    0.17    7.36
  10  22  20    4.65    8.62
  10  22  22    5.75    4.97
  10  22  22    5.93    8.96
  10  22  24   -7.50    6.93
  10  22  24  -15.02    9.75
  10  22  26   17.68    8.40
  10  22  26   18.94    8.27
  10  22  28    1.10    4.36
  10  22  28  -19.07    7.93
  10  22  30   14.67    5.53
  10  24 -18    9.84   11.09
  10  24 -16  -19.98   17.25
  10  24 -14  -12.56   16.56
  10  24 -12   -5.21   17.25
  10  24 -10   20.97   18.23
  10  24  -8   24.25   13.24
  10  24  -6   35.23   15.19
  10  24  -4   -8.87    8.02
  10  24  -4   -0.51   13.55
 -10  24  -4    3.89    4.17
  10  24  -2   18.30    8.53
  10  24  -2  -10.78   13.43
  10  24   0   25.67   11.53
  10  24   0    8.74   14.06
  10  24   2    4.17    6.34
  10  24   2   26.45   21.84
  10  24   4    0.64    6.05
  10  24   4   -1.66   11.48
  10  24   6   60.34   22.24
  10  24  10   29.10   12.92
  10  24  12    4.94    9.39
  10  24  14    5.26    8.54
  10  24  16    9.26    9.18
  10  24  18   -0.83    6.80
  10  24  20   18.31   10.81
  10  24  22   19.03    9.21
  10  24  22   35.73   11.78
  10  24  24   -9.41    7.45
  10  24  24   -2.63    5.55
  10  24  26   -0.07    4.31
  10  24  26  -13.25    7.32
  10  24  28  -12.02    5.85
  10  26 -18   22.95   14.90
  10  26 -16   -2.01   10.60
  10  26 -14   13.84   12.99
  10  26 -12   10.76   14.32
  10  26 -10   29.43   19.80
  10  26  -8   40.83   19.52
  10  26  -6   74.39   28.64
  10  26  -4   19.81    8.88
  10  26  -4   10.43   16.69
  10  26  -2   27.62   10.07
  10  26  -2    9.65   15.87
  10  26   0   12.55    9.18
  10  26   0    8.00   13.99
  10  26   2   21.07   10.09
  10  26   2   13.55   17.50
  10  26   4   19.85   10.04
  10  26   4    9.96   16.50
  10  26   6   85.92   24.43
  10  26  10   21.36   12.00
  10  26  12   12.26    9.52
  10  26  14   -5.18    8.42
  10  26  16   -2.23    6.82
  10  26  18   -0.72    7.10
  10  26  20   29.12    9.21
  10  26  20   39.90   11.95
  10  26  22   21.27    8.31
  10  26  22   45.29   11.42
  10  26  24    4.47    4.68
  10  26  24   11.23    6.35
  10  26  26    1.85    3.57
  10  28 -18    2.87   10.01
  10  28 -16   -2.30    9.97
  10  28 -14   16.51   14.95
  10  28 -12   -0.25   12.90
  10  28 -10   58.91   23.76
  10  28  -8   40.25   19.39
  10  28  -6   29.41   10.07
  10  28  -6   55.72   21.86
  10  28  -4   22.42    8.19
  10  28  -4   33.80   21.29
  10  28  -2   26.35    9.88
  10  28  -2   27.35   20.16
  10  28   0   15.99   10.10
  10  28   0  -21.60   16.84
  10  28   2   13.81    8.02
  10  28   2   12.17   16.72
  10  28   4    7.07   11.80
  10  28   6   20.06   15.84
  10  28   8   48.35   14.58
  10  28  10   33.79   12.17
  10  28  12   -2.56    7.78
  10  28  14    7.50    7.02
  10  28  16   -9.10    6.98
  10  28  18    8.54    5.09
  10  28  18   21.12    9.30
  10  28  20   13.99    5.84
  10  28  20   19.60    8.68
  10  28  22   14.21    6.13
  10  28  22   -2.86    4.28
  10  28  24    8.92    4.19
  10  30 -16  -14.34   12.37
  10  30 -14   -0.33   11.21
  10  30 -12    4.30   13.98
  10  30 -10   24.80   15.87
  10  30  -8   18.82   16.48
  10  30  -6   12.43    6.40
  10  30  -6   27.72   17.24
  10  30  -4   -0.14    4.94
  10  30  -4   11.20   13.75
  10  30  -2   -5.16    6.19
  10  30  -2   -1.09   11.45
  10  30   0   -6.57   15.01
  10  30   2   -8.47   10.65
  10  30   4    0.06   12.10
  10  30   6   -5.93   12.46
  10  30   6   35.18   11.44
  10  30   8   39.67   11.65
  10  30  10    5.73    5.43
  10  30  12    4.06    5.49
  10  30  14   -2.93    4.23
  10  30  14   -4.09    5.09
  10  30  16  -12.73    5.98
  10  30  16    6.53    6.16
  10  30  18   -7.02    5.10
  10  30  18    0.71    4.53
  10  30  20    4.75    4.11
  10  30  20   17.49    6.52
  10  32 -10    1.00   10.14
  10  32  -8  -10.62   11.28
  10  32  -6  -24.33   14.79
  10  32  -4    5.66   11.26
  10  32  -2  -13.89   12.64
  10  32   0   -4.68   11.41
  10  32   4   -6.41    6.31
  10  32   6    5.87    7.87
  10  32   8   15.58    7.53
  10  32  10    1.38    5.06
  10  32  12   -2.47    4.76
  10  32  14  -11.19    6.56
  10  32  16    3.73    4.66
  10  34   2   12.24    6.23
  10  34   4   15.90    6.03
  10  34   6   -0.56    4.67
  10  34   8    3.49    4.22
  10  34  10   -7.37    5.95
  11  -1 -25  102.57   15.05
  11   1 -23   41.59    9.67
  11  -1 -23   30.21    8.46
  11  -1 -21   19.90    7.39
  11  -1 -19   31.61    8.15
  11  -1  -5   95.40    9.20
  11   1  -5   76.34    8.18
  11   1  -3  423.55   18.98
  11  -1  -3  437.02   19.82
  11   1  -1  679.35   24.70
  11  -1  -1  625.52   24.42
  11   1   1  664.60   25.40
  11  -1   1  729.80   27.19
  11   1   3  450.00   21.32
  11  -1   3  472.78   22.25
  11   1   5   93.90   10.36
  11  -1   5   85.46    9.92
  11   1   7   66.13    9.34
  11  -1   7   61.37    8.64
  11   1   9   46.51    7.71
  11  -1   9   60.08    8.27
  11   1  11  229.45   16.75
  11  -1  11  227.68   16.70
  11   1  13  227.40   17.35
  11  -1  13  220.46   17.09
  11   1  15  133.01   14.22
  11  -1  15  142.26   14.17
  11   1  17  127.32   14.12
  11  -1  17  124.16   13.64
  11   1  19   29.47    7.73
  11  -1  19   27.87    7.73
  11   1  21   19.33    7.35
  11  -1  21   11.76    6.92
  11   1  21   20.35   10.91
  11  -1  21   24.29   11.04
  11  -1  23   36.83   10.96
  11   1  23   39.51   11.62
  11  -1  23   31.71   12.02
  11   1  23   51.12   13.42
  11  -1  25  118.50   20.12
  11   1  25  134.47   21.10
  11  -1  25  119.41   18.62
  11   1  25  118.98   18.41
  11  -1  27  153.32   20.86
  11   1  27   98.65   18.09
  11  -1  27  146.16   20.55
  11   1  27  154.72   21.24
  11   1  29  154.93   20.79
  11  -1  29  137.15   19.73
  11   1  29  159.83   21.07
  11  -1  31   56.23   12.82
  11   1  31   48.68   12.23
  11   1  33   39.28   10.51
  11  -1  33   26.53    9.10
  11   1  35    3.13    4.55
  11  -1  35    7.33    5.72
  11   1  37    4.74    4.66
  11  -1  37   13.80    5.46
  11  -3 -25    1.99    5.61
  11  -3 -23   16.90    7.53
  11  -3 -21   12.04    7.07
  11   3  -5   54.09    7.08
  11   3  -3   80.20    8.83
  11   3  -1  292.71   17.87
  11   3   1  248.31   16.68
  11   3   3   82.34    9.16
  11  -3   5   57.72    8.41
  11   3   5   53.18    7.91
  11  -3   7   12.40    4.79
  11   3   7    4.98    4.62
  11   3   9   13.72    6.24
  11  -3   9   15.33    5.75
  11  -3  11   -2.95    4.40
  11   3  11    5.04    4.78
  11   3  13  192.60   16.52
  11  -3  13  155.65   14.50
  11  -3  15   88.41   10.94
  11   3  15   87.83   11.36
  11   3  17    5.70    4.76
  11  -3  17   16.15    6.20
  11   3  19    3.60    5.05
  11  -3  19   13.47    5.55
  11  -3  21    5.66    6.44
  11   3  21   -5.68    5.99
  11   3  21    7.70    7.25
  11  -3  21    1.29    5.97
  11  -3  23   12.89    8.03
  11   3  23    7.33    5.27
  11  -3  23    5.24    6.57
  11   3  23   11.23    8.03
  11  -3  25   15.09    7.45
  11   3  25    1.30    5.43
  11   3  25   13.45    9.47
  11  -3  25   12.15    7.70
  11  -3  27   84.96   16.20
  11   3  27   85.21   16.15
  11   3  27   88.20   17.22
  11  -3  27   82.32   16.25
  11  -3  29   67.65   14.34
  11   3  29   53.66   13.38
  11   3  29   35.95   11.10
  11  -3  31   30.10    9.50
  11   3  31   22.69    8.47
  11  -3  33   -3.51    5.30
  11   3  33    2.83    4.98
  11   3  35   -0.71    4.20
  11  -3  35    5.10    4.46
  11   3  37   -2.55    3.51
  11  -3  37   -8.31    4.80
  11  -5 -23   55.77   11.99
  11   5  -3   14.84    5.49
  11   5  -1   24.01    7.71
  11   5   1   21.23    6.33
  11   5   3    2.70    4.71
  11   5   5   49.68    8.25
  11   5   7   40.51    8.24
  11   5   9  123.23   13.23
  11  -5   9  128.67   13.29
  11  -5  11    1.83    4.86
  11   5  11    5.57    5.47
  11   5  13   -3.46    4.53
  11  -5  13   -6.08    4.59
  11   5  15   47.53    9.04
  11  -5  15   42.76    7.70
  11  -5  17   -7.42    5.41
  11   5  17   -4.70    5.40
  11   5  19   40.62    8.62
  11  -5  19   38.08    8.12
  11  -5  21   18.54    9.09
  11   5  21    6.79    6.13
  11   5  21   16.88    5.95
  11  -5  21   19.81   10.67
  11   5  21   17.94    9.16
  11   5  23   46.13   12.11
  11  -5  23   42.70   11.11
  11  -5  23   33.89   11.93
  11   5  23   41.05   12.79
  11  -5  25    0.41    5.17
  11   5  25    7.13    6.94
  11  -5  25    7.92    6.75
  11   5  25   12.43    9.11
  11  -5  27    5.67    6.01
  11   5  27    0.32    5.74
  11   5  27    7.94    8.35
  11  -5  29    5.71    7.46
  11   5  29   14.90    8.94
  11   5  29    6.05    7.01
  11   5  31    1.03    4.84
  11  -5  31   -0.23    4.76
  11   5  31    0.82    5.02
  11  -5  33    7.68    6.02
  11   5  33    1.31    5.52
  11  -5  35    7.86    4.79
  11   5  35   18.44    6.73
  11   5  37   23.90    6.71
  11   7  -3   56.29    8.06
  11   7  -1   -0.01    3.62
  11   7   1    3.79    4.27
  11   7   3   60.70    8.92
  11   7   5  201.55   16.16
  11   7   7  334.88   21.20
  11   7   9  148.82   14.93
  11   7  11  113.06   13.23
  11  -7  13   28.34    7.38
  11   7  13   44.51    9.29
  11   7  15    1.62    4.98
  11  -7  15   -2.71    4.59
  11   7  17   -8.39    6.32
  11  -7  17   -3.24    5.23
  11   7  19  127.74   14.92
  11   7  19  103.45   18.07
  11   7  19  112.12   16.60
  11   7  21  190.01   17.89
  11   7  21  167.00   23.85
  11  -7  21  211.31   23.20
  11   7  21  180.35   21.14
  11   7  23   71.22   14.86
  11  -7  23   94.34   15.55
  11   7  23  112.88   21.06
  11  -7  25   14.48    7.80
  11   7  25   26.60    9.51
  11   7  25   22.84   11.15
  11  -7  27   13.79    7.98
  11   7  27   -1.00    5.82
  11   7  27   10.16    8.46
  11  -7  29   24.90   10.09
  11   7  29    5.58    7.16
  11   7  29   21.26   10.15
  11  -7  31   13.51    7.22
  11   7  31   20.08    9.21
  11   7  31   10.56    7.13
  11   7  33   31.78    9.14
  11  -7  33   34.75    9.30
  11   7  35   54.53   10.52
  11   7  37   20.49    6.10
  11   9  -3  114.07   11.15
  11   9  -1   37.53    7.07
  11   9   1   34.98    7.12
  11   9   3  138.20   13.41
  11   9   5  321.39   20.75
  11   9   7  405.79   24.20
  11   9   9  256.32   19.79
  11   9  11  111.75   13.68
  11   9  13   18.68    6.27
  11  -9  15   34.64    7.63
  11   9  15   34.25    8.78
  11  -9  17   33.74    8.01
  11   9  17   41.26    9.43
  11   9  19  111.96   14.25
  11   9  19  122.77   20.89
  11  -9  19  108.09   16.51
  11   9  19  107.42   15.75
  11   9  21  244.00   20.92
  11   9  21  261.35   30.42
  11  -9  21  248.81   24.99
  11   9  21  240.40   24.09
  11   9  23  129.96   21.99
  11  -9  23  119.61   18.41
  11   9  23  141.79   19.71
  11  -9  25   46.99   11.78
  11   9  25   53.67   12.66
  11   9  25   58.61   15.67
  11  -9  27   13.58    7.42
  11   9  27    0.38    5.78
  11   9  27   18.07    9.84
  11  -9  29   18.09    8.94
  11   9  29    8.30    4.63
  11   9  29   19.19    9.23
  11   9  31   49.50   11.71
  11   9  31   47.18   10.51
  11   9  33   45.34    9.95
  11   9  33   44.86    9.65
  11   9  35   65.64   10.41
  11  11  -3   28.91    6.50
  11  11  -1   18.60    5.28
  11  11   1   40.87    7.68
  11  11   3   42.50    8.57
  11  11   5  228.86   18.47
  11  11   7  227.01   18.71
  11  11   9  218.18   18.87
  11  11  11   82.12   12.09
  11  11  13    1.62    6.01
  11 -11  15   39.00    8.32
  11  11  15   51.32   11.06
  11  11  17   68.49   11.37
  11 -11  17   68.67   10.71
  11  11  17   64.78   15.11
  11  11  19  104.95   14.48
  11 -11  19   56.99   13.23
  11  11  19   77.14   13.99
  11  11  19   64.68   16.32
  11  11  21  161.72   17.80
  11  11  21  116.42   21.54
  11 -11  21  139.52   19.29
  11  11  21  141.54   19.46
  11  11  23  147.83   23.72
  11  11  23  106.93   16.53
  11  11  25   16.51    7.18
  11  11  25   32.46   12.33
  11  11  27    0.34    4.37
  11  11  27   -4.00    6.18
  11  11  29    3.15    5.67
  11  11  29    3.06    5.66
  11  11  31   29.33    8.77
  11  11  31   26.82    9.40
  11  11  33   40.68    9.14
  11  11  33   48.03    9.93
  11  11  35   37.75    7.62
  11  13 -17  -15.20   12.03
  11  13  -3    6.34    4.71
 -11  13  -3    4.46    4.18
  11  13  -1    4.85    3.89
 -11  13  -1    8.49    5.05
  11  13   1   -0.93    4.33
  11  13   3    5.80    4.81
  11  13   5   14.84    6.18
  11  13   7  126.56   14.46
  11  13   9   37.19    8.19
  11  13  11    4.06    5.16
  11  13  13    7.05    6.21
  11  13  15    2.32    5.21
  11  13  17   31.26    9.23
  11  13  17    7.63    7.31
  11  13  19   86.54   13.51
  11  13  19   39.35   15.40
  11  13  21    6.73    6.26
  11  13  21   19.37   12.15
  11  13  23   16.84    7.47
  11  13  23   16.44    9.80
  11  13  25   -5.18    5.49
  11  13  25    2.63    6.10
  11  13  27   -4.07    5.85
  11  13  27    3.12    6.80
  11  13  29    1.79    4.48
  11  13  29    0.20    6.48
  11  13  31   -0.31    3.82
  11  13  31    0.71    4.70
  11  13  33   12.14    4.85
  11  13  33   17.46    6.29
  11  15 -17   24.82   17.48
  11  15 -15   90.46   25.79
  11  15 -13   37.10   17.94
 -11  15  -5    3.51    3.75
 -11  15  -3   19.04    6.16
  11  15  -1  164.54   15.38
 -11  15  -1  137.86   13.75
  11  15   1  146.93   15.49
  11  15   3   37.63    8.49
  11  15   5   -5.73    6.28
  11  15   7   -1.32    5.94
  11  15   9    6.91    5.86
  11  15  11   54.16   10.84
  11  15  13   42.31   10.03
  11  15  15   83.82   13.33
  11  15  19   11.11    8.34
  11  15  21   -7.61    7.97
  11  15  23   -7.53    8.95
  11  15  25   10.91    6.63
  11  15  25   20.35    8.80
  11  15  27   33.63    8.73
  11  15  27   26.46   10.74
  11  15  29   14.42    5.89
  11  15  29   31.97   10.67
  11  15  31   17.35    5.64
  11  15  31   13.37    6.95
  11  15  33    4.31    3.48
  11  15  33    2.49    4.31
  11  17 -17   79.54   23.82
  11  17 -15  145.27   31.31
  11  17 -13  171.00   33.39
  11  17 -11   53.16   21.78
  11  17  -9  102.46   26.49
 -11  17  -7    8.90    4.59
 -11  17  -5    9.04    4.22
 -11  17  -3   88.36   12.18
 -11  17  -1  248.49   19.62
  11  17  19   10.34    9.20
  11  17  21  -11.96   10.48
  11  17  21    5.39    9.06
  11  17  23   29.31   11.26
  11  17  23   35.02   12.14
  11  17  25   24.35   10.92
  11  17  25   30.32   11.61
  11  17  27   83.83   15.65
  11  17  27   71.47   14.81
  11  17  29   61.77   12.76
  11  17  31   28.40    7.57
  11  19 -17   18.86   15.40
  11  19 -15  108.87   28.24
  11  19 -13  174.57   34.55
  11  19 -11   62.33   22.37
  11  19  -9    5.44   12.44
 -11  19  -9    7.63    6.51
  11  19  -7   34.37   19.52
 -11  19  -7   31.88    7.92
  11  19  -5   32.94   20.90
 -11  19  -5   11.43    5.09
 -11  19  -3  154.41   15.90
  11  19  -3  246.88   39.76
  11  19  -1  212.61   38.31
  11  19   1  199.92   35.49
  11  19   3  145.00   21.73
  11  19   3  254.94   38.56
  11  19   5   18.43   15.49
  11  19  13  142.24   24.49
  11  19  15  100.57   21.13
  11  19  17   42.54   14.29
  11  19  19   22.71   11.15
  11  19  21   -2.45    7.71
  11  19  21   12.49    9.81
  11  19  23    2.77    5.65
  11  19  23    1.87    6.39
  11  19  25   40.97   12.54
  11  19  25   42.58   11.83
  11  19  27   44.90   11.39
  11  19  27   17.49    8.25
  11  19  29   90.90   14.05
  11  19  31   19.66    6.24
  11  21 -17   -4.03   13.06
  11  21 -15   64.30   24.45
  11  21 -13   76.64   26.06
  11  21 -11   42.22   18.86
  11  21  -9   31.74   18.90
 -11  21  -9   -1.02    4.63
  11  21  -7   22.63   20.53
 -11  21  -7    2.58    4.56
  11  21  -5   61.54   23.72
 -11  21  -5   31.66    8.57
  11  21  -3   38.91   20.07
 -11  21  -3   17.98    6.84
  11  21  -1   80.02   15.55
  11  21  -1   84.81   26.74
  11  21   1   40.05   11.77
  11  21   1   97.33   30.09
  11  21   3   24.82    9.34
  11  21   3   57.68   20.95
  11  21   5   68.54   22.11
  11  21  11   20.86   12.37
  11  21  13   76.59   19.34
  11  21  15   59.42   17.05
  11  21  17   10.73    9.41
  11  21  19    2.49    6.50
  11  21  19    4.17    7.95
  11  21  21   -7.32    6.61
  11  21  21  -14.56    8.75
  11  21  23   -5.72    6.87
  11  21  23  -10.49    9.28
  11  21  25    5.45    6.27
  11  21  25  -10.47    7.17
  11  21  27   21.48    8.30
  11  21  27    7.26    4.96
  11  21  29   15.99    6.70
  11  23 -17    8.32   11.62
  11  23 -15  -23.17   15.99
  11  23 -13   -0.66   13.72
  11  23 -11   -8.44   15.41
  11  23  -9   26.31   18.15
  11  23  -7   61.50   23.12
  11  23  -5   -2.44   13.86
  11  23  -3   10.59   14.90
  11  23  -1   32.74   12.55
  11  23  -1   19.46   15.54
  11  23   1    7.86    8.45
  11  23   1   43.29   21.48
  11  23   3   14.55   11.99
  11  23   5   -2.31   13.40
  11  23   9    4.50    8.24
  11  23  11  -12.43    7.75
  11  23  13    2.49    8.10
  11  23  15   13.54    9.34
  11  23  17    2.38    8.11
  11  23  19   -3.00    6.87
  11  23  19   10.65    8.27
  11  23  21    7.60    6.81
  11  23  21    7.17    7.34
  11  23  23    8.91    6.91
  11  23  23   -2.33    6.16
  11  23  25   -5.67    5.35
  11  23  25  -18.25    9.07
  11  23  27    7.21    4.32
  11  23  27  -10.36    5.73
  11  25 -17   17.00   12.64
  11  25 -15    5.66   11.70
  11  25 -13  -21.27   15.23
  11  25 -11    2.67   14.05
  11  25  -9   70.56   23.92
  11  25  -7   13.71   15.74
  11  25  -5   91.57   28.01
  11  25  -3   16.66    8.76
  11  25  -3   -5.32   13.48
  11  25  -1   46.69   12.35
  11  25  -1   38.12   22.65
  11  25   1   -0.72    8.12
  11  25   1   13.07   18.08
  11  25   3   33.21   19.32
  11  25   5   85.19   26.65
  11  25   9   28.63   11.18
  11  25  11    8.68    9.22
  11  25  13    3.85    6.30
  11  25  15   -3.96    6.09
  11  25  17    4.28    6.42
  11  25  17   -4.05    6.85
  11  25  19   26.91    8.75
  11  25  19   40.61   12.21
  11  25  21   47.65   10.78
  11  25  21   36.03   11.62
  11  25  23   29.44    8.45
  11  25  23   26.11    8.51
  11  25  25   -3.07    4.03
  11  25  25   -2.03    4.85
  11  27 -17   24.22   14.57
  11  27 -15   14.65   14.57
  11  27 -13   -0.06   13.59
  11  27 -11   43.85   20.85
  11  27  -9   21.25   15.98
  11  27  -7  108.94   28.06
  11  27  -5   49.86   20.75
  11  27  -3   35.54   10.49
  11  27  -3   64.92   24.06
  11  27  -1   33.89   10.97
  11  27  -1   36.55   20.14
  11  27   1   18.43   19.47
  11  27   3   23.80   19.12
  11  27   5   63.70   19.86
  11  27   7   94.64   19.10
  11  27   9   21.14   10.61
  11  27  11   24.55   10.31
  11  27  13    4.08    5.38
  11  27  13   -8.50    9.22
  11  27  15   -3.63    5.31
  11  27  15   -2.68    6.76
  11  27  17   12.27    7.20
  11  27  17   10.12    6.57
  11  27  19   32.29    8.91
  11  27  19   40.91   10.61
  11  27  21   47.13    9.59
  11  27  21   60.69   11.29
  11  27  23   12.46    5.25
  11  27  23    6.30    4.59
  11  29 -17   -8.52   10.29
  11  29 -15   17.88   13.90
  11  29 -13   18.44   16.22
  11  29 -11   21.35   17.12
  11  29  -9   58.16   22.95
  11  29  -7   65.36   24.26
  11  29  -5   29.94   16.60
  11  29  -3   21.15   16.87
  11  29  -1    5.82   13.06
  11  29   1   19.74   13.76
  11  29   3    6.02   12.80
  11  29   5   13.47   13.00
  11  29   7   45.51   13.58
  11  29   9   32.94   11.56
  11  29  11    4.84    8.07
  11  29  13    0.13    5.32
  11  29  15    1.94    3.94
  11  29  15   -8.39    7.05
  11  29  17    4.38    4.16
  11  29  17   -3.02    5.69
  11  29  19   15.55    5.98
  11  29  19   24.56    8.10
  11  31 -13  -19.84   12.37
  11  31 -11   -3.73    8.93
  11  31  -9   32.30   16.86
  11  31  -7   -2.90   10.14
  11  31  -5    3.14   10.16
  11  31  -3  -16.03   12.94
  11  31  -1  -16.70   12.41
  11  31   1   -0.51   12.28
  11  31   3   -6.34   12.73
  11  31   5    9.98    6.60
  11  31   7   27.68    9.55
  11  31   9   21.40    8.50
  11  31  11    5.62    6.34
  11  31  13    0.35    5.09
  11  31  15   -0.15    4.48
  11  33   1   23.93    7.94
  11  33   3    0.91    5.73
  11  33   5   -6.85    5.74
  11  33   7    1.70    5.00
  11  33   9    6.20    5.34
  11  33  11   -9.02    5.23
  12   0  -4  272.03   16.51
  12   0  -2  389.82   19.92
  12   0   0  292.46   17.44
  12   0   2  446.93   22.29
  12   0   4  306.81   19.38
  12   0   6   11.76    4.45
  12   0   8  119.07   12.51
  12   0  10   68.50   10.22
  12   0  12  270.77   19.40
  12   0  14   68.82   10.56
  12   0  16  159.25   16.80
  12   0  18   29.89    8.40
  12   0  20   40.11   11.59
  12   0  20   66.93   11.53
  12   0  20   51.61   15.68
  12   0  22   -1.13    5.17
  12   0  22   21.64   10.94
  12   0  24   93.79   18.93
  12   0  24  103.63   18.65
  12   0  26   88.19   16.81
  12   0  26   70.96   15.67
  12   0  28  160.56   21.90
  12   0  28  149.48   21.24
  12   0  30   82.50   15.65
  12   0  30   98.53   16.97
  12   0  32   12.77    7.14
  12   0  34   11.79    6.00
  12   0  36    8.70    4.64
  12  -2  -6   12.32    4.80
  12  -2  -4   70.93    8.68
  12   2  -4   86.88    9.51
  12   2  -2  231.66   15.69
  12  -2  -2  186.70   14.34
  12  -2   0  358.79   20.58
  12   2   0  365.36   20.05
  12   2   2  224.39   16.24
  12  -2   2  248.97   17.36
  12  -2   4   88.02   10.88
  12   2   4   81.09   10.54
  12   2   6   10.53    5.50
  12  -2   6   17.63    6.48
  12  -2   8    8.26    4.68
  12   2   8    9.89    5.67
  12  -2  10   42.50    8.08
  12   2  10   40.87    8.16
  12  -2  12   63.44    9.55
  12   2  12   67.51   10.58
  12   2  14  132.57   14.46
  12  -2  14  128.02   13.77
  12   2  16   32.37    8.69
  12  -2  16   26.58    7.49
  12   2  18   23.62    7.19
  12  -2  18   33.31    7.88
  12   2  20   -3.81    4.53
  12  -2  20   -2.50    4.72
  12  -2  20    1.24    7.07
  12   2  20    2.43    6.50
  12  -2  20   -1.23    6.45
  12   2  20   14.64    9.92
  12  -2  22   11.70    8.61
  12   2  22   15.58    8.01
  12   2  22   21.16   10.40
  12  -2  22   -0.26    5.60
  12  -2  24    7.93    7.50
  12   2  24   14.43    6.63
  12  -2  24    5.31    5.69
  12   2  24    3.65    7.02
  12  -2  26   63.09   15.51
  12   2  26   52.61   14.02
  12  -2  26   24.02   10.76
  12   2  26   51.01   14.07
  12   2  28   94.17   17.37
  12  -2  28   99.40   17.03
  12  -2  28  102.45   17.00
  12   2  28  114.44   18.87
  12  -2  30   50.56   12.05
  12   2  30   56.59   13.12
  12   2  30   59.35   13.06
  12  -2  32   16.01    8.03
  12   2  32   13.21    8.00
  12  -2  34    1.38    4.38
  12   2  34    3.36    5.06
  12   2  36   15.76    5.60
  12  -2  36    2.21    3.33
  12  -4 -22    8.47    6.74
  12   4  -4    5.46    3.39
  12   4  -2   45.35    8.66
  12   4   0  225.67   16.86
  12   4   2   19.33    5.70
  12   4   4   -3.14    5.40
  12  -4   6   15.50    7.32
  12   4   6  -12.20    6.92
  12  -4   8   36.92    7.97
  12   4   8   12.76    6.01
  12   4  10   -0.36    4.79
  12  -4  10   11.49    5.52
  12   4  12   10.14    5.30
  12  -4  12    0.74    4.40
  12  -4  14   19.08    6.30
  12   4  14   34.08    7.61
  12  -4  16   18.80    6.04
  12   4  16   15.63    5.71
  12   4  18   -1.03    4.86
  12  -4  18    1.65    3.89
  12   4  20   -9.36    7.42
  12  -4  20   18.88    7.92
  12   4  20   -0.81    5.74
  12  -4  20   11.13    7.20
  12   4  20    0.74    6.53
  12  -4  22    6.49    5.86
  12   4  22    4.99    6.69
  12  -4  22    5.93    7.14
  12   4  22    1.93    6.09
  12  -4  24    3.26    6.51
  12   4  24    0.36    6.28
  12   4  24    7.99    8.76
  12  -4  24    2.48    5.46
  12  -4  26    8.04    6.51
  12   4  26   15.10    8.36
  12   4  26   10.13    8.60
  12  -4  28   19.23   10.26
  12   4  28   21.32    9.76
  12   4  28    5.30    7.22
  12  -4  30   18.82    9.25
  12   4  30    9.00    6.92
  12   4  30    7.85    6.98
  12  -4  32    1.87    5.99
  12   4  32    2.13    5.46
  12   4  32    3.35    4.65
  12  -4  34    5.69    5.17
  12   4  34   -0.89    4.40
  12   4  36    0.22    3.36
  12  -4  36    0.74    3.44
  12   6  -4   58.48    8.15
  12   6  -2    2.25    3.69
  12   6   0   -9.01    5.17
  12   6   2   -0.31    4.90
  12   6   4   73.59   10.55
  12   6   6  107.17   12.51
  12   6   8  194.37   17.26
  12  -6  10   59.20    9.93
  12   6  10   56.23    9.81
  12   6  12   15.72    6.84
  12  -6  12   18.89    6.21
  12   6  14    0.73    4.68
  12  -6  14   -2.94    4.67
  12   6  16   -1.68    4.84
  12  -6  16   -4.69    5.08
  12   6  18   15.55    7.13
  12  -6  18    8.20    5.14
  12  -6  18   11.26    7.24
  12   6  18   21.54    8.24
  12  -6  18    0.98    7.05
  12   6  18   10.67    7.17
  12  -6  20   66.80   13.80
  12   6  20   65.38   13.23
  12   6  20   66.95   11.27
  12  -6  20   68.47   17.16
  12   6  20   54.03   15.40
  12  -6  22   84.04   15.43
  12   6  22   77.14   14.65
  12   6  22   41.64   14.38
  12   6  24   17.43    8.33
  12  -6  24   17.25    9.17
  12   6  24   15.47   10.36
  12  -6  26    9.53    8.14
  12   6  26    0.15    5.44
  12   6  26    7.16    7.56
  12  -6  28   11.20    8.15
  12   6  28    5.12    7.11
  12   6  28    2.07    6.05
  12  -6  30   13.18    8.07
  12   6  30   12.87    7.57
  12   6  30    3.21    6.30
  12  -6  32   10.83    6.42
  12   6  32    5.45    6.17
  12   6  32   16.72    7.72
  12   6  34   22.44    7.24
  12  -6  34    8.71    5.36
  12   6  36   27.96    6.94
  12   8  -2   23.41    6.10
  12   8   0  -11.49    5.62
  12   8   2   35.24    7.34
  12   8   4   74.12   10.97
  12   8   6  365.02   23.39
  12   8   8  174.37   16.43
  12   8  10  156.10   16.20
  12   8  12   29.87    8.16
  12  -8  12   29.46    8.28
  12   8  14   13.34    6.36
  12  -8  14   10.80    6.13
  12   8  16    6.64    5.17
  12  -8  16    6.85    4.21
  12  -8  18   33.44    7.61
  12  -8  18   45.42   11.78
  12   8  18   39.36   10.83
  12   8  18   43.82    9.68
  12   8  18   32.17   11.53
  12   8  20  119.71   14.98
  12   8  20   97.77   19.38
  12  -8  20  126.86   18.69
  12   8  20  129.21   18.46
  12   8  22  111.82   19.79
  12  -8  22  122.94   18.43
  12   8  22  122.35   18.06
  12  -8  24   41.44   12.06
  12   8  24   31.98   10.40
  12   8  24   52.31   14.54
  12   8  26   17.90    7.63
  12  -8  26   29.28   10.35
  12   8  26   33.23   12.44
  12  -8  28   19.25    8.28
  12   8  28   15.03    8.29
  12   8  28   16.50    9.81
  12  -8  30   10.32    7.91
  12   8  30   10.64    7.40
  12   8  30    8.12    7.19
  12   8  32   16.79    6.96
  12   8  32   10.62    7.09
  12  -8  32   21.91    7.39
  12   8  34   55.27    9.99
  12   8  36   25.61    6.35
  12  10 -16   37.99   18.77
  12  10  -2   43.18    8.10
  12  10   0   57.12    9.56
  12  10   2   31.58    7.54
  12  10   4  117.32   13.93
  12  10   6  199.49   18.12
  12  10   8  229.36   19.70
  12  10  10  138.66   15.62
  12  10  12    0.80    4.95
  12 -10  14    2.72    4.36
  12  10  14    5.03    6.02
  12 -10  16   26.93   10.28
  12  10  16   26.76    8.48
  12 -10  16   46.95    9.16
  12  10  16   34.88    9.12
  12  10  16   34.86   12.14
  12 -10  18   56.06   10.13
  12  10  18   50.18   12.83
  12 -10  18   77.39   14.88
  12  10  18   75.75   12.38
  12  10  18   62.63   16.96
  12  10  20  115.54   15.69
  12 -10  20   86.49   16.27
  12  10  20  133.11   22.92
  12  10  20  102.63   16.68
  12  10  22   89.33   15.57
  12  10  22  103.11   20.98
  12 -10  22  105.91   17.44
  12 -10  24   61.53   13.35
  12  10  24   61.46   13.37
  12  10  24   82.08   18.14
  12 -10  26   16.34    7.31
  12  10  26    6.25    5.95
  12  10  26   10.17    9.04
  12  10  28   -0.53    4.63
  12  10  28   -0.02    5.65
  12 -10  28    5.48    6.48
  12  10  30   17.13    6.44
  12  10  30   14.75    7.46
  12  10  32   22.60    7.65
  12  10  32   36.46    9.16
  12  10  34   34.64    7.80
  12  12 -16  -10.54   10.95
  12  12 -14   22.98   16.67
  12  12  -2   13.73    5.28
  12  12   0   -1.87    4.11
  12  12   2   10.81    5.90
  12  12   4   22.93    7.52
  12  12   6   81.57   12.09
  12  12   8  123.46   14.91
  12  12  10   18.24    7.24
  12  12  12  -10.08    6.78
  12  12  14   -4.47    5.23
  12  12  14  -18.22    9.04
  12  12  16    4.26    5.19
  12 -12  16   14.07    7.00
  12  12  16   -1.32    7.15
  12 -12  16    6.09    6.42
  12  12  18   97.27   14.80
  12  12  18   64.72   16.88
  12 -12  18   50.20   12.84
  12  12  20   46.41   11.31
  12  12  20   73.99   13.55
  12  12  20   83.22   19.48
  12 -12  20   30.11   10.95
  12  12  22   25.71    8.58
  12  12  22   46.20   14.79
  12  12  24   13.74    7.76
  12  12  24   28.75   11.50
  12  12  26   -2.30    5.23
  12  12  26    4.25    7.33
  12  12  28    0.59    5.21
  12  12  28   -4.55    8.12
  12  12  30   -0.10    3.73
  12  12  30   -3.65    4.99
  12  12  32   16.55    5.71
  12  12  32   13.05    6.31
  12  12  34   24.43    5.88
  12  14 -18   -0.74   11.02
  12  14 -16   40.95   17.22
  12  14 -14  -11.42   14.48
  12  14 -12   11.52   14.46
  12  14  -2   17.04    6.11
  12  14   0   44.71    9.02
  12  14   2   19.17    6.78
  12  14   4    0.19    5.12
  12  14   6   10.47    5.51
  12  14   8    5.21    4.90
  12  14  10   -4.02    5.05
  12  14  12   10.25    6.53
  12  14  12    3.66    6.33
  12  14  14    2.23    5.37
  12  14  14   -3.44    6.95
  12 -14  16   40.38    9.61
  12  14  16   44.21   10.35
  12  14  16   27.29   11.14
  12  14  18    6.25    6.29
  12  14  18    3.51    8.23
  12  14  20   22.94   13.23
  12  14  22    8.02    8.35
  12  14  24    2.96    4.59
  12  14  24    6.51    8.91
  12  14  26    6.27    5.31
  12  14  26   19.22    9.87
  12  14  28   21.45    6.71
  12  14  28   14.86    8.22
  12  14  30    6.25    4.42
  12  14  30    2.94    5.27
  12  14  32   -3.56    3.47
  12  14  32    6.08    4.68
  12  16 -18   42.91   18.36
  12  16 -16   53.41   18.60
  12  16 -14  144.23   32.69
  12  16 -12   42.21   20.05
  12  16 -10   29.12   16.76
  12  16  -8   -4.54   13.27
  12  16   2  137.57   16.06
  12  16   4   29.76    8.03
  12  16   6   25.65    8.24
  12  16   8   16.87    7.93
  12  16  10   33.51   10.00
  12  16  12   57.70   12.43
  12  16  14  102.67   19.79
  12  16  16   17.53   10.43
  12  16  18   38.09   13.32
  12  16  20   -2.25    7.68
  12  16  22    9.60    8.39
  12  16  24   31.99   11.62
  12  16  26   42.81   13.10
  12  16  28   63.10   13.08
  12  16  30   38.16    9.42
  12  16  32   13.40    5.21
  12  18 -18   57.77   21.67
  12  18 -16   72.11   23.30
  12  18 -14  125.12   29.02
  12  18 -12   84.84   25.31
  12  18 -10   -9.10   11.97
  12  18  -8   24.29   13.13
  12  18  -6   23.72   18.68
  12  18  -4   56.93   22.40
  12  18  -2  245.34   39.66
  12  18   0  289.41   40.96
  12  18   2  212.05   36.32
  12  18   4   52.97   20.28
  12  18  14   73.33   16.41
  12  18  16   51.16   13.68
  12  18  18   37.00   12.96
  12  18  20    0.76    6.75
  12  18  22   -0.55    6.78
  12  18  24   15.84    8.60
  12  18  26   49.33   12.27
  12  18  28   61.84   12.97
  12  18  30   45.44    9.54
  12  20 -18   -1.62   10.30
  12  20 -16   69.73   23.09
  12  20 -14   84.98   27.54
  12  20 -12   49.45   22.24
  12  20 -10   19.82   17.91
  12  20  -8    1.09   13.50
  12  20  -6    9.54   14.51
 -12  20  -4    9.95    4.97
  12  20  -4   46.39   20.26
  12  20  -2  144.10   32.94
  12  20   0   95.06   28.54
  12  20   2  138.97   31.30
  12  20   4   29.39   19.65
  12  20  14   19.87   10.31
  12  20  16   15.49    9.07
  12  20  18   12.33    8.31
  12  20  20   -0.06    6.60
  12  20  22   -4.57    5.52
  12  20  24    2.80    4.87
  12  20  26    9.16    6.81
  12  20  28   43.54    9.74
  12  20  30   23.47    6.45
  12  22 -18  -11.02   13.74
  12  22 -16  -16.75   14.69
  12  22 -14   15.69   14.31
  12  22 -12   15.21   16.75
  12  22 -10   11.82   17.23
  12  22  -8   -0.41   12.96
  12  22  -6   11.89   16.03
  12  22  -4   37.27   22.87
  12  22  -2   22.87   20.90
  12  22   0   86.82   28.62
  12  22   2   14.58   12.52
  12  22   4   26.56   16.42
  12  22  12    5.37    7.19
  12  22  14    0.43    6.52
  12  22  14    7.93    9.56
  12  22  16    7.17    6.87
  12  22  16    8.25    7.54
  12  22  18    8.19    7.09
  12  22  18   21.90    9.83
  12  22  20   -1.87    5.39
  12  22  20    8.56    7.24
  12  22  22    0.44    5.27
  12  22  24    1.42    4.38
  12  22  26    4.71    5.48
  12  22  28   15.56    5.69
  12  24 -18    3.87    9.41
  12  24 -16    7.76   11.24
  12  24 -14   12.16   10.68
  12  24 -12  -11.08   15.51
  12  24 -10  -34.71   17.74
  12  24  -8   12.90   15.85
  12  24  -6   19.85   16.69
  12  24  -4    9.25   14.90
  12  24  -2  -10.51   15.31
  12  24   0    7.77   12.85
  12  24   2    9.14   14.70
  12  24   4   60.98   21.24
  12  24   8   20.36   10.62
  12  24  10   22.12    9.33
  12  24  12   -7.83    7.49
  12  24  12   -7.03    8.25
  12  24  14   -3.25    6.36
  12  24  14  -12.60    9.14
  12  24  16    0.30    5.07
  12  24  16    3.18    6.06
  12  24  18   14.62    7.99
  12  24  18   24.10    9.26
  12  24  20   10.90    6.91
  12  24  20   19.86    9.36
  12  24  22   16.54    6.99
  12  24  22   14.23    6.77
  12  24  24    4.77    4.92
  12  24  26    7.72    5.08
  12  26 -18   36.09   16.84
  12  26 -16   20.05   14.84
  12  26 -14    8.04   13.20
  12  26 -12    5.36   10.82
  12  26 -10   16.88   14.94
  12  26  -8   46.83   20.01
  12  26  -6   17.07   16.81
  12  26  -4   81.52   25.26
  12  26  -2   24.08   19.41
  12  26   0   73.75   27.22
  12  26   2   54.08   24.10
  12  26   4   51.23   21.04
  12  26   6   57.65   15.13
  12  26   8   27.58   11.10
  12  26  10   15.75   10.39
  12  26  12    7.21    6.65
  12  26  14    5.87    5.66
  12  26  14  -12.74    8.80
  12  26  16    8.69    6.38
  12  26  16    7.16    6.77
  12  26  18   13.43    6.79
  12  26  18   28.48    9.67
  12  26  20   29.17    8.73
  12  26  20   40.48    9.93
  12  26  22   17.00    6.31
  12  26  24    5.46    4.40
  12  28 -18   -2.29    8.12
  12  28 -16   20.88   13.45
  12  28 -14    1.65   10.14
  12  28 -12   -8.24    9.84
  12  28 -10   22.52   17.27
  12  28  -8   49.58   20.15
  12  28  -6   71.25   23.77
  12  28  -4   36.54   19.16
  12  28  -2   20.57   19.29
  12  28   0   20.19   17.40
  12  28   2   36.30   18.22
  12  28   4   37.98   16.99
  12  28   6   42.45   12.04
  12  28   8   34.42   11.53
  12  28  10   22.29    9.67
  12  28  12    3.83    6.30
  12  28  14    5.35    6.30
  12  28  16    9.99    4.87
  12  28  16   -2.92    6.63
  12  28  18    9.16    5.67
  12  28  18    8.95    5.52
  12  28  20   15.84    5.90
  12  30 -16  -16.33   10.67
  12  30 -14  -10.01   11.30
  12  30 -12    9.93   11.63
  12  30 -10   13.72   13.17
  12  30  -8   28.47   16.88
  12  30  -6   15.81   13.92
  12  30  -4   16.34   14.37
  12  30  -2    5.10   13.26
  12  30   0   -3.07   11.04
  12  30   2    3.33   10.00
  12  30   4   -9.41   10.43
  12  30   4   16.19    6.56
  12  30   6   23.90    9.04
  12  30   8   28.21    9.77
  12  30  10    6.71    6.79
  12  30  12   -6.77    5.80
  12  30  14  -13.19    6.63
  12  32 -10  -17.87   10.93
  12  32  -8   -2.09    9.09
  12  32  -6   -2.33    8.55
  12  32  -4   14.53   11.83
  12  32  -2   -5.33    9.37
  12  32   0    7.46   10.30
  12  32   0   10.73    7.23
  12  32   2    2.81    4.45
  12  32   4    5.37    5.10
  12  32   6   -8.45    5.47
  12  32   8    6.03    4.86
  12  32  10    0.08    3.99
  13  -1  -5   20.79    5.73
  13   1  -3  100.67   11.15
  13  -1  -3   99.38   10.90
  13  -1  -1  136.03   12.92
  13   1  -1  141.08   12.83
  13   1   1  154.87   14.31
  13  -1   1  151.81   13.63
  13   1   3  113.20   13.06
  13  -1   3  124.42   13.00
  13   1   5   42.78    9.15
  13  -1   5   29.20    7.54
  13   1   7   -0.41    4.43
  13  -1   7   -3.37    5.82
  13  -1   9   29.73    7.00
  13   1   9   25.73    7.33
  13  -1  11   36.77    8.00
  13   1  11   23.41    7.14
  13   1  13   66.74   10.47
  13  -1  13   67.72   10.67
  13   1  15   58.50   10.84
  13  -1  15   52.63    9.92
  13   1  17   12.19    6.20
  13  -1  17    0.49    5.31
  13   1  17   13.06    8.17
  13  -1  17   10.63    6.40
  13  -1  17   14.81    7.37
  13   1  17   10.43    9.67
  13   1  19    7.73    5.46
  13  -1  19    0.63    5.35
  13   1  19    7.41    6.36
  13  -1  19   -0.54    4.39
  13  -1  19   16.07    8.95
  13   1  19    1.79    6.29
  13  -1  21    3.84    6.48
  13   1  21    6.12    6.89
  13   1  21    2.17    7.44
  13  -1  21    2.41    7.25
  13  -1  23    9.32    7.40
  13   1  23   -1.25    6.21
  13   1  23    3.61    7.18
  13  -1  23    2.66    7.13
  13  -1  25    9.51    6.55
  13   1  25    5.28    7.10
  13   1  25   12.55    9.06
  13  -1  25   -5.95    7.31
  13  -1  27   79.50   14.81
  13   1  27   90.24   16.07
  13  -1  27   59.25   14.29
  13   1  27   76.89   16.46
  13   1  29   58.56   13.76
  13  -1  29   75.28   15.08
  13   1  29   69.70   14.50
  13  -1  31   17.67    8.37
  13   1  31   19.15    8.44
  13  -1  33   -0.49    4.16
  13   1  33   -5.45    5.18
  13  -1  35   -5.30    4.79
  13   1  35    2.71    3.79
  13  -3  -5    2.76    3.53
  13  -3  -3    6.10    3.62
  13   3  -3   17.78    5.53
  13   3  -1   95.33   11.29
  13  -3  -1  104.18   11.63
  13   3   1  111.42   12.05
  13  -3   1   96.01   12.26
  13   3   3   10.49    4.67
  13  -3   3   16.58    5.93
  13  -3   5   -1.89    4.37
  13   3   5   -1.80    4.85
  13  -3   7    2.13    5.20
  13   3   7   -2.37    5.79
  13  -3   9    5.76    4.26
  13   3   9  -19.31    8.63
  13  -3  11   26.06    6.88
  13   3  11   14.55    5.53
  13  -3  13    1.77    4.76
  13   3  13    8.82    5.65
  13  -3  15   22.43    7.05
  13   3  15   22.97    7.46
  13   3  17   19.27    8.17
  13  -3  17   -3.73    7.01
  13   3  17   14.72    6.72
  13  -3  17   29.83    8.55
  13  -3  17    0.51    7.55
  13   3  17   19.64    9.36
  13  -3  19    1.69    7.33
  13   3  19    2.64    4.90
  13   3  19    9.23    7.49
  13  -3  19   -3.37    5.35
  13  -3  19    1.26    6.89
  13   3  19    4.69    6.03
  13   3  21   -6.32    5.43
  13  -3  21    1.32    5.63
  13   3  21   -2.14    5.03
  13   3  21  -33.02   11.48
  13  -3  21  -22.40    9.72
  13  -3  23    6.58    6.58
  13   3  23    1.04    5.14
  13   3  23    5.33    6.82
  13  -3  23   -1.90    7.70
  13  -3  25    1.37    5.46
  13   3  25    8.29    7.07
  13   3  25    4.64    6.58
  13  -3  25   10.51    7.17
  13  -3  27   17.99    8.54
  13   3  27   15.44    8.23
  13   3  27   24.41    9.02
  13  -3  29   25.07    9.23
  13   3  29   18.19    9.10
  13   3  29   28.71   10.68
  13  -3  31    8.75    6.55
  13   3  31    9.12    6.71
  13   3  31    3.74    5.41
  13  -3  33   -8.79    6.21
  13   3  33   -1.85    4.73
  13   3  35    2.88    3.93
  13  -3  35   -5.81    4.42
  13   5 -17    7.95   12.75
  13   5  -3    4.10    4.14
  13   5  -1   47.88    7.99
  13   5   1   48.24    8.43
  13   5   3    3.90    4.58
  13  -5   5   35.46    8.00
  13   5   5   19.73    5.60
  13   5   7   73.15   11.82
  13  -5   7  104.31   13.08
  13   5   9   12.33    5.77
  13  -5   9   38.27    9.31
  13   5  11    2.94    5.17
  13  -5  11   -6.24    5.17
  13  -5  13   -7.91    5.19
  13   5  13   10.18    6.64
  13  -5  15    1.84    4.75
  13   5  15    1.21    4.53
  13  -5  17   -1.17    4.47
  13   5  17    1.55    4.52
  13  -5  17   -0.41    5.82
  13   5  17   -2.21    4.85
  13   5  17   -3.57    7.26
  13   5  19    1.27    4.57
  13  -5  19    3.59    6.56
  13   5  19   -7.83    7.18
  13  -5  19    5.97    4.83
  13  -5  19    7.50    6.98
  13   5  19   15.90    7.84
  13   5  21   27.79    9.83
  13  -5  21   44.57   11.72
  13   5  21   31.36    8.45
  13   5  21   31.21   12.18
  13  -5  21   58.68   15.66
  13  -5  23   14.29    8.94
  13   5  23   12.72    8.39
  13   5  23    9.32    8.13
  13  -5  25    6.87    8.00
  13   5  25    8.62    6.79
  13   5  25   -2.34    7.28
  13  -5  27    4.36    7.00
  13   5  27   -0.87    5.19
  13   5  27   11.11    7.31
  13  -5  29    5.76    7.07
  13   5  29    4.69    5.12
  13   5  29    0.45    5.76
  13  -5  31    0.34    4.67
  13   5  31    3.80    4.90
  13   5  31   12.36    6.76
  13   5  33    2.23    4.07
  13  -5  33   -0.95    4.15
  13   5  35   15.44    5.73
  13   7 -17  -10.13   14.06
  13   7  -3   -1.11    3.31
  13   7  -1   -8.24    5.09
  13   7   1   -4.47    4.93
  13   7   3    4.17    5.02
  13   7   5   94.74   13.22
  13   7   7  109.95   13.93
  13   7   9  102.18   14.24
  13  -7   9  134.81   16.01
  13   7  11   21.13    7.33
  13  -7  11   19.47    8.17
  13   7  13    4.56    5.50
  13  -7  13    3.16    5.13
  13   7  15   -4.89    5.40
  13  -7  15   -1.08    4.80
  13  -7  15   -3.67    7.00
  13   7  15    2.79    5.87
  13   7  17   -6.79    5.39
  13  -7  17   -0.51    4.06
  13  -7  17   11.42    8.29
  13   7  17  -13.38    7.00
  13   7  17    2.46    6.58
  13  -7  19   10.97    8.45
  13   7  19    1.59    4.78
  13  -7  19    6.41    4.73
  13   7  19   15.26    6.67
  13   7  19    5.33    6.72
  13  -7  21   52.45   13.19
  13   7  21   42.28   11.03
  13   7  21   34.07    8.74
  13   7  21   30.03   12.92
  13  -7  23   30.07   10.53
  13   7  23   19.07    7.90
  13   7  23   24.66   11.04
  13   7  25    9.06    6.48
  13  -7  25   18.67    9.08
  13   7  25   28.82   12.63
  13  -7  27    4.74    7.02
  13   7  27    2.84    4.91
  13   7  27    6.17    7.69
  13  -7  29   -1.71    4.78
  13   7  29    7.60    6.02
  13   7  29   -4.14    5.67
  13   7  31   -1.87    4.30
  13   7  31    5.63    5.66
  13  -7  31    2.83    5.19
  13   7  33    3.66    4.04
  13   7  33    2.73    4.28
  13  -7  33    6.18    4.37
  13   7  35    7.71    4.77
  13   9 -17   20.39   15.18
  13   9 -15   -3.51   10.88
  13   9  -1   14.79    5.35
  13   9   1    7.27    5.43
  13   9   3    7.47    4.96
  13   9   5   92.08   12.57
  13   9   7  149.57   16.29
  13   9   9  105.55   13.76
  13   9  11   11.83    6.46
  13  -9  11   12.03    6.40
  13   9  13   -4.51    5.06
  13  -9  13   -5.47    4.64
  13   9  15    3.77    4.96
  13  -9  15    5.25    5.14
  13   9  15   -6.70    5.65
  13   9  15    4.63    6.55
  13  -9  15   11.09    7.14
  13   9  17   10.44    5.63
  13  -9  17   22.90    7.25
  13   9  17    8.94    6.00
  13   9  17   11.82    8.31
  13  -9  17    6.05    6.54
  13  -9  19   39.78   11.79
  13   9  19   25.76    8.54
  13   9  19   33.53    8.67
  13   9  19   44.66   14.33
  13  -9  21   39.38   11.88
  13   9  21   16.83    8.31
  13   9  21   32.47   13.11
  13  -9  23   19.17    8.94
  13   9  23   44.30   11.53
  13   9  23   49.63   15.23
  13   9  25   12.01    7.39
  13   9  25   20.73   10.30
  13  -9  25    4.28    5.36
  13   9  27    1.35    4.44
  13   9  27    2.32    6.57
  13  -9  27   -5.33    5.45
  13   9  29   -2.42    4.84
  13   9  29    0.48    5.42
  13  -9  29    3.78    4.88
  13   9  31    7.78    4.37
  13   9  31    3.12    5.37
  13  -9  31    8.67    5.67
  13   9  33   22.14    6.88
  13   9  33   17.34    5.88
  13  11 -17    8.68   13.62
  13  11 -15   -1.33   12.38
  13  11 -13   19.59   16.14
  13  11  -1   -7.16    4.97
  13  11   1   11.89    6.35
  13  11   3   27.52    8.21
  13  11   5   17.19    6.67
  13  11   7   98.42   13.75
  13  11   9   42.77    9.68
  13  11  11  -12.24    6.80
  13 -11  13   -4.53    5.30
  13  11  13    0.65    6.00
  13  11  13  -10.88    7.44
  13 -11  13    5.19    7.02
  13 -11  15   15.32    6.61
  13  11  15    6.85    5.23
  13  11  15    0.74    6.80
  13 -11  15    3.10    6.61
  13 -11  17    3.96    5.23
  13  11  17    2.73    4.76
  13  11  17   -0.58    6.13
  13 -11  17    6.27    7.43
  13  11  19   45.29   12.37
  13  11  19   73.22   13.59
  13  11  19   75.75   17.74
  13 -11  19   47.85   12.39
  13  11  21   17.71    8.01
  13  11  21   31.97   12.59
  13 -11  21   26.85   10.45
  13  11  23    9.15    6.12
  13  11  23   31.43   12.85
  13 -11  23   20.06    8.19
  13  11  25    2.35    5.05
  13  11  25    4.28    6.79
  13 -11  25   11.14    6.87
  13  11  27    2.03    5.56
  13  11  27    6.81    7.38
  13  11  29   -1.95    4.22
  13  11  29    5.01    5.01
  13  11  31    1.59    3.52
  13  11  31   -4.92    4.66
  13  11  33    6.69    4.07
  13  11  33   -0.18    3.39
  13  13 -17   -2.97   11.44
  13  13 -15  -10.44   14.11
  13  13 -13    8.12   16.89
  13  13 -11    9.54   12.49
  13  13  -9   -2.09   11.71
  13  13  -1    3.31    4.96
  13  13   1    1.53    4.15
  13  13   3   -6.01    6.08
  13  13   5    1.21    5.33
  13  13   7    3.44    4.87
  13  13   9   -2.11    5.58
  13  13  11   -3.85    5.92
  13  13  11   -1.65    5.12
  13 -13  11   10.07    7.72
  13  13  13    5.44    5.15
  13  13  13   -1.76    6.54
  13 -13  13    1.89    6.31
  13 -13  15   20.27    8.22
  13  13  15   18.05    7.08
  13  13  15   16.76    8.46
  13 -13  15    6.16    7.35
  13 -13  17   14.01    6.51
  13  13  17    3.75    5.47
  13  13  17    7.74    8.71
  13 -13  17   -4.19    6.51
  13  13  19   18.75   10.35
  13 -13  19    1.56    6.03
  13  13  21   34.26   14.11
  13  13  23  -11.77    6.25
  13  13  23   -2.70    6.32
  13  13  25   -0.94    4.51
  13  13  25    0.24    6.08
  13  13  27    5.27    5.74
  13  13  27   -9.00    8.23
  13  13  29    4.35    3.94
  13  13  29    4.84    5.84
  13  13  31    3.08    3.07
  13  13  31   -2.74    4.85
  13  15 -19   12.06   11.76
  13  15 -17  -13.44   11.12
  13  15 -15   48.02   17.23
  13  15 -13   51.20   18.19
  13  15 -11   -8.27   13.16
  13  15  -9   -6.05   14.15
  13  15  -7    9.85   12.81
  13  15  -5   -7.49   14.50
  13  15  -1   42.05    8.74
  13  15   1   42.51    9.41
  13  15   3   38.37    9.37
  13  15   5    4.69    5.89
  13  15   7    0.23    4.64
  13 -15   7   -4.27    8.23
  13  15   9    6.07    5.53
  13  15   9   -8.30    8.49
  13 -15   9   -4.35    6.93
  13  15  11   -1.42    5.59
  13  15  11    5.23    5.96
  13 -15  11   -6.03    7.41
  13  15  13   59.31   11.92
  13  15  13   25.69   11.00
  13 -15  15   36.84   10.17
  13  15  15    7.29    5.63
  13  15  15   32.45   11.75
  13  15  17   14.97    9.90
  13  15  19   -4.42    8.80
  13  15  21   -4.47    6.12
  13  15  23   -2.24    5.84
  13  15  25   14.24    9.04
  13  15  27   19.64    8.77
  13  15  29   13.69    7.03
  13  15  31    7.31    4.94
  13  17 -19   -3.60   11.41
  13  17 -17   20.88   16.08
  13  17 -15   64.29   21.85
  13  17 -13   58.44   22.04
  13  17 -11    9.20   12.89
  13  17  -9  -12.06   15.16
  13  17  -7   -8.19   14.55
  13  17  -5    4.42   11.21
  13  17  -3   50.85   22.63
  13  17  -1  113.29   29.92
  13  17   1   92.45   26.62
  13  17   3   24.90   17.15
  13  17   5   12.25   11.27
  13  17  11   15.36    8.71
  13  17  13   68.52   15.46
  13  17  15   34.32   10.99
  13  17  17   13.59    9.63
  13  17  19   -1.53    6.24
  13  17  21    1.85    6.91
  13  17  23    1.29    6.04
  13  17  25   14.92    8.82
  13  17  27   29.90    9.58
  13  17  29   40.95    9.70
  13  19 -19  -17.26   13.60
  13  19 -17   16.96   16.59
  13  19 -15   37.04   18.77
  13  19 -13   19.72   14.15
  13  19 -11    8.66   14.10
  13  19  -9    1.21   14.21
  13  19  -7  -23.79   16.86
  13  19  -5   24.50   16.37
  13  19  -3   17.38   17.66
  13  19  -1  105.97   28.46
  13  19   1   91.91   28.43
  13  19   3   29.05   19.41
  13  19   5   21.67   15.11
  13  19  11    9.58    8.01
  13  19  13   17.29    9.03
  13  19  15   16.45    9.56
  13  19  17   12.66    8.94
  13  19  19   -1.38    6.71
  13  19  21  -11.16    7.53
  13  19  23   -5.69    6.35
  13  19  25   -0.57    4.26
  13  19  27   40.75   10.08
  13  19  29   19.47    6.58
  13  21 -19  -31.18   15.86
  13  21 -17   -5.35   13.03
  13  21 -15   15.07   13.49
  13  21 -13    4.09   13.70
  13  21 -11   -4.95   14.22
  13  21  -9   -2.53   12.38
  13  21  -7    4.62   13.86
  13  21  -5   11.82   17.55
  13  21  -3   21.79   18.71
  13  21  -1   40.60   20.20
  13  21   1   32.51   17.52
  13  21   3   57.85   24.00
  13  21   5  -21.35   18.76
  13  21  13   11.29    8.00
  13  21  15    2.30    5.88
  13  21  17   -0.42    5.33
  13  21  19    0.12    5.33
  13  21  21   -1.52    6.68
  13  21  23    5.81    5.39
  13  21  25   -4.90    4.42
  13  21  27    9.81    4.95
  13  23 -19    0.89   11.52
  13  23 -17   -5.62   12.96
  13  23 -15   -9.13   13.51
  13  23 -13  -19.95   17.01
  13  23 -11  -20.46   16.17
  13  23  -9    6.78   14.25
  13  23  -7   -0.86   13.02
  13  23  -5    7.53   14.84
  13  23  -3   -0.26   13.94
  13  23  -1   -3.97   13.21
  13  23   1   -0.15   13.41
  13  23   3   10.30   11.66
  13  23   5    6.57   12.60
  13  23  13    2.99    4.73
  13  23  15   -6.22    5.92
  13  23  17   -0.57    5.11
  13  23  19  -10.66    6.26
  13  23  21   -6.68    6.65
  13  23  23    5.74    5.24
  13  23  25   -1.44    4.04
  13  25 -19   25.57   13.60
  13  25 -17   22.50   13.48
  13  25 -15   -6.34   11.21
  13  25 -13   -1.13   11.04
  13  25 -11   -3.76   13.47
  13  25  -9   -3.73   13.07
  13  25  -7   31.15   17.85
  13  25  -5    7.89   13.24
  13  25  -3   16.35   16.74
  13  25  -1    7.53   13.38
  13  25   1   33.57   20.47
  13  25   3   25.68   19.06
  13  25   5   -7.05   12.99
  13  25  15   -0.11    4.34
  13  25  17   12.04    6.51
  13  25  19   13.78    6.26
  13  25  21   21.54    6.89
  13  25  23    8.83    4.82
  13  27 -17    5.32    9.22
  13  27 -15   20.06   13.56
  13  27 -13    5.01   11.26
  13  27 -11   -4.73   10.22
  13  27  -9   24.33   16.22
  13  27  -7   36.49   19.09
  13  27  -5   12.26   17.26
  13  27  -3    7.89   13.28
  13  27  -1   37.80   19.27
  13  27   1    5.36   14.36
  13  27   3   14.31   16.14
  13  27   5   18.37   12.46
  13  27  17    8.68    5.32
  13  27  19   18.05    6.09
  13  29 -15   -6.08   11.05
  13  29 -13    6.87   10.72
  13  29 -11    8.75   10.68
  13  29  -9    0.82   11.40
  13  29  -7   22.85   15.87
  13  29  -5    8.57   11.15
  13  29  -3   18.84   15.10
  13  29  -1   18.28   15.11
  13  29   1   -7.73   12.16
  13  29   3   14.27   12.46
  13  29   3   12.94    6.75
  13  29   5   16.38    8.29
  13  31 -13  -22.33   11.14
  13  31 -11   -7.99   10.20
  13  31  -9   -0.45    8.11
  13  31  -7   -4.75    9.32
  13  31  -5    1.84    9.96
  13  31  -3   10.37   11.99
  13  31  -1  -13.89   11.36
  13  31   1  -19.26   12.56
  13  31   1   15.82    6.31
  13  31   3   -6.76    5.19
  14   0  -4    4.39    4.40
  14   0  -2   48.49    8.79
  14   0   0   97.45   11.79
  14   0   2   46.00    8.91
  14   0   4    8.55    5.04
  14   0   6   10.28    5.28
  14   0   8   -5.28    5.78
  14   0  10    0.37    4.81
  14   0  12    1.17    5.11
  14   0  14   71.94   11.76
  14   0  14   58.72   13.87
  14   0  16  -10.84    8.44
  14   0  16  -10.00    5.77
  14   0  16   -4.92    7.99
  14   0  18    9.23    6.39
  14   0  18    5.89    5.29
  14   0  18    1.74    7.39
  14   0  20   11.83    5.91
  14   0  20    4.01    6.09
  14   0  20    7.68    8.97
  14   0  22   -0.16    5.55
  14   0  22   -5.21    6.69
  14   0  24    6.35    7.11
  14   0  24    3.44    6.08
  14   0  26    5.67    7.00
  14   0  26   11.45    8.62
  14   0  28   27.01   10.33
  14   0  30    4.93    6.43
  14   0  32   -1.20    5.05
  14   0  34   -8.26    4.91
  14  -2  -4   -4.64    4.37
  14  -2  -2   41.01    7.78
  14   2  -2   35.97    7.32
  14  -2   0   61.01    9.62
  14   2   0   47.25    8.85
  14  -2   2   40.50    8.48
  14   2   2   31.64    7.69
  14  -2   4    2.27    4.48
  14   2   4   -3.57    4.18
  14  -2   6   -6.67    4.63
  14   2   6   16.29    6.45
  14  -2   8   -4.72    5.91
  14   2   8   -1.01    6.42
  14  -2  10   -9.70    6.19
  14   2  10   -3.65    5.21
  14  -2  12   15.39    6.49
  14   2  12    0.63    5.34
  14  -2  14   -0.50    5.37
  14   2  14    2.15    5.65
  14   2  14   13.70    6.40
  14  -2  14    0.54    4.04
  14  -2  14   -4.42    6.57
  14   2  14   -3.99    7.08
  14   2  16   32.24    9.34
  14  -2  16   19.90    8.31
  14   2  16   14.30    7.59
  14  -2  16   33.19    8.58
  14   2  16   24.18   11.28
  14  -2  16   36.75   13.07
  14   2  18    1.00    4.41
  14  -2  18   -4.33    7.85
  14   2  18   -3.69    5.43
  14  -2  18    7.39    5.53
  14  -2  18   -5.37    8.21
  14   2  18   -1.70    7.24
  14   2  20   -3.12    4.30
  14  -2  20   -2.98    4.82
  14  -2  20  -19.01    8.37
  14   2  20    5.01    7.84
  14   2  20   -6.42   10.07
  14  -2  20   -1.71    6.43
  14  -2  22    5.54    6.78
  14   2  22   10.81    8.50
  14   2  22    1.27    6.57
  14  -2  22   13.86   10.20
  14  -2  24   -2.08    6.57
  14   2  24   -2.82    5.46
  14  -2  24    1.78    6.30
  14   2  24   -1.82    6.37
  14  -2  26    8.49    7.62
  14   2  26    2.03    5.22
  14   2  26    8.08    7.93
  14  -2  28   17.15    9.34
  14   2  28   17.28    8.92
  14   2  28   19.70    8.48
  14  -2  30   -0.11    4.86
  14   2  30   19.00    8.15
  14  -2  32   -1.71    4.91
  14   2  32   -7.93    5.99
  14   2  34   -9.75    5.18
  14  -2  34    6.00    4.84
  14   4 -16    2.44   11.17
  14  -4  -4    7.92    5.03
  14   4  -2   12.30    4.91
  14  -4  -2    8.05    4.74
  14   4   0   33.32    7.43
  14  -4   0   16.70    5.72
  14   4   2   10.03    5.44
  14  -4   2    2.58    5.25
  14   4   4   -2.34    4.25
  14  -4   4    4.34    5.41
  14   4   6   12.97    5.05
  14  -4   6   25.63    7.28
  14   4   8   -4.50    6.78
  14  -4   8   17.06    6.34
  14  -4  10   -6.95    5.61
  14   4  10   -2.92    5.63
  14  -4  12    5.38    4.59
  14   4  12    2.55    4.96
  14  -4  14    5.19    5.11
  14   4  14   -0.80    4.88
  14  -4  14    4.39    5.85
  14   4  14    2.54    4.86
  14   4  14    7.50    8.76
  14  -4  14   -2.62    5.64
  14   4  16   13.35    6.19
  14  -4  16   -2.28    5.55
  14   4  16    1.43    5.32
  14  -4  16    8.53    6.33
  14   4  16    1.30    6.59
  14   4  18   -3.62    4.70
  14  -4  18   -3.57    6.38
  14   4  18    0.57    5.46
  14  -4  18    1.32    4.91
  14  -4  18   10.63    9.76
  14   4  20   13.80    6.90
  14  -4  20    6.56    7.47
  14   4  20   10.24    7.91
  14   4  20    4.85    7.24
  14  -4  20    5.27    6.47
  14  -4  22   13.84    9.03
  14   4  22   25.10   10.45
  14   4  22    8.80    6.45
  14  -4  24   -4.87    5.75
  14   4  24    2.17    5.69
  14   4  24   -6.56    8.19
  14  -4  26    0.49    5.96
  14   4  26    4.05    4.95
  14   4  26    5.56    7.03
  14   4  28   13.02    7.99
  14  -4  28   16.63    8.64
  14   4  28   -1.39    6.12
  14  -4  30   -1.15    5.48
  14   4  30    6.30    6.41
  14   4  30    9.37    7.55
  14   4  32   -2.12    4.00
  14  -4  32  -13.33    6.83
  14   4  34   -3.52    4.52
  14  -4  34    3.88    3.90
  14   6 -18   11.74   18.07
  14   6 -16   -2.38   13.99
  14   6 -14   20.92   16.04
  14   6  -2   -7.61    5.03
  14   6   0   27.14    6.70
  14  -6   2   -2.64    4.56
  14   6   2    2.09    4.33
  14  -6   4    7.85    5.96
  14   6   4    2.64    5.37
  14  -6   6   56.46   10.11
  14   6   6   35.48    8.82
  14   6   8   23.89    7.41
  14  -6   8   32.75    8.58
  14   6  10   12.28    6.69
  14  -6  10    2.22    5.33
  14   6  12   20.28    7.69
  14  -6  12   12.84    6.63
  14   6  14   20.17    7.95
  14  -6  14   10.92    5.96
  14   6  14   18.05    8.15
  14   6  14   12.58    9.68
  14  -6  14    0.40    5.70
  14  -6  16  -12.64    6.34
  14   6  16   -6.37    5.85
  14  -6  16  -23.54    8.73
  14   6  16   -9.22    6.94
  14   6  16   -1.82    7.94
  14   6  18    5.27    5.34
  14  -6  18   -1.81    5.30
  14   6  18   -8.78    7.35
  14  -6  18   -2.91    4.31
  14   6  18    3.49    8.80
  14   6  20   -1.52    7.39
  14  -6  20    1.50    5.75
  14  -6  22   11.40    7.95
  14   6  22   11.45    7.38
  14   6  22   12.93    7.25
  14  -6  24   -5.15    6.96
  14   6  24   -8.43    8.07
  14   6  24   -5.78    7.95
  14  -6  26  -10.97    6.78
  14   6  26   -7.38    6.74
  14   6  26    6.47    7.38
  14   6  28   -1.80    5.30
  14   6  28   10.93    7.95
  14  -6  28   -4.54    5.66
  14   6  30   -6.65    5.24
  14   6  30   -8.23    6.73
  14  -6  30   -4.44    4.77
  14   6  32   -2.12    4.96
  14   6  32    8.76    5.65
  14  -6  32    2.52    3.86
  14   6  34   -1.30    4.11
  14   8 -18   -1.75   13.32
  14   8 -16   13.83   14.93
  14   8 -14   23.90   15.23
  14   8 -12   15.93   11.76
  14   8  -2    0.94    4.03
  14   8   0    4.50    4.33
  14   8   2    7.06    5.09
  14   8   4   20.15    7.31
  14   8   6   23.69    7.97
  14   8   8   39.39   10.23
  14  -8   8   66.24   12.23
  14   8  10   20.84    7.72
  14  -8  10   14.90    6.62
  14   8  12   10.16    6.63
  14  -8  12    6.77    5.44
  14   8  12   12.37    7.59
  14  -8  12    8.17    7.10
  14   8  14   11.20    5.74
  14   8  14    2.33    5.13
  14  -8  14   13.54    6.34
  14   8  14    0.50    6.13
  14  -8  14    9.41    7.75
  14  -8  16   -4.50    4.69
  14   8  16    3.35    6.00
  14   8  16   -0.72    4.78
  14   8  16   17.91   10.42
  14  -8  16    6.87    5.15
  14  -8  18   -4.03    4.91
  14   8  18   10.73    6.66
  14   8  18    3.04    6.01
  14   8  18   -8.80    9.34
  14  -8  18    2.27    7.17
  14   8  20    3.25    5.40
  14   8  20    9.07    7.17
  14  -8  20   -0.91    5.42
  14   8  22    1.18    6.36
  14   8  22    0.66    7.45
  14  -8  22    2.74    5.34
  14   8  24    8.58    7.53
  14   8  24   13.06    8.00
  14  -8  24    8.62    7.15
  14   8  26    3.61    4.84
  14   8  26   -8.98    6.18
  14  -8  26   -1.26    4.96
  14   8  28   -4.63    5.67
  14   8  28    2.11    5.35
  14  -8  28   -0.32    5.57
  14   8  30    0.83    4.15
  14   8  30    1.82    5.50
  14  -8  30   -3.74    4.85
  14   8  32   -1.61    3.83
  14   8  32   -0.58    3.97
  14  -8  32    7.37    4.60
  14  10 -18   21.11   18.24
  14  10 -16    1.42   13.88
  14  10 -14   22.50   17.37
  14  10 -12    0.47   15.77
  14  10 -10   12.33   14.74
  14  10   0    6.39    5.23
  14  10   2   -5.29    5.22
  14  10   4   -3.97    5.14
  14  10   6   28.78    8.37
  14  10   8   34.95    8.87
  14 -10  10    6.70    5.09
  14  10  10   11.25    7.04
  14  10  10    4.38    6.26
  14 -10  10    3.12    6.95
  14  10  12   -1.50    4.75
  14 -10  12   -0.01    4.40
  14  10  12   -1.13    6.34
  14 -10  12    1.88    5.90
  14 -10  14   16.39    6.93
  14  10  14   -2.53    5.25
  14  10  14    1.30    7.72
  14 -10  14    2.89    6.11
  14 -10  16    7.38    5.26
  14  10  16   -4.87    6.31
  14  10  16   13.42    8.99
  14 -10  16    5.93    5.16
  14  10  18   -1.69    5.47
  14  10  18   19.61   10.16
  14 -10  18    7.36    8.25
  14  10  20    9.35    7.18
  14  10  20   25.73   11.29
  14 -10  20   20.72   10.14
  14  10  22    4.43    5.63
  14  10  22    9.16    8.29
  14 -10  22   13.17    7.24
  14  10  24   -3.55    5.03
  14  10  24    0.64    6.12
  14 -10  24    1.26    5.13
  14  10  26   -2.33    4.68
  14  10  26   -4.55    7.39
  14 -10  26    1.23    4.89
  14  10  28   -2.37    3.98
  14  10  28   -7.04    6.75
  14 -10  28    4.78    5.13
  14  10  30   -4.52    4.81
  14  10  30   -5.29    5.92
  14  10  32    7.75    4.99
  14  10  32   -3.59    3.98
  14  12 -18    5.19   10.65
  14  12 -16   -3.84   18.54
  14  12 -14    5.52   15.32
  14  12 -12  -11.32   15.85
  14  12 -10   13.43   14.37
  14  12  -8   24.71   18.95
  14  12  -6   11.67   16.11
  14  12   0    0.09    4.58
  14  12   2   -4.29    5.74
  14  12   4   -3.32    4.57
  14  12   6    5.32    5.95
  14  12   8   10.99    6.50
  14 -12   8   -0.82    5.58
  14  12  10    5.48    5.90
  14  12  10    0.80    6.82
  14 -12  10   -2.70    6.07
  14 -12  12   -8.13    5.64
  14  12  12  -10.49    6.32
  14  12  12  -12.37    8.01
  14 -12  12    3.57    7.89
  14  12  14    6.77    5.98
  14 -12  14   12.63    7.26
  14  12  14   -0.19    7.29
  14 -12  14    3.77    6.31
  14 -12  16    6.76    5.53
  14  12  16   15.88    7.59
  14  12  16   10.55    9.38
  14 -12  16    8.75    8.29
  14  12  18    8.78    8.33
  14 -12  18    8.46    7.08
  14  12  20   32.52   11.83
  14 -12  20   20.46    9.45
  14  12  22    5.18    5.89
  14  12  22    1.60    6.80
  14  12  24    1.03    4.58
  14  12  24    0.69    6.71
  14 -12  24   -6.88    5.99
  14  12  26    6.39    4.03
  14  12  26  -13.81    7.93
  14  12  28   -4.91    4.65
  14  12  28   -5.19    7.46
  14  12  30   -1.59    3.22
  14  12  30  -20.20    7.11
  14  12  32  -11.16    5.26
  14  14 -18    5.07   12.81
  14  14 -16  -35.00   18.48
  14  14 -14   34.68   19.10
  14  14 -12   -3.43   18.62
  14  14 -10   10.40   14.52
  14  14  -8  -32.45   18.24
  14  14  -6  -11.00   15.72
  14  14  -4    8.32   11.62
  14  14  -2    9.14   12.64
  14  14   0    3.35    3.92
  14  14   0   -5.10   17.08
  14  14   2   -0.82    4.52
  14  14   2   -1.91   13.09
  14  14   4    3.26    5.12
  14  14   4    1.12   13.16
  14  14   6   -2.46    6.65
  14 -14   6    3.06    6.27
  14  14   8    1.84    5.04
  14 -14   8   -0.90    6.12
  14  14  10    6.90    5.97
  14  14  10   -2.42    6.29
  14 -14  10    8.68    6.84
  14 -14  12   14.67    7.33
  14  14  12    5.01    6.07
  14 -14  12   -0.10    5.30
  14 -14  14   55.52   12.05
  14  14  14   26.48    8.65
  14  14  14   22.62    9.92
  14 -14  14   37.48   11.72
  14  14  16   -1.50    8.84
  14 -14  16    2.28    6.32
  14  14  18    0.55    7.52
  14 -14  18   -4.02    6.10
  14  14  20    7.96    9.04
  14  14  22    9.16    8.56
  14  14  24    5.45    6.82
  14  14  26   -1.05    5.83
  14  14  28   -2.75    4.83
  14  14  30   -9.92    5.72
  14  16 -18  -10.16   12.61
  14  16 -16   15.05   14.46
  14  16 -14   16.58   14.59
  14  16 -12   35.10   18.35
  14  16 -10   -8.12   16.47
  14  16  -8  -16.45   19.98
  14  16  -6   14.72   14.80
  14  16  -4   19.25   16.69
  14  16  -2    5.19   14.54
  14  16   0    6.45   13.19
  14  16   2    7.01    5.38
  14  16   2    1.77   11.76
  14  16   4   15.66    7.51
  14  16   4   21.55   12.23
  14  16   6    3.56    4.72
  14  16   8    8.88    6.44
  14 -16   8   -1.28    7.17
  14  16  10   -7.19    5.83
  14  16  10  -21.54    8.95
  14 -16  10   -8.25    8.42
  14  16  12   18.65    8.94
  14 -16  12   20.13    7.83
  14  16  14    4.55    7.17
  14  16  16    2.49    6.33
  14  16  18    5.12    5.64
  14  16  20   -4.72    7.41
  14  16  22   -8.77    6.74
  14  16  24   -2.59    5.55
  14  16  26   -2.30    5.43
  14  16  28    5.93    4.68
  14  16  30    0.61    3.68
  14  18 -18    1.60    9.93
  14  18 -16    5.77   12.05
  14  18 -14    9.49   13.24
  14  18 -12    8.77   12.01
  14  18 -10  -22.05   17.75
  14  18  -8   -4.52   14.80
  14  18  -6   -9.89   16.64
  14  18  -4   25.80   17.09
  14  18  -2   21.01   15.16
  14  18   0   46.64   22.81
  14  18   2   19.21   14.51
  14  18   4   18.72   17.13
  14  18  12   -3.21    5.59
  14  18  14    9.33    7.85
  14  18  16   11.73    7.21
  14  18  18   -9.88    7.87
  14  18  20    0.06    5.63
  14  18  22   -8.03    6.78
  14  18  24    1.37    5.10
  14  18  26   15.14    6.85
  14  18  28   -4.37    4.31
  14  20 -18  -10.06   12.49
  14  20 -16   18.04   14.61
  14  20 -14    3.84   13.98
  14  20 -12    7.78   12.54
  14  20 -10   -8.97   14.50
  14  20  -8  -12.22   14.80
  14  20  -6   43.32   21.16
  14  20  -4    5.84   12.24
  14  20  -2   -3.74   12.40
  14  20   0   57.70   22.77
  14  20   2   18.88   15.32
  14  20   4   -8.01   10.95
  14  20  12  -21.68    8.61
  14  20  14    0.67    5.12
  14  20  16   -5.36    6.66
  14  20  18    2.12    4.97
  14  20  20   -4.57    6.53
  14  20  22  -17.69    7.39
  14  20  24   -0.16    4.86
  14  20  26    4.91    4.24
  14  22 -18  -19.46   15.45
  14  22 -16  -14.14   16.27
  14  22 -14   -4.86   10.76
  14  22 -12   14.81   14.47
  14  22 -10  -18.88   16.66
  14  22  -8  -16.72   15.86
  14  22  -6  -14.61   19.27
  14  22  -4    7.36   12.34
  14  22  -2   17.96   16.54
  14  22   0    7.72   15.92
  14  22   2   13.05   13.37
  14  22   4   -3.19   11.79
  14  22  14    0.23    5.83
  14  22  16   -2.35    4.59
  14  22  18   -2.53    5.32
  14  22  20    0.13    4.27
  14  22  22   -4.49    5.49
  14  22  24   -5.75    4.16
  14  24 -18    0.07    8.55
  14  24 -16   -9.32   11.91
  14  24 -14   -8.79   13.53
  14  24 -12   -8.06   13.64
  14  24 -10  -11.36   16.52
  14  24  -8  -15.68   14.90
  14  24  -6   -3.90   13.57
  14  24  -4  -24.15   19.62
  14  24  -2   -8.62   16.47
  14  24   0   -4.91   15.71
  14  24   2    7.00   11.29
  14  24   4  -21.04   16.93
  14  24  16   -2.67    4.18
  14  24  18   -1.66    4.69
  14  24  20   -0.25    4.13
  14  24  22   -1.83    3.40
  14  26 -18    2.43    8.15
  14  26 -16   -8.33   10.09
  14  26 -14   -3.66    9.25
  14  26 -12    6.32   12.68
  14  26 -10   -1.09   12.65
  14  26  -8   -0.52   10.99
  14  26  -6   -2.46   11.61
  14  26  -4    8.58   12.09
  14  26  -2    9.29   14.22
  14  26   0   17.57   15.32
  14  26   2    6.39   12.97
  14  26   4   15.41   12.62
  14  26  18   -1.80    3.18
  14  28 -16   10.28    7.72
  14  28 -14   11.53   10.99
  14  28 -12   -4.61    9.05
  14  28 -10    4.93   10.72
  14  28  -8    7.03   11.35
  14  28  -6    0.62   11.05
  14  28  -4    6.49   14.04
  14  28  -2   11.50   14.16
  14  28   0   13.45   13.22
  14  28   2   -5.22   10.23
  14  28   4    7.18    9.27
  14  30 -12  -15.82   11.25
  14  30 -10   -3.46    9.43
  14  30  -8   -1.31    8.20
  14  30  -6   13.25   10.81
  14  30  -4   -0.95    8.65
  14  30  -2    5.50   10.75
  14  30   0    9.96    8.90
  14  30   2  -35.11   14.11
  14  32  -6  -14.02    9.86
  14  32  -4  -23.73   11.67
  15   1 -17  -22.29   17.91
  15  -1  -3    2.86    4.57
  15   1  -3    7.03    4.91
  15  -1  -1   31.11    7.82
  15   1  -1   32.49    8.30
  15  -1   1   27.70    7.76
  15   1   1   23.94    6.98
  15  -1   3    0.82    4.46
  15   1   3    0.39    4.92
  15  -1   5   16.43    6.76
  15   1   5    9.78    5.53
  15  -1   7   14.35    6.02
  15   1   7    8.15    5.21
  15   1   9    2.33    4.58
  15  -1   9    4.90    5.49
  15   1  11   -2.41    5.00
  15   1  11    4.94    4.55
  15  -1  11    0.78    4.36
  15   1  11    1.20    5.74
  15  -1  11   -1.93    6.50
  15  -1  11  -18.68    7.63
  15  -1  13    2.93    5.08
  15   1  13   -5.68    7.95
  15   1  13   -0.28    4.60
  15  -1  13   -2.46    5.17
  15  -1  13   -0.73    6.41
  15   1  13   -5.02    6.73
  15  -1  15    5.90    5.26
  15   1  15   -4.58    7.14
  15   1  15   11.75    5.93
  15  -1  15    4.13    5.47
  15  -1  15    8.61    8.46
  15   1  15    2.93    7.01
  15   1  17    3.90    5.55
  15  -1  17   -1.94    5.73
  15   1  17    0.02    5.28
  15  -1  17    4.80    5.43
  15  -1  17    9.48    7.75
  15   1  17    3.49    6.73
  15  -1  19    6.13    6.94
  15   1  19    7.21    6.48
  15   1  19   11.93    7.64
  15  -1  19    6.26    8.16
  15  -1  21    4.71    5.26
  15   1  21    7.35    7.75
  15  -1  21    5.62    5.97
  15   1  21    4.07    6.54
  15  -1  23   15.39    8.27
  15   1  23    9.42    6.71
  15   1  23    3.24    7.07
  15  -1  23   14.05    8.90
  15  -1  25   -0.32    6.07
  15   1  25   -5.66    7.32
  15   1  25   -6.87    7.52
  15   1  27   -5.93    6.62
  15  -1  27    4.33    4.90
  15   1  27   13.17    8.94
  15  -1  29   -0.46    6.56
  15   1  29    5.46    5.00
  15   1  31  -20.85    7.13
  15  -1  31   -2.57    4.64
  15  -1  33   -3.11    4.52
  15   1  33    0.42    4.23
  15   3 -17   -5.07   11.82
  15   3 -15   17.24   14.39
  15  -3  -3    3.55    4.51
  15  -3  -1   -0.85    4.06
  15   3  -1   10.47    5.05
  15  -3   1    1.72    4.31
  15   3   1    3.72    4.52
  15  -3   3   -7.29    4.77
  15   3   3    9.79    5.94
  15  -3   5   13.45    7.45
  15   3   5   12.96    5.45
  15  -3   7   24.15    7.66
  15   3   7   25.47    7.96
  15  -3   9    2.85    5.38
  15   3   9   -1.39    4.77
  15  -3  11   -3.80    5.21
  15   3  11    1.72    4.75
  15   3  11    2.17    5.57
  15  -3  11    8.03    8.93
  15  -3  11    7.76    5.90
  15   3  13   10.00    7.45
  15   3  13   -1.76    6.14
  15  -3  13    2.84    4.99
  15   3  13    0.29    6.31
  15  -3  13    9.05    9.62
  15  -3  13   -2.56    6.06
  15   3  15   -0.29    4.55
  15  -3  15   -0.91    6.47
  15   3  15   -1.15    6.71
  15  -3  15    3.57    5.34
  15  -3  15   -6.19    8.35
  15   3  15    6.32    5.91
  15  -3  17  -10.35    6.86
  15   3  17    7.28    5.52
  15   3  17    3.31    6.61
  15  -3  17   -4.16    4.61
  15   3  17   -8.55    9.64
  15  -3  17    0.28    5.90
  15  -3  19  -12.63    7.78
  15   3  19    5.65    6.22
  15   3  19   -9.87    9.40
  15  -3  19   -3.77    8.46
  15  -3  21    9.97    8.19
  15   3  21   25.51   10.32
  15   3  21   15.50    9.62
  15   3  23    1.82    5.26
  15   3  23    2.15    5.48
  15  -3  25  -11.03    8.38
  15   3  25    2.88    5.88
  15   3  25   -1.97    7.24
  15   3  27    0.91    4.98
  15   3  27   -0.47    5.22
  15   3  29   20.74    8.02
  15  -3  29   -0.91    5.73
  15   3  31  -23.63    7.29
  15  -3  31   -6.36    5.43
  15  -3  33   -0.36    3.95
  15   3  33    2.55    3.73
  15   5 -17    2.66   11.06
  15   5 -15    6.56   11.04
  15   5 -13   18.27   11.81
  15   5 -11   -7.90   18.06
  15  -5  -3    8.21    5.15
  15   5  -1   15.03    6.10
  15  -5  -1    4.86    4.51
  15   5   1    7.04    4.71
  15  -5   1   12.50    6.30
  15   5   3   -1.91    5.86
  15  -5   3    1.59    4.60
  15   5   5    6.66    5.78
  15  -5   5    4.07    4.59
  15   5   7    2.31    5.73
  15  -5   7    7.01    5.32
  15   5   9   -0.79    5.35
  15  -5   9    1.22    4.14
  15  -5  11    0.66    4.94
  15   5  11    7.09    5.43
  15   5  11   -1.12    6.78
  15   5  11   -0.34    6.43
  15  -5  11    1.67    5.20
  15  -5  13   25.88    8.04
  15   5  13    8.71    5.40
  15   5  13   11.79    6.97
  15   5  13   14.75    7.77
  15  -5  13    3.68    6.82
  15   5  15   -6.82    6.76
  15   5  15   -1.13    5.64
  15  -5  15    6.14    4.43
  15   5  15   12.92    8.20
  15  -5  15   -1.83    6.38
  15   5  17    2.89    4.20
  15   5  17    4.02    5.03
  15  -5  17   -1.10    4.33
  15   5  17   -0.49    6.94
  15  -5  17   -6.11    7.62
  15  -5  19  -16.56    8.07
  15   5  19   -2.42    7.19
  15   5  19    3.80    7.32
  15  -5  21   -6.32    7.98
  15   5  21    9.09    6.41
  15   5  21  -14.75    8.89
  15   5  23    8.04    6.39
  15   5  23    2.96    6.31
  15   5  25   -1.95    4.98
  15   5  25    3.95    7.26
  15  -5  25   -6.82    8.28
  15   5  27   -1.82    4.51
  15   5  27    6.28    6.87
  15  -5  27    1.34    4.89
  15   5  29    7.04    6.20
  15   5  29   11.05    6.41
  15  -5  29   -4.42    5.30
  15   5  31  -11.17    6.43
  15  -5  31   -4.32    4.98
  15  -5  33    2.58    4.07
  15   5  33   -2.13    3.87
  15   7 -19   10.87   11.89
  15   7 -17    1.04   11.63
  15   7 -15   28.23   19.37
  15   7 -13   26.25   18.01
  15   7 -11    6.37   15.72
  15   7  -9   -6.49   12.07
  15  -7  -3   -5.22    4.52
  15   7  -1    7.31    5.28
  15  -7  -1    0.61    4.04
  15   7   1    9.35    5.71
  15  -7   1    9.01    5.79
  15  -7   3   -5.23    4.46
  15   7   3    1.03    4.72
  15  -7   5    4.44    5.70
  15   7   5    0.34    4.79
  15   7   7    1.22    4.79
  15  -7   7    5.49    5.21
  15   7   9    4.18    5.62
  15  -7   9    3.80    5.64
  15   7   9    7.10    7.58
  15  -7   9    3.51    6.83
  15   7  11   23.29    7.73
  15  -7  11   17.09    6.68
  15   7  11   12.56    9.07
  15  -7  11    8.88    7.46
  15   7  13   17.56    7.77
  15  -7  13   16.82    6.99
  15   7  13   12.18    8.31
  15   7  13    8.45    7.03
  15  -7  13   19.04    9.11
  15   7  15    3.27    4.85
  15  -7  15    6.21    5.46
  15   7  15    4.75    4.81
  15   7  15   -0.13    7.07
  15  -7  15    3.44    6.15
  15   7  17    3.92    5.57
  15  -7  17   -9.87    5.95
  15   7  17   -5.00    6.57
  15  -7  17   -6.68    8.66
  15   7  19   -0.48    5.30
  15   7  19   -3.15    7.70
  15  -7  19  -21.42    8.90
  15   7  21    6.50    5.28
  15   7  21   -6.13    8.43
  15   7  23   -6.84    6.23
  15   7  23   -7.14    8.20
  15  -7  23   -2.90    7.53
  15   7  25    5.71    6.10
  15   7  25   -1.80    6.70
  15  -7  25  -10.85    6.92
  15   7  27    4.31    4.23
  15   7  27    9.45    7.05
  15  -7  27    8.75    5.81
  15   7  29    4.44    5.28
  15   7  29   -1.82    5.57
  15  -7  29   -4.37    4.51
  15   7  31   -4.65    5.19
  15   7  31    3.48    5.23
  15  -7  31   11.34    5.31
  15   7  33    0.26    3.75
  15   9 -19   17.58   13.43
  15   9 -17   10.10   15.07
  15   9 -15   32.80   20.36
  15   9 -13   22.70   16.71
  15   9 -11    4.57   15.12
  15   9  -9  -13.37   15.80
  15   9  -7   -4.06   13.78
  15   9  -5   -8.19   10.97
  15   9  -1    6.19    4.95
  15   9   1    5.04    4.65
  15   9   3   -9.72    7.40
  15   9   5    1.76    4.88
  15  -9   5   -1.87    5.34
  15  -9   5  -14.49    9.77
  15   9   7    9.86    6.28
  15  -9   7   18.61    7.35
  15  -9   7   13.08    8.19
  15   9   9   -1.51    5.71
  15  -9   9    7.61    6.72
  15   9   9   -4.15    6.81
  15  -9   9    6.54    7.76
  15   9  11   -6.89    7.24
  15  -9  11   16.66    6.87
  15   9  11   16.17    7.89
  15  -9  11    9.55    7.53
  15  -9  13   10.40    5.91
  15   9  13   14.24    7.37
  15   9  13    2.50    6.08
  15  -9  13    1.59    7.79
  15  -9  15   24.83    7.82
  15   9  15   25.05    8.27
  15   9  15   11.61    7.72
  15  -9  15   26.73   10.44
  15   9  17    3.68    6.03
  15   9  17    5.16    6.80
  15  -9  17   -1.34    6.65
  15   9  19   -5.72    6.74
  15   9  19    2.67    6.07
  15  -9  19   -1.36    7.41
  15   9  21    3.86    5.43
  15   9  21    0.71    6.44
  15  -9  21   -1.92    5.31
  15   9  23   -1.90    5.05
  15   9  23   -7.75    7.60
  15  -9  23   -3.82    6.90
  15   9  25    5.39    6.02
  15   9  25    0.80    5.59
  15  -9  25   -2.05    4.91
  15   9  27    6.50    5.84
  15   9  27    4.17    5.61
  15  -9  27    2.59    4.93
  15   9  29    1.55    4.36
  15   9  29    6.01    4.79
  15  -9  29    6.58    5.49
  15   9  31   -5.29    5.07
  15  -9  31    3.82    3.29
  15  11 -19  -25.24   18.59
  15  11 -17   11.33   17.23
  15  11 -15   42.59   22.65
  15  11 -13   27.60   17.20
  15  11 -11   -7.24   11.72
  15  11  -9  -15.12   12.09
  15  11  -7    9.91   16.90
  15  11  -5   13.64   18.61
  15  11  -3    2.61   11.83
  15  11  -1   -4.78   12.79
  15  11   1    2.02    4.25
  15  11   1    0.57   11.57
  15  11   3   -6.91    6.42
  15  11   3    6.84   13.56
  15 -11   3    1.93    6.19
  15  11   5   -7.64    5.60
  15 -11   5  -21.77    8.96
  15  11   7   10.14    6.17
  15 -11   7  -10.14    7.29
  15 -11   9    6.31    5.72
  15  11   9   -1.05    5.23
  15  11   9   12.75    7.32
  15 -11   9    4.90    5.82
  15  11  11   -3.93    5.26
  15 -11  11   13.15    8.92
  15  11  11   -1.89    5.86
  15 -11  11    2.20    5.55
  15 -11  13    2.15    4.87
  15  11  13    1.57    4.58
  15  11  13    4.33    6.54
  15 -11  13    1.97    7.45
  15  11  15   19.94   11.30
  15 -11  15   17.31    9.58
  15  11  17   -6.06    8.01
  15 -11  17    7.57    7.29
  15  11  19   -2.88    6.51
  15 -11  19   13.04    8.32
  15  11  21    9.08    5.73
  15  11  21    1.66    7.74
  15 -11  21   19.87    8.65
  15  11  23    1.92    5.09
  15  11  23    3.90    6.66
  15 -11  23   10.29    7.70
  15  11  25   -3.14    4.75
  15  11  25    2.31    5.58
  15 -11  25   -8.29    6.47
  15  11  27    7.98    5.82
  15  11  27    2.45    5.02
  15 -11  27    4.48    4.17
  15  11  29   -6.23    4.11
  15  11  29    3.59    4.98
  15  11  31   -8.52    4.53
  15  13 -19   -1.22   11.69
  15  13 -17    2.08   11.03
  15  13 -15   26.12   16.04
  15  13 -13    8.35   13.31
  15  13 -11  -10.39   15.13
  15  13  -9    9.99   14.17
  15  13  -7    2.37   16.27
  15  13  -5   -8.73   12.45
  15  13  -3    7.04   11.42
  15  13  -1    7.97   15.18
  15  13   1   -7.74    5.50
  15  13   1  -14.45   15.11
  15  13   3    4.55    5.60
  15  13   3    8.40   12.37
  15  13   5   -0.77    5.97
  15 -13   5  -11.06    8.92
  15  13   7   -5.95    5.37
  15 -13   7  -22.96    9.36
  15  13   9    1.85    5.34
  15 -13   9    0.61    5.75
  15 -13  11    2.96    5.87
  15  13  11    6.07    6.13
  15  13  11   -2.13    7.09
  15 -13  11   -1.26    7.25
  15  13  13   15.67    9.35
  15 -13  13    5.63    7.06
  15  13  15    9.08    9.60
  15 -13  15   13.30    8.88
  15  13  17    3.28    6.62
  15 -13  17   -2.89    6.20
  15  13  19   -6.45    5.82
  15 -13  19   -2.41    5.22
  15  13  21   12.44    8.31
  15 -13  21   12.09    7.56
  15  13  23    0.36    5.73
  15 -13  23   -1.93    4.61
  15  13  25   -4.78    5.89
  15  13  27   -6.87    6.53
  15  13  29   -6.51    4.74
  15  15 -19    0.86   10.30
  15  15 -17   -3.08   13.78
  15  15 -15    8.76   15.65
  15  15 -13   -5.73   13.32
  15  15 -11   -9.14   12.47
  15  15  -9    6.78   16.22
  15  15  -7    7.57   12.41
  15  15  -5   -9.40   14.89
  15  15  -3  -20.71   17.17
  15  15  -1  -13.89   18.00
  15  15   1   -6.76   12.87
  15  15   3   -2.17    4.93
  15  15   3   -2.16   15.14
  15  15   5    0.55    4.76
  15  15   7    8.85    6.13
  15  15   9   16.39    8.03
  15 -15   9   -4.17    8.16
  15  15  11   -2.78    6.91
  15 -15  11  -25.02    9.52
  15  15  13   -5.88    8.14
  15 -15  13   10.59    7.18
  15  15  15    1.25    7.22
  15 -15  15   -0.32    6.81
  15  15  17    1.13    5.89
  15 -15  17   -2.97    6.10
  15  15  19    2.38    6.81
  15  15  21   12.47    7.54
  15  15  23    6.89    6.01
  15  15  25   -0.52    4.74
  15  15  27   -6.03    6.27
  15  15  29   -7.17    5.71
  15  17 -19    4.60   12.07
  15  17 -17   16.36   12.08
  15  17 -15    8.94   14.20
  15  17 -13   12.90   12.82
  15  17 -11    0.97   11.72
  15  17  -9   30.22   17.95
  15  17  -7   14.97   15.68
  15  17  -5  -17.97   15.75
  15  17  -3   -2.85   16.55
  15  17  -1  -23.19   16.03
  15  17   1   -4.07   13.31
  15  17   3   -0.70   11.14
  15  17  13   -3.85    7.01
  15  17  15    9.74    7.52
  15  17  17    6.44    7.45
  15  17  19    6.46    6.99
  15  17  21    3.13    7.11
  15  17  23    8.58    7.48
  15  17  25    3.56    4.78
  15  17  27    4.53    4.08
  15  19 -19    3.00    9.28
  15  19 -17    1.82   11.20
  15  19 -15   -5.09   10.48
  15  19 -13   -8.96   13.83
  15  19 -11    4.86   15.16
  15  19  -9   -1.36   13.50
  15  19  -7   -1.40   12.10
  15  19  -5  -11.96   13.19
  15  19  -3   -3.96   12.32
  15  19  -1    6.03   11.87
  15  19   1    5.39   12.08
  15  19   3    6.47   12.39
  15  19   5   24.01   15.75
  15  19  13   -9.94    6.67
  15  19  15   -6.67    5.93
  15  19  17   -2.31    5.25
  15  19  19    6.37    6.48
  15  19  21    5.93    5.72
  15  19  23    4.57    5.38
  15  19  25   -4.19    4.03
  15  19  27    3.02    3.42
  15  21 -19   -4.92   11.74
  15  21 -17   -6.66   13.68
  15  21 -15   15.00   15.55
  15  21 -13  -10.20   14.11
  15  21 -11  -20.20   17.27
  15  21  -9   -1.38   14.67
  15  21  -7    6.36   14.22
  15  21  -5   25.00   16.81
  15  21  -3   14.55   16.96
  15  21  -1  -12.88   11.55
  15  21   1   15.56   17.00
  15  21   3  -15.53   16.61
  15  21  15   -1.39    4.68
  15  21  17   -6.62    6.25
  15  21  19    2.92    4.38
  15  21  21    0.77    4.54
  15  21  23   -3.48    4.48
  15  21  25    2.00    3.18
  15  23 -19  -15.30   10.28
  15  23 -17   -1.17   11.11
  15  23 -15  -11.38   14.37
  15  23 -13   -9.67   15.29
  15  23 -11  -11.09   13.87
  15  23  -9  -23.16   18.59
  15  23  -7    4.16   12.31
  15  23  -5  -18.61   15.63
  15  23  -3   -1.58   11.17
  15  23  -1  -14.65   16.12
  15  23   1    0.53   11.45
  15  23   3  -15.16   12.92
  15  23  17   -3.90    4.90
  15  23  19   -4.51    4.58
  15  23  21   -2.40    4.42
  15  25 -17    2.35    7.38
  15  25 -15   16.42    9.02
  15  25 -13   10.34    9.16
  15  25 -11   -6.37   13.62
  15  25  -9   -0.92   11.99
  15  25  -7   -9.90   14.99
  15  25  -5  -12.25   15.93
  15  25  -3    2.21   13.34
  15  25  -1   13.28   11.73
  15  25   1   10.09   12.17
  15  25   3    3.08   11.34
  15  27 -15   13.45   10.26
  15  27 -13   16.87   11.58
  15  27 -11  -14.50   11.26
  15  27  -9   -2.49   10.31
  15  27  -7   -9.90    9.39
  15  27  -5    9.68    9.79
  15  27  -3   14.15   14.17
  15  27  -1   26.19   13.62
  15  27   1   12.82   12.71
  15  27   3    0.58   10.49
  15  29 -11    6.68    9.69
  15  29  -9   10.00    9.57
  15  29  -7    6.19    8.54
  15  29  -5    3.96   10.50
  15  29  -3  -15.25   11.68
  15  29  -1    0.80    8.63
  15  29   1  -18.29   11.93
  15  29   3   -7.75   10.50
  15  31  -5  -17.53   10.52
  15  31  -3  -11.38    8.72
  16   0 -18    8.38   11.71
  16   0  -2   -7.29    4.86
  16   0   0   13.04    6.50
  16   0   2   -2.60    4.77
  16   0   4   27.14    8.27
  16   0   6   37.84    9.76
  16   0   8   29.32    9.04
  16   0   8   38.24   12.50
  16   0   8   12.96    8.84
  16   0  10    9.86    7.86
  16   0  10    5.98    7.64
  16   0  10   11.81    8.38
  16   0  12   -4.09    5.89
  16   0  12    5.29    7.18
  16   0  12    0.71    6.01
  16   0  14   16.15    6.91
  16   0  14   12.85    8.36
  16   0  14   10.28    6.39
  16   0  16   -0.70    6.72
  16   0  16   18.22    7.47
  16   0  16    5.41    7.60
  16   0  18    5.45    5.38
  16   0  18   20.33   10.93
  16   0  20    6.40    6.36
  16   0  20    3.46    7.54
  16   0  22   38.90   11.90
  16   0  22   53.75   15.56
  16   0  24   -2.08    6.96
  16   0  26  -16.53    7.37
  16   0  28   -6.10    6.78
  16   0  30   -3.24    4.31
  16   0  32   -0.45    3.61
  16   2 -18  -23.09   16.36
  16   2 -16   -5.65   13.10
  16   2 -14  -16.88   17.62
  16  -2  -2    3.13    5.07
  16   2  -2   -4.58    5.50
  16  -2   0    0.25    4.67
  16   2   0    9.18    5.17
  16  -2   2   -1.20    5.39
  16   2   2   -8.57    6.48
  16  -2   4    3.96    4.85
  16   2   4   20.13    7.60
  16  -2   6   44.64    9.96
  16   2   6   59.89   11.27
  16  -2   6   41.06   12.01
  16  -2   8    8.15    6.35
  16   2   8   29.98    8.81
  16   2   8    7.48    7.98
  16   2   8    9.84    6.83
  16  -2   8   14.92    9.44
  16   2  10   -0.99    4.63
  16  -2  10   12.98    7.84
  16   2  10   -3.08    7.07
  16   2  10   -5.93    6.88
  16  -2  10   -4.04    5.54
  16   2  12   -4.96    5.04
  16  -2  12    3.14    5.46
  16  -2  12   -1.03    6.51
  16   2  12   -0.12    7.19
  16  -2  12   -7.06    7.18
  16   2  12   -4.24    8.15
  16   2  14    1.96    4.99
  16  -2  14    3.25    4.87
  16  -2  14   23.06   10.70
  16   2  14    9.36    7.94
  16  -2  14    5.55    6.91
  16  -2  16   16.75    9.03
  16   2  16    3.97    7.03
  16  -2  16   -6.04    7.75
  16   2  18   -9.94    7.69
  16  -2  18    6.70    9.78
  16   2  18   -1.15    6.06
  16  -2  18   -1.53    6.49
  16   2  20   26.77   10.04
  16   2  20   33.31   12.05
  16  -2  20   10.51    7.03
  16   2  22    9.88    6.55
  16  -2  22    2.65    5.86
  16   2  24    3.80    6.95
  16   2  24    9.49    7.75
  16  -2  24   -2.35    6.67
  16   2  26  -23.38    8.34
  16  -2  26   -3.89    7.22
  16  -2  28   12.03    6.96
  16   2  28  -11.27    6.08
  16  -2  30   10.91    6.25
  16   2  30   -5.30    5.12
  16  -2  32    1.12    3.76
  16   2  32    2.83    3.96
  16   4 -18   -8.54   13.95
  16   4 -16   -2.17   14.90
  16   4 -14   -7.39   18.03
  16   4 -12  -11.96   14.46
  16   4 -10    5.88   12.56
  16  -4  -2    6.91    4.46
  16  -4   0   -2.39    4.24
  16   4   0    0.72    4.23
  16  -4   2    2.96    5.19
  16   4   2   20.17    6.96
  16  -4   4    0.07    4.36
  16   4   4    7.50    6.33
  16  -4   4    4.73    7.31
  16  -4   6    3.04    4.66
  16   4   6   21.10    7.65
  16  -4   6   21.65   10.57
  16  -4   8   -5.32    4.96
  16   4   8    5.87    6.08
  16   4   8    7.43    7.07
  16   4   8    0.79    5.30
  16  -4   8    6.36    7.88
  16  -4  10    6.83    6.45
  16   4  10   -5.85    7.41
  16   4  10  -15.41    8.17
  16  -4  10    3.83    6.97
  16   4  10   -5.09    5.54
  16   4  12    2.28    5.18
  16  -4  12   12.76    6.13
  16   4  12   -3.50    7.67
  16  -4  12   15.56    8.46
  16   4  12   -2.10    7.07
  16   4  14   -4.08    6.21
  16  -4  14    5.25    5.46
  16   4  14    0.43    6.35
  16  -4  14   10.67    7.61
  16   4  16   -8.74    8.73
  16   4  16   -4.91    7.69
  16  -4  16   -1.95    7.00
  16   4  18   -4.18    6.93
  16   4  18   -0.90    6.28
  16  -4  18    0.01    5.86
  16   4  20   12.36    8.20
  16   4  20    3.36    7.12
  16  -4  20   -9.63    7.21
  16   4  22    8.48    7.57
  16   4  22    9.65    7.71
  16   4  24    6.51    4.96
  16   4  24   13.53    8.99
  16  -4  24   -3.86    8.04
  16   4  26  -18.25    8.05
  16   4  26   -0.88    6.67
  16  -4  26   -1.73    5.87
  16   4  28   -4.42    5.69
  16  -4  28    6.56    6.02
  16  -4  30    3.83    4.48
  16   4  30    1.47    4.12
  16  -4  32    5.04    4.17
  16   4  32    1.51    3.72
  16   6 -18    5.87   12.35
  16   6 -16   14.53   14.15
  16   6 -14   -2.85   11.70
  16   6 -12   19.64   14.99
  16   6 -10   -3.14   11.99
  16   6  -8  -19.04   20.57
  16   6  -6   11.35   13.32
  16   6  -4    0.52   14.02
  16  -6  -2   28.57    8.23
  16   6  -2   17.90   16.14
  16   6   0    7.89    5.87
  16  -6   0    7.34    6.50
  16   6   0   20.72   12.87
  16  -6   0   -2.16    7.12
  16   6   2   19.39    7.60
  16  -6   2   14.65    7.08
  16  -6   2   10.29    7.46
  16   6   4    8.73    6.62
  16  -6   4    1.81    4.81
  16   6   4    9.41   11.55
  16  -6   4   10.02    7.71
  16   6   6  -13.93    7.42
  16  -6   6   -1.46    4.57
  16  -6   6    5.36    7.20
  16   6   8   -5.16    5.83
  16  -6   8   -5.28    5.62
  16  -6   8    0.82    6.42
  16   6  10   -6.34    6.57
  16  -6  10   -3.15    5.91
  16   6  10   -4.89    7.46
  16   6  10    1.20    5.08
  16  -6  10    7.80    6.31
  16  -6  12   21.05    7.08
  16   6  12   16.63    7.26
  16   6  12    5.53    7.57
  16  -6  12   23.66    9.32
  16   6  12    3.28    7.06
  16  -6  14   -6.31    6.05
  16   6  14    5.45    5.67
  16   6  14    1.03    5.32
  16   6  14   -2.41    8.04
  16  -6  14    8.06    7.22
  16   6  16  -11.91    7.77
  16   6  16   -7.30    6.24
  16  -6  16   -5.23    6.81
  16   6  18    8.02    4.69
  16   6  18    6.35    7.44
  16   6  20    4.67    6.98
  16   6  20    3.57    6.06
  16   6  22    7.44    6.43
  16   6  22   -0.33    6.14
  16  -6  22    0.15    5.39
  16   6  24   -0.22    5.16
  16   6  24  -21.25    9.16
  16  -6  24   -9.35    8.22
  16   6  26    4.27    5.17
  16   6  26   -4.73    6.76
  16  -6  26   -3.22    5.45
  16   6  28   -0.44    5.44
  16   6  28    7.17    5.98
  16  -6  28    4.16    5.69
  16   6  30    3.71    4.21
  16  -6  30    7.93    5.26
  16   8 -18   15.94   13.98
  16   8 -16   23.59   18.18
  16   8 -14   19.18   16.26
  16   8 -12   27.76   19.91
  16   8 -10   14.14   15.17
  16   8  -8    4.89   15.83
  16   8  -6   11.52   16.28
  16  -8  -4   13.51    6.29
  16   8  -4   28.99   18.26
  16  -8  -2    7.01    5.51
  16   8  -2  -17.27   16.04
  16  -8   0   22.16    7.87
  16   8   0   30.46    8.56
  16   8   0   29.26   18.55
  16  -8   2   -1.90    5.23
  16   8   2   -6.16    4.94
  16   8   2    7.36   11.47
  16  -8   2   -0.03    5.78
  16   8   4   -3.89    5.63
  16  -8   4   -1.86    5.95
  16   8   4    3.51   13.68
  16  -8   4   -7.94    7.29
  16   8   6    2.69    4.87
  16  -8   6   -9.17    5.77
  16  -8   6   -0.28    5.32
  16   8   8   -2.95    6.77
  16  -8   8  -10.49    6.39
  16  -8   8    5.12    6.73
  16   8  10   11.89    6.22
  16  -8  10   -6.28    5.55
  16   8  10   10.04    9.13
  16  -8  10   24.99    9.55
  16   8  12   -0.71    5.55
  16  -8  12   20.15    7.51
  16   8  12   21.16    9.34
  16  -8  12   20.41   10.70
  16   8  14   15.27    9.76
  16   8  14   13.50    8.72
  16  -8  14   26.70   10.99
  16   8  16   15.52    9.06
  16   8  16   29.55   11.68
  16  -8  16   13.44    7.48
  16   8  18    3.53    5.02
  16   8  18    3.98    7.92
  16  -8  18  -13.15    7.75
  16   8  20    7.03    6.45
  16   8  20  -10.28    8.70
  16  -8  20   -5.90    6.37
  16   8  22  -13.41    8.22
  16  -8  22   -9.47    6.59
  16   8  24    4.14    4.93
  16   8  24    6.07    6.46
  16  -8  24    4.99    6.07
  16   8  26    0.71    4.37
  16   8  26    9.51    7.25
  16  -8  26   -1.64    5.06
  16   8  28    1.29    4.51
  16   8  28   -0.41    3.60
  16  -8  28    7.49    6.38
  16  -8  30    1.59    4.30
  16   8  30    2.49    3.94
  16  10 -18    9.77   13.49
  16  10 -16   21.16   17.50
  16  10 -14   59.13   24.87
  16  10 -12   28.41   19.34
  16  10 -10   -4.91   11.63
  16  10  -8   29.05   18.61
  16  10  -6    4.69   12.03
  16 -10  -4   -4.95    5.69
  16  10  -4   -6.25   13.76
  16  10  -2   22.10   17.77
  16 -10   0   10.80    6.37
  16  10   0   12.84   14.44
  16 -10   2    9.84    5.72
  16  10   2   11.22    6.11
  16  10   2   23.72   17.74
  16 -10   4  -18.88    8.03
  16  10   4  -11.39    6.34
  16  10   4   -2.84   10.59
  16 -10   4  -25.07    9.22
  16 -10   6    6.38    7.44
  16  10   6   -3.30    5.67
  16 -10   6   -7.26    7.76
  16 -10   8    9.43    6.71
  16  10   8   -7.03    5.57
  16 -10   8    0.84    6.74
  16 -10  10   -0.43    6.12
  16  10  10   -0.72    5.78
  16 -10  10    1.20    6.89
  16  10  12   11.60    7.76
  16 -10  12   20.69    9.11
  16  10  14   28.60   11.95
  16 -10  14   37.28   13.14
  16  10  16   26.52   11.99
  16 -10  16    5.88    7.59
  16  10  18   16.17    9.98
  16 -10  18   -2.14    6.83
  16  10  20  -13.14    6.23
  16  10  20   -3.15    6.07
  16 -10  20    6.70    7.71
  16  10  22   -9.44    5.20
  16  10  22    3.75    5.60
  16 -10  22    5.81    5.94
  16  10  24    2.07    4.85
  16 -10  24   11.86    6.68
  16  10  26   -2.16    4.54
  16  10  26    9.27    6.58
  16 -10  26   10.33    6.12
  16  10  28   -3.00    5.44
  16 -10  28   11.10    5.00
  16  10  28    2.02    3.78
  16  10  30    6.98    5.62
  16  12 -20   -4.80   12.17
  16  12 -18   -2.60   11.60
  16  12 -16   26.07   19.55
  16  12 -14   51.70   21.61
  16  12 -12   39.17   19.92
  16  12 -10   -1.07   14.14
  16  12  -8   10.35   14.05
  16  12  -6   13.01   16.26
  16  12  -4  -13.42   18.65
  16  12  -2    0.39   15.09
  16  12   0   14.71   13.21
  16  12   2    1.54    4.41
  16  12   2  -16.73   13.20
  16  12   4   11.35    6.81
  16  12   4  -21.58   14.43
  16 -12   6   -4.84    5.80
  16  12   6    5.51    5.99
  16 -12   6  -13.50    9.65
  16 -12   8    7.50    5.60
  16  12   8    4.17    4.71
  16 -12   8   -2.46    6.90
  16  12  10   11.38    7.96
  16 -12  10   -2.89    6.24
  16  12  12   10.85    8.92
  16 -12  12   12.87    8.44
  16  12  14   35.19   12.19
  16 -12  14   43.92   13.00
  16  12  16   20.45   10.36
  16 -12  16    9.51    8.91
  16  12  18    3.90    7.35
  16 -12  18    0.04    4.98
  16  12  20   14.57    8.74
  16 -12  20    6.56    7.76
  16  12  22   -3.23    7.39
  16 -12  22   -1.70    5.04
  16  12  24   -5.42    6.68
  16 -12  24   10.04    5.25
  16  12  26    5.32    4.54
  16 -12  26    4.33    4.29
  16  12  28  -13.52    6.43
  16  14 -20    1.86   10.18
  16  14 -18   10.17   10.32
  16  14 -16   13.11   13.02
  16  14 -14   10.83   14.20
  16  14 -12    8.63   15.50
  16  14 -10   20.60   17.53
  16  14  -8   31.18   19.96
  16  14  -6   15.46   17.76
  16  14  -4  -15.72   18.90
  16  14  -2  -11.02   16.36
  16  14   0  -13.43   14.90
  16  14   2  -11.43    7.22
  16  14   2  -12.20   12.50
  16  14   4  -15.35    6.80
  16  14   4  -15.30   16.42
  16 -14   8   -1.37    6.26
  16 -14  10    1.05    6.33
  16  14  12    0.80    6.06
  16 -14  12   21.47    8.47
  16  14  14    9.54    7.69
  16 -14  14  -15.97    7.86
  16  14  16   10.91    8.84
  16 -14  16   12.18    7.32
  16  14  18    5.24    6.76
  16 -14  18   -3.49    6.01
  16  14  20    9.53    6.58
  16 -14  20   -2.22    5.02
  16  14  22    6.27    6.91
  16 -14  22   -8.50    6.51
  16  14  24  -10.43    6.18
  16  14  26   -4.60    4.88
  16  14  28    3.32    3.67
  16  16 -20   14.75   13.23
  16  16 -18  -11.02   14.10
  16  16 -16  -21.52   17.11
  16  16 -14   12.92   13.13
  16  16 -12    0.15   12.50
  16  16 -10  -15.65   15.47
  16  16  -8   35.35   22.24
  16  16  -6   11.16   11.67
  16  16  -4    1.81   11.30
  16  16  -2    9.26   13.98
  16  16   0  -13.48   17.28
  16  16   2   -3.29   10.69
  16  16   4    5.71   12.09
  16  16  12    2.04    5.02
  16  16  14    2.04    5.37
  16 -16  14   -1.75    5.60
  16  16  16   -6.61    5.97
  16 -16  16   -8.05    7.24
  16  16  18    2.91    5.09
  16  16  20   12.92    7.83
  16  16  22   14.75    7.56
  16  16  24   -2.68    4.15
  16  16  26   -4.39    4.55
  16  18 -20   -3.85   10.66
  16  18 -18    6.60    9.58
  16  18 -16  -23.52   15.37
  16  18 -14    6.61   14.01
  16  18 -12  -11.24   14.85
  16  18 -10   -4.86   14.53
  16  18  -8  -11.66   15.75
  16  18  -6   16.99   17.24
  16  18  -4   20.75   15.35
  16  18  -2   -3.27   12.17
  16  18   0  -17.31   14.62
  16  18   2    1.23   12.10
  16  18   4   14.53   15.24
  16  18  14   -1.11    5.39
  16  18  16    3.70    6.39
  16  18  18    7.81    6.81
  16  18  20    6.00    5.40
  16  18  22   19.50    7.81
  16  18  24    6.12    4.71
  16  18  26    3.32    3.64
  16  20 -18   14.40   12.46
  16  20 -16    1.30   10.70
  16  20 -14    8.92   13.06
  16  20 -12    3.29   11.79
  16  20 -10  -13.63   14.49
  16  20  -8  -10.22   13.45
  16  20  -6   19.39   15.36
  16  20  -4   12.01   15.88
  16  20  -2   19.75   17.44
  16  20   0    6.74   12.72
  16  20   2   12.76   14.95
  16  20   4    2.50   10.12
  16  20  16   -3.49    4.34
  16  20  18   13.02    6.72
  16  20  20   12.44    6.86
  16  20  22    8.52    5.36
  16  20  24   11.55    5.10
  16  22 -18   -1.79    9.82
  16  22 -16  -27.96   14.73
  16  22 -14   -1.77   10.43
  16  22 -12  -17.38   13.29
  16  22 -10   -3.36   11.81
  16  22  -8   -6.76   12.75
  16  22  -6   -6.00   15.55
  16  22  -4  -15.06   16.54
  16  22  -2  -17.53   14.15
  16  22   0   31.49   14.87
  16  22   2   -6.07   16.00
  16  22   4   -1.66   10.29
  16  22  16    1.02    3.65
  16  22  18    4.19    4.38
  16  22  20   -6.36    4.21
  16  24 -18   -4.47    8.66
  16  24 -16   -4.44    8.99
  16  24 -14    7.44    9.95
  16  24 -12  -10.36   13.40
  16  24 -10    0.01   10.23
  16  24  -8    3.97   10.09
  16  24  -6   -3.54   15.04
  16  24  -4   -5.72   11.03
  16  24  -2    6.00   12.75
  16  24   0    1.49   11.14
  16  24   2    4.79   10.16
  16  24   4   11.52   12.01
  16  26 -14   -3.55    8.50
  16  26 -12    6.42   10.79
  16  26 -10   10.08   11.37
  16  26  -8   -0.87    9.13
  16  26  -6    0.81    9.65
  16  26  -4   17.85   13.13
  16  26  -2    2.81    9.43
  16  26   0   34.39   14.96
  16  26   2   -8.18   11.12
  16  28 -12   -2.36    8.82
  16  28 -10   13.54   10.37
  16  28  -8   -3.90    8.29
  16  28  -6   -3.16    8.61
  16  28  -4    2.76    8.76
  16  28  -2    9.32   10.03
  16  28   0   18.76   13.66
  16  28   2    5.66    9.02
  17   1 -19   38.18   18.31
  17  -1 -19    7.34   12.82
  17   1 -17  -14.19   17.27
  17  -1 -17    6.90   14.28
  17   1 -15   -1.06   17.14
  17   1  -1   -9.90    7.10
  17  -1  -1   -8.52    5.48
  17   1   1   -2.76    5.17
  17  -1   1  -12.36    6.07
  17   1   1   -3.48    8.46
  17   1   3   -2.42    5.66
  17  -1   3    6.84    5.04
  17  -1   3   -2.33    7.30
  17   1   3    1.27    6.52
  17   1   5   51.18   10.75
  17  -1   5   40.33    9.77
  17  -1   5   19.90    9.99
  17   1   5   30.47   11.64
  17   1   7   64.65   12.07
  17  -1   7   50.39   12.16
  17  -1   7   39.76   12.50
  17   1   7   46.25   12.85
  17   1   9   33.55   10.25
  17  -1   9   53.98   11.82
  17   1   9   42.01   13.39
  17  -1   9   19.99   10.49
  17   1   9   17.98    9.45
  17   1  11    3.61    5.08
  17  -1  11   10.31    6.70
  17   1  11   19.26   10.86
  17  -1  11   17.03    8.75
  17   1  11    9.25    8.56
  17   1  13    8.62    7.20
  17  -1  13    4.48    5.90
  17   1  13   -4.80    7.51
  17   1  15   -2.24    7.69
  17   1  15   -4.89    7.84
  17  -1  15    5.35    6.97
  17   1  17    2.00    6.14
  17  -1  17   -5.73    7.30
  17   1  17   -0.37    5.12
  17   1  19    3.77    8.32
  17   1  19    8.43    7.36
  17  -1  19   12.70    8.17
  17   1  21   36.60   13.82
  17   1  21   26.90   10.45
  17  -1  21   24.10    9.78
  17  -1  23   29.31   10.79
  17   1  23    9.87    8.01
  17  -1  25   23.48    9.20
  17   1  25   16.48    7.41
  17   1  27    7.08    6.03
  17  -1  27    5.66    6.15
  17  -1  29   17.07    7.00
  17   1  29    7.87    5.65
  17  -1  31    8.68    4.83
  17   1  31    1.80    3.89
  17   3 -19   16.27   15.17
  17  -3 -19   -7.49   15.89
  17   3 -17   17.15   14.35
  17   3 -15  -24.84   20.29
  17   3 -13   -6.55   14.73
  17   3 -11  -11.86   12.46
  17  -3  -1    0.51    4.41
  17  -3   1   -2.70    5.69
  17   3   1  -12.75    6.17
  17  -3   3   -0.79    4.89
  17   3   3    7.64    5.85
  17  -3   3   -5.41    6.88
  17   3   3    0.41    6.71
  17  -3   5   10.32    7.44
  17   3   5   20.01    8.09
  17   3   5    9.59    8.00
  17  -3   5   12.02    8.22
  17  -3   7   31.60    9.49
  17   3   7   14.72    8.56
  17   3   7   18.65    8.77
  17  -3   7   11.23    8.32
  17   3   7   14.57    7.82
  17   3   9    5.26    6.50
  17  -3   9   10.53    6.17
  17   3   9    6.21    7.07
  17  -3   9   15.73    9.30
  17   3   9   13.89    8.07
  17   3  11   -9.49    6.90
  17  -3  11    8.08    5.97
  17   3  11    3.08    7.39
  17   3  11    4.84    6.38
  17  -3  11    8.92    7.14
  17   3  13    3.32    6.85
  17  -3  13    0.40    5.84
  17   3  13   -9.93    6.84
  17   3  15   -4.37    7.33
  17  -3  15   -0.77    5.40
  17   3  17   -4.74    6.64
  17   3  17   -2.54    6.75
  17  -3  17   14.10    7.85
  17   3  19    9.90    8.79
  17   3  19    8.36    7.01
  17  -3  19    8.48    7.14
  17   3  21   12.20    8.91
  17   3  21   10.03    6.97
  17  -3  21    6.18    6.81
  17   3  23   19.19    8.46
  17  -3  23   13.31    7.89
  17   3  23   -3.32    5.66
  17   3  25    0.32    5.35
  17  -3  25   -5.31    6.16
  17  -3  27    7.96    6.22
  17   3  27   -1.11    5.02
  17   3  29   -2.30    4.05
  17  -3  29    4.86    5.72
  17   3  31    5.96    3.92
  17  -3  31    1.98    4.08
  17   5 -19    3.76   11.89
  17   5 -17  -12.89   14.27
  17   5 -15    0.75   14.80
  17   5 -13   -7.74   15.79
  17   5 -11    9.83   14.63
  17   5  -9  -12.00   15.95
  17   5  -7    7.71   15.73
  17   5  -5    6.35   13.47
  17   5  -3  -27.55   15.58
  17  -5  -1   20.02    8.54
  17   5  -1    9.92   16.69
  17   5   1   17.35    7.07
  17  -5   1   11.73    6.95
  17   5   1   29.02   18.28
  17  -5   1   -4.23    6.01
  17   5   3   11.62    6.72
  17  -5   3    6.39    5.22
  17   5   3    8.60   14.74
  17  -5   3  -12.08    9.37
  17  -5   5   -0.38    4.76
  17   5   5   -5.90    5.52
  17  -5   5   -4.19    6.81
  17  -5   7   -1.37    5.05
  17   5   7   -4.01    5.22
  17  -5   7   -7.97    6.46
  17  -5   9  -14.07    6.36
  17   5   9  -10.00    7.24
  17   5   9    1.28    5.54
  17  -5   9   -2.91    6.28
  17   5   9    5.26    6.73
  17   5  11   -0.44    4.85
  17  -5  11   -7.89    6.07
  17   5  11   -0.85    7.54
  17   5  11    0.43    5.10
  17  -5  11    5.24    7.90
  17   5  13    3.03    6.24
  17  -5  13    6.59    8.63
  17   5  13    1.98    4.93
  17   5  15    2.06    6.68
  17  -5  15   11.68    8.69
  17   5  15   -2.20    6.43
  17   5  17    3.81    7.32
  17  -5  17    6.49    6.25
  17   5  17  -13.56    8.65
  17   5  19    7.08    9.81
  17   5  19   -2.11    5.37
  17   5  21   10.11    8.13
  17  -5  21   12.85    8.23
  17   5  21    1.26    4.86
  17   5  23    6.51    7.08
  17  -5  23    2.43    5.88
  17   5  23   -0.87    4.64
  17   5  25   -1.63    5.63
  17  -5  25   -0.91    5.11
  17   5  25   -0.56    4.78
  17   5  27    2.07    5.06
  17  -5  27    3.33    5.27
  17  -5  29   13.98    6.58
  17   5  29    7.98    5.21
  17   7 -19    4.74   11.32
  17   7 -17   25.42   16.65
  17   7 -15   38.24   20.86
  17   7 -13    6.91   14.26
  17   7 -11    9.50   15.44
  17   7  -9    6.10   13.53
  17   7  -7    6.32   13.92
  17   7  -5    4.38   11.80
  17   7  -3   10.77   15.40
  17  -7  -1   16.06    7.12
  17   7  -1   17.11   18.12
  17   7   1   12.91    6.57
  17  -7   1   22.48    8.53
  17   7   1   26.56   19.06
  17   7   3   14.53    7.30
  17  -7   3    4.34    6.49
  17   7   3   12.42   14.24
  17  -7   3   -2.39    7.31
  17   7   5   -8.27    6.36
  17  -7   5   -8.87    5.47
  17  -7   5   -4.10    5.79
  17   7   7   -9.61    6.37
  17  -7   7   -6.39    5.57
  17  -7   7    0.72    6.73
  17   7   9   -8.80    6.14
  17  -7   9   -2.69    5.11
  17   7   9   14.33    9.41
  17  -7   9   10.74    7.84
  17   7  11    1.98    7.13
  17  -7  11   21.78   10.53
  17   7  13   14.86    8.70
  17  -7  13   11.64    9.05
  17   7  13   17.70    8.70
  17   7  15   17.88   10.10
  17   7  15   30.21   10.69
  17  -7  15   44.73   13.19
  17   7  17   14.29    8.60
  17  -7  17   11.32    8.79
  17   7  17    7.74    7.72
  17   7  19    1.52    6.84
  17   7  19   -8.22    6.72
  17  -7  19    6.51    6.66
  17   7  21    1.78    6.38
  17   7  21   -6.80    5.47
  17  -7  21   -0.50    5.01
  17   7  23    3.94    5.28
  17   7  23   -7.20    6.56
  17   7  25   15.55    7.97
  17  -7  25   23.96    8.19
  17   7  25   11.80    6.19
  17   7  27    8.95    6.97
  17   7  27   17.97    6.56
  17  -7  27   18.94    7.79
  17  -7  29   14.41    5.89
  17   7  29   16.52    5.83
  17   9 -19   34.56   17.87
  17   9 -17   33.34   20.34
  17   9 -15   55.08   23.45
  17   9 -13   46.09   23.09
  17   9 -11   11.73   14.57
  17   9  -9   28.62   19.33
  17   9  -7   -9.49   12.00
  17   9  -5   16.61   15.26
  17  -9  -3    6.67    6.50
  17   9  -3   20.99   17.05
  17  -9  -1   16.93    8.59
  17   9  -1   24.29   18.00
  17  -9   1   24.33    8.36
  17   9   1   42.02   21.69
  17  -9   3    3.41    5.18
  17   9   3    9.78    7.33
  17   9   3   11.37   15.13
  17  -9   3   -3.05    8.08
  17  -9   5  -12.98    6.71
  17   9   5    5.65    5.16
  17  -9   5  -18.57    8.70
  17  -9   7   -1.77    4.82
  17   9   7    2.93    6.47
  17  -9   7   -2.94    6.99
  17  -9   9    1.20    6.03
  17   9  11    8.15    5.62
  17  -9  11   12.20    9.42
  17   9  13   42.08   12.53
  17  -9  13   39.43   12.54
  17   9  15   18.23   10.18
  17  -9  15   26.69   11.01
  17   9  17    1.02    5.73
  17   9  17    5.69    5.34
  17   9  19    6.74    8.09
  17  -9  19    9.03    7.68
  17   9  19    1.64    4.62
  17   9  21    7.56    6.50
  17  -9  21   11.84    7.41
  17   9  21   -6.70    6.20
  17   9  23   -3.43    5.45
  17  -9  23    7.77    5.80
  17   9  23    0.24    4.40
  17   9  25   15.29    7.47
  17  -9  25   23.41    8.18
  17   9  25    9.56    5.37
  17   9  27   14.50    7.03
  17  -9  27   15.08    6.38
  17   9  27   16.71    6.07
  17  11 -19   23.69   15.64
  17  11 -17   26.28   18.21
  17  11 -15   46.15   21.23
  17  11 -13   73.95   26.11
  17  11 -11   15.81   18.49
  17  11  -9   13.91   17.76
  17  11  -7   14.70   17.36
  17  11  -5   -1.80   15.06
  17 -11  -3  -21.18    7.44
  17  11  -3   11.49   14.72
  17 -11  -1    2.54    5.06
  17  11  -1   -2.19   13.59
  17 -11   1    9.27    6.64
  17  11   1    9.41   14.55
  17  11   3    6.35    6.14
  17 -11   3    3.77    5.13
  17  11   3    6.23   12.12
  17 -11   5   -5.63    5.13
  17  11   5   10.95    6.81
  17 -11   7  -12.96    8.95
  17 -11   9   -4.90    8.01
  17  11  11   12.13    8.90
  17 -11  11   -3.89    7.19
  17  11  13   34.39   12.07
  17 -11  13   38.23   13.66
  17  11  15   20.81    9.24
  17 -11  15   27.91   10.54
  17  11  17    9.72    8.38
  17 -11  17   11.44    7.34
  17  11  19    0.50    5.64
  17 -11  19    4.50    6.03
  17  11  21  -20.05    8.42
  17 -11  21   -3.12    5.92
  17  11  23    1.00    5.57
  17 -11  23    1.58    5.14
  17  11  25   10.05    7.38
  17 -11  25    3.97    5.08
  17  11  27   12.86    6.37
  17 -11  27    0.76    3.52
  17  13 -19   -4.96   10.04
  17  13 -17   -3.25   10.01
  17  13 -15   27.53   16.81
  17  13 -13   21.89   17.94
  17  13 -11   11.02   16.33
  17  13  -9   32.47   21.86
  17  13  -7   17.91   19.98
  17  13  -5   11.18   15.00
  17  13  -3   11.55   14.27
  17  13  -1   11.56   16.35
  17  13   1   10.40   16.33
  17  13   3   -2.22   11.84
  17 -13   9  -13.11    8.14
  17 -13  11    0.39    6.08
  17  13  13   10.50    8.68
  17 -13  13    7.81    7.26
  17  13  15    0.84    5.36
  17 -13  15   10.52    7.49
  17  13  17   -4.10    6.57
  17 -13  17   -5.08    6.82
  17  13  19   -7.30    7.34
  17 -13  19   -9.93    6.67
  17  13  21   -6.10    6.10
  17 -13  21   -8.67    6.83
  17  13  23    8.94    6.56
  17 -13  23    0.89    4.28
  17  13  25    5.37    4.90
  17  13  27    2.74    3.63
  17  15 -19   -3.45    8.97
  17  15 -17  -10.66   16.38
  17  15 -15   -0.27   12.76
  17  15 -13   10.58   15.34
  17  15 -11   12.40   14.17
  17  15  -9   29.76   20.11
  17  15  -7   17.28   16.64
  17  15  -5    0.31   12.46
  17  15  -3   -2.59   11.24
  17  15  -1   -7.83   13.75
  17  15   1   -7.98   13.15
  17  15   3   -1.78   12.16
  17  15  13    5.59    5.77
  17 -15  13   -7.81    6.75
  17  15  15    0.26    5.22
  17 -15  15    0.51    5.65
  17  15  17  -24.21    8.54
  17 -15  17  -10.10    7.15
  17  15  19    4.64    6.44
  17 -15  19   -9.21    6.26
  17  15  21    5.45    5.77
  17  15  23    5.24    5.60
  17  15  25    2.01    4.33
  17  17 -19   26.27   13.49
  17  17 -17    1.80   12.64
  17  17 -15   -7.70   13.44
  17  17 -13    4.08   10.64
  17  17 -11    1.11   13.29
  17  17  -9   21.78   17.25
  17  17  -7    5.56   12.27
  17  17  -5   37.42   16.92
  17  17  -3  -13.16   12.92
  17  17  -1   -2.26   10.68
  17  17   1   -6.05   11.20
  17  17   3   18.68   16.30
  17  17  15    5.59    6.54
  17  17  17   13.32    7.52
  17  17  19   16.39    7.72
  17  17  21   25.64    8.47
  17  17  23   18.87    7.04
  17  17  25    1.68    3.63
  17  19 -19   12.79   11.85
  17  19 -17   18.88   14.24
  17  19 -15    4.08   10.89
  17  19 -13    4.80   10.20
  17  19 -11   -7.26   12.81
  17  19  -9   -2.73   13.13
  17  19  -7   21.18   14.54
  17  19  -5   24.68   16.11
  17  19  -3   31.33   15.52
  17  19  -1   12.33   15.56
  17  19   1   13.04   14.16
  17  19   3   18.67   13.87
  17  19  15    3.34    4.21
  17  19  17   19.57    7.67
  17  19  19   18.27    6.53
  17  19  21   21.44    6.71
  17  21 -19    5.38    7.74
  17  21 -17  -11.16   10.08
  17  21 -15   -2.35    8.84
  17  21 -13   -2.62   10.25
  17  21 -11   -9.08   11.70
  17  21  -9    2.00   10.81
  17  21  -7    9.23   12.26
  17  21  -5   24.06   14.39
  17  21  -3    8.75   15.00
  17  21  -1   12.78   13.74
  17  21   1    8.50   12.05
  17  21   3  -13.48   10.09
  17  21  19    7.28    5.12
  17  23 -17   -6.00    8.71
  17  23 -15   -8.00    9.31
  17  23 -13   -1.27    8.95
  17  23 -11  -24.51   14.41
  17  23  -9   -5.26   10.40
  17  23  -7    0.53   12.56
  17  23  -5   -6.53   12.46
  17  23  -3   11.38   11.47
  17  23  -1    3.58   11.21
  17  23   1    9.63   10.55
  17  23   3  -10.38   10.51
  17  25 -15    9.89    8.39
  17  25 -13   28.91   12.25
  17  25 -11   12.20   11.60
  17  25  -9   -5.71    9.02
  17  25  -7    3.18    9.28
  17  25  -5    3.04    8.89
  17  25  -3   10.30   12.07
  17  25  -1    2.07   10.02
  17  25   1   19.26   12.71
  17  25   3    5.72    7.95
  17  27 -11   13.25    9.87
  17  27  -9   17.19   11.32
  17  27  -7   12.44   11.46
  17  27  -5    9.29   10.08
  17  27  -3   30.38   12.16
  17  27  -1   10.91    9.12
  17  27   1    7.09   10.18
  18   0 -20   14.58   14.18
  18   0 -18   15.27   13.32
  18   0 -16    8.70   14.56
  18   0 -14   -8.39   17.81
  18   0   0  -12.00    6.25
  18   0   2    6.57    5.83
  18   0   2  -31.09   10.00
  18   0   4   21.00    8.61
  18   0   4    2.51    6.10
  18   0   6   55.40   11.94
  18   0   6   33.25   11.91
  18   0   8   59.47   12.33
  18   0   8   56.16   14.21
  18   0  10   18.53    9.61
  18   0  12   11.18    7.73
  18   0  14    7.09    7.02
  18   0  16   18.23   10.01
  18   0  18   -3.12    5.53
  18   0  20   23.73    9.14
  18   0  22   25.96    9.75
  18   0  24   21.56    8.97
  18   0  26   10.71    7.03
  18   0  28    7.13    5.25
  18   2 -20   14.11   14.71
  18   2 -18  -20.58   17.45
  18  -2 -18   -1.58   11.14
  18   2 -16  -36.90   18.53
  18  -2 -16   -7.60   13.27
  18   2 -14  -10.89   19.08
  18   2 -12   -6.55   17.36
  18   2 -10   18.51   17.08
  18  -2   0   -4.44    5.40
  18   2   2   -1.25    5.45
  18  -2   2   -8.21    5.78
  18   2   4    2.00    4.27
  18  -2   4   -1.35    4.62
  18   2   4   21.06   16.45
  18  -2   4    8.89    7.03
  18   2   4    2.89    5.38
  18   2   6   38.30   10.42
  18  -2   6   39.56    9.77
  18  -2   6    7.43    8.71
  18   2   6   18.20    9.93
  18   2   8   40.17   10.81
  18  -2   8   38.85   10.86
  18  -2   8   14.08    9.39
  18   2   8   21.82   10.06
  18  -2  10   18.81   10.40
  18   2  10   24.93   10.64
  18   2  12   -0.54    7.15
  18  -2  12   14.42    8.72
  18   2  12   -6.19    5.96
  18   2  14    3.56    8.40
  18   2  14    2.54    6.12
  18  -2  14    4.04    6.51
  18   2  16   -0.17    5.53
  18   2  16    7.91    6.04
  18  -2  16   14.95    8.18
  18  -2  18   10.99    7.50
  18   2  18    5.09    6.27
  18  -2  20   -2.37    5.13
  18   2  20   21.54    8.38
  18  -2  22   12.70    7.54
  18   2  22   18.36    9.60
  18   2  24   12.00    6.90
  18  -2  24   12.75    6.89
  18   2  26    6.57    5.28
  18  -2  26   26.57    8.55
  18  -2  28   17.10    7.16
  18   2  28    3.50    4.89
  18   4 -20   -2.71   12.78
  18   4 -18    7.07   12.20
  18  -4 -18    4.95   12.13
  18   4 -16   -3.30   13.76
  18   4 -14  -13.08   17.08
  18   4 -12  -16.45   17.27
  18   4 -10   -6.76   15.69
  18   4  -8   12.14   16.52
  18   4  -6  -11.13   14.94
  18   4  -4    2.65   11.94
  18   4  -2   19.08   13.01
  18  -4   0    2.74    4.53
  18   4   0    2.46   12.68
  18  -4   2   -8.81    5.53
  18   4   2    1.17    5.07
  18   4   2  -19.85   13.54
  18  -4   2   -8.76    8.70
  18  -4   4  -14.07    6.75
  18   4   4    4.39    5.23
  18   4   4    2.67   11.95
  18  -4   4  -10.75    8.65
  18   4   6    8.80    5.90
  18  -4   6    8.14    6.99
  18  -4   6   -3.60    7.40
  18   4   6    5.97    6.99
  18   4   8    1.27    7.21
  18   4   8    2.27    5.24
  18  -4   8   -6.46    6.09
  18   4  10   -4.43    7.51
  18  -4  10   -0.27    5.23
  18   4  10   -1.03    5.44
  18   4  12   -9.33    8.19
  18  -4  12    6.02    6.97
  18   4  12   -2.06    6.93
  18   4  14   -4.19    6.39
  18  -4  14    0.07    6.01
  18   4  16    4.05    5.83
  18   4  16    6.74    6.90
  18  -4  16    7.29    7.59
  18   4  18    4.49    5.61
  18   4  18    6.06    6.91
  18  -4  18    3.67    6.52
  18   4  20   14.39    8.55
  18   4  20   15.01    7.80
  18  -4  20    5.19    6.39
  18   4  22   10.65    6.25
  18  -4  22    8.71    7.13
  18   4  24   -4.64    5.20
  18  -4  24   -3.60    5.01
  18   4  26    4.90    5.19
  18  -4  26    9.29    6.57
  18  -4  28    8.44    5.20
  18   4  28   10.03    5.02
  18   6 -20   10.18   11.16
  18   6 -18   26.77   16.37
  18   6 -16   15.94   17.21
  18   6 -14   12.17   15.67
  18   6 -12  -10.41   18.78
  18   6 -10  -12.84   15.09
  18   6  -8   -2.40   14.68
  18   6  -6  -22.85   17.02
  18   6  -4    2.05   13.71
  18   6  -2   23.53   19.42
  18  -6   0    9.90    6.40
  18   6   0   15.01   18.74
  18   6   2   13.82    6.83
  18  -6   2   12.81    6.88
  18   6   2   20.84   17.17
  18   6   4   11.63    6.74
  18  -6   4   -2.30    4.52
  18   6   4   -4.57   11.36
  18  -6   6   -1.27    5.85
  18  -6   8    0.18    5.55
  18   6  10   -6.37    6.39
  18  -6  10    2.27    4.99
  18  -6  12   11.16    7.95
  18   6  12    4.53    6.82
  18   6  14    4.56    6.41
  18   6  14   24.35    9.82
  18  -6  14   22.60   11.03
  18   6  16   13.84    9.35
  18   6  16   11.19    8.04
  18  -6  16   15.82    9.44
  18   6  18   14.33    9.24
  18  -6  18    5.21    6.44
  18   6  18    8.97    6.51
  18   6  20   14.48    8.60
  18  -6  20   10.24    8.54
  18   6  20    8.30    6.60
  18   6  22    6.15    7.27
  18  -6  22   10.73    7.05
  18   6  22   12.99    7.05
  18   6  24   12.69    6.98
  18  -6  24    7.81    6.05
  18   6  24    5.54    4.91
  18   6  26    9.29    5.66
  18  -6  26    8.73    6.04
  18  -6  28    9.85    4.80
  18   6  28   15.19    5.72
  18   8 -20   23.80   15.29
  18   8 -18   28.67   17.77
  18   8 -16   29.76   19.54
  18   8 -14   47.52   21.98
  18   8 -12   41.46   20.67
  18   8 -10   -6.22   13.41
  18   8  -8    2.37   12.07
  18   8  -6   -3.50   12.89
  18   8  -4    0.68   15.09
  18   8  -2   32.62   21.14
  18  -8   0   16.11    7.53
  18   8   0   11.84   18.20
  18   8   2   68.34   23.27
  18   8   4    1.40   12.42
  18  -8   4    2.81    6.46
  18  -8   6   -4.05    7.28
  18  -8   8   -7.31    8.36
  18   8  10   -4.12    6.57
  18  -8  10  -13.32    7.93
  18   8  12    6.18    5.51
  18  -8  12   16.93    9.96
  18   8  14   20.26   10.52
  18  -8  14   31.54   11.43
  18   8  16    3.94    5.74
  18   8  16   15.51    7.96
  18  -8  16   21.20    8.96
  18   8  18   16.11    9.01
  18  -8  18   11.14    8.45
  18   8  18   14.44    7.50
  18   8  20   12.65    7.71
  18  -8  20   15.48    9.02
  18   8  20   11.66    6.65
  18   8  22   10.98    7.25
  18  -8  22    3.01    5.14
  18   8  22    6.19    4.97
  18   8  24   -1.49    4.27
  18  -8  24   13.52    7.39
  18   8  24   10.88    5.87
  18  -8  26    8.37    6.17
  18   8  26   19.63    6.10
  18  10 -20    4.53   10.21
  18  10 -18   27.61   15.41
  18  10 -16   38.01   19.42
  18  10 -14   60.76   22.36
  18  10 -12   58.55   23.79
  18  10 -10   11.68   17.31
  18  10  -8   12.44   17.43
  18  10  -6    8.15   14.37
  18  10  -4   15.20   17.04
  18  10  -2   23.39   15.81
  18  10   0   15.07   15.93
  18  10   2   24.71   17.37
  18  10   4    8.60   14.93
  18 -10   6  -23.08    9.44
  18 -10   8  -15.58    8.31
  18 -10  10  -31.64   10.28
  18  10  12   17.19    9.77
  18 -10  12   10.25    8.82
  18  10  14   21.75    9.25
  18 -10  14   24.81   10.41
  18  10  16   11.32    7.95
  18 -10  16   30.39   10.31
  18  10  18   14.11    8.82
  18 -10  18   10.57    7.41
  18  10  20    7.02    6.73
  18 -10  20    5.95    6.20
  18  10  22    2.59    5.59
  18 -10  22    5.72    5.29
  18  10  24    2.30    4.87
  18 -10  24    4.19    5.00
  18 -10  26   -0.13    3.57
  18  12 -20   -9.41   12.05
  18  12 -18   -2.90   10.52
  18  12 -16   27.73   17.71
  18  12 -14   29.35   17.79
  18  12 -12   40.09   21.28
  18  12 -10   29.72   19.14
  18  12  -8   36.20   19.75
  18  12  -6   14.42   17.09
  18  12  -4   25.91   19.66
  18  12  -2    4.24   12.55
  18  12   0   -0.62   11.02
  18  12   2    8.39   13.51
  18  12   4    2.20   10.39
  18 -12  10  -22.23    9.17
  18  12  12    7.51    7.46
  18 -12  12    2.47    5.69
  18  12  14   12.92    8.03
  18 -12  14   12.73    7.71
  18  12  16    2.92    5.08
  18 -12  16    4.25    5.01
  18  12  18    3.68    6.21
  18 -12  18   10.24    7.12
  18  12  20  -11.24    6.69
  18 -12  20   -6.30    5.05
  18  12  22   -9.19    6.33
  18 -12  22   -9.43    6.07
  18  12  24    6.66    4.28
  18 -12  24  -10.12    5.71
  18  12  26   11.03    5.80
  18  14 -20    5.70    8.98
  18  14 -18  -19.74   14.81
  18  14 -16    3.33   12.57
  18  14 -14   25.88   18.68
  18  14 -12   15.84   15.33
  18  14 -10   24.95   18.66
  18  14  -8    4.54   15.50
  18  14  -6    4.87   14.45
  18  14  -4    6.33   16.14
  18  14  -2  -13.35   14.30
  18  14   0   10.79   15.32
  18  14   2   -6.60   13.95
  18  14   4    6.77   10.75
  18  14  14    6.98    6.53
  18  14  16   -3.37    5.41
  18 -14  16   -9.43    7.16
  18  14  18   -3.92    6.29
  18 -14  18  -15.78    7.30
  18  14  20   -2.90    6.09
  18  14  22   -4.02    5.36
  18  14  24   -7.63    4.43
  18  16 -20   19.48   14.97
  18  16 -18    9.95   10.39
  18  16 -16   -9.93   10.98
  18  16 -14    2.82   10.57
  18  16 -12    1.18   11.33
  18  16 -10   21.62   16.18
  18  16  -8   13.22   15.35
  18  16  -6   16.44   15.92
  18  16  -4   16.66   12.62
  18  16  -2  -13.63   17.31
  18  16   0   23.89   15.62
  18  16   2  -13.10   13.80
  18  16   4    7.22   11.76
  18  16  16  -13.50    6.25
  18  16  18   12.60    6.45
  18  16  20   11.97    5.99
  18  16  22   13.90    5.85
  18  18 -18   26.49   13.08
  18  18 -16   27.65   15.70
  18  18 -14   14.24   15.24
  18  18 -12   -7.55   11.04
  18  18 -10   14.52   15.03
  18  18  -8    4.00   13.29
  18  18  -6   15.56   16.15
  18  18  -4    0.58   17.38
  18  18  -2   20.27   11.89
  18  18   0   13.81   12.21
  18  18   2    6.73   13.00
  18  18   4   31.00   17.14
  18  18  16    3.04    4.40
  18  18  18    8.69    5.96
  18  18  20   25.08    7.21
  18  20 -18    8.02    8.14
  18  20 -16    9.31    8.65
  18  20 -14   10.61   10.25
  18  20 -12   -3.31   10.17
  18  20 -10   10.42   13.08
  18  20  -8   -4.31   10.88
  18  20  -6    9.36   13.57
  18  20  -4   14.69   15.68
  18  20  -2   -0.29   11.74
  18  20   0    5.55   11.90
  18  20   2   13.37   13.26
  18  22 -16   -5.85    7.96
  18  22 -14    6.77    8.65
  18  22 -12  -20.66   11.57
  18  22 -10   -8.50   10.91
  18  22  -8  -21.42   11.67
  18  22  -6   -5.79    9.85
  18  22  -4   18.43   12.45
  18  22  -2  -10.32   12.73
  18  22   0   16.56   13.48
  18  22   2    0.55    9.25
  18  24 -14   11.90    9.57
  18  24 -12    6.80    8.39
  18  24 -10   -9.78    9.30
  18  24  -8    4.12   10.14
  18  24  -6   10.23   10.13
  18  24  -4    9.95    9.74
  18  24  -2    6.65    8.17
  18  24   0   35.33   13.39
  18  24   2    8.39   10.04
  18  26 -10   22.56   11.32
  18  26  -8    3.29    7.53
  18  26  -6    3.06    8.51
  18  26  -4    3.25    7.47
  18  26  -2   19.10   11.48
  18  26   0    7.68   10.00
  19  -1 -19  -18.82   15.24
  19   1 -19    5.28   10.43
  19   1 -17    4.70   11.14
  19  -1 -17    1.00   12.87
  19   1 -15   -6.89   12.63
  19  -1 -15  -22.50   18.19
  19   1 -13  -18.14   17.57
  19  -1 -13   -1.03   14.21
  19   1 -11   12.97   12.53
  19   1  -9    2.85   12.20
  19   1   3  -12.09   14.77
  19   1   3   -3.93    8.00
  19  -1   5   -6.53    8.16
  19   1   5   -1.89    5.92
  19  -1   7   21.07    9.92
  19   1   7   17.08    9.16
  19  -1   9   18.69    9.46
  19   1   9   11.98    8.99
  19  -1  11   26.55   10.47
  19   1  11   11.60    6.63
  19  -1  13   -4.65    5.20
  19   1  13    8.83    7.66
  19  -1  15   13.24    7.72
  19   1  15    2.38    6.05
  19  -1  17   16.83    8.96
  19   1  17    2.60    5.07
  19  -1  19    8.21    6.94
  19   1  19    5.22    5.04
  19  -1  21   13.72    6.60
  19   1  21    8.27    6.50
  19  -1  23    5.20    5.08
  19   1  23   19.25    7.90
  19  -1  25    4.78    5.70
  19   1  25    3.86    5.08
  19  -1  27   -4.07    3.33
  19   1  27    6.79    4.85
  19   3 -19   18.49   12.13
  19  -3 -19  -14.35   12.65
  19  -3 -17  -19.26   14.68
  19   3 -17  -10.26   13.09
  19   3 -15  -16.99   15.48
  19  -3 -15    8.33   11.81
  19   3 -13  -12.11   17.87
  19   3 -11  -21.35   17.93
  19   3  -9    2.21   13.27
  19   3  -7   10.26   15.26
  19   3  -5  -10.31   16.09
  19   3  -3  -14.71   17.55
  19   3  -1  -30.18   23.32
  19   3   1  -23.29   18.64
  19   3   3    6.32   10.41
  19  -3   5   -9.47    9.09
  19   3   5   -9.31    6.97
  19  -3   7   -7.77    8.29
  19   3   7    3.54    5.76
  19  -3   9    2.31    6.13
  19   3   9   -0.58    5.69
  19  -3  11   -6.51    6.60
  19   3  11   -4.27    6.06
  19  -3  13    1.69    5.43
  19   3  13    3.37    5.52
  19  -3  15   -4.80    5.13
  19   3  15    9.70    7.09
  19  -3  17    0.10    4.57
  19   3  17    9.84    6.19
  19  -3  19   13.40    7.76
  19   3  19    4.95    5.72
  19  -3  21   -1.04    5.56
  19   3  21    7.59    6.51
  19  -3  23    5.90    5.39
  19   3  23   12.33    6.52
  19  -3  25    3.59    4.65
  19   3  25    1.35    3.81
  19  -3  27    0.70    3.91
  19   3  27    8.09    4.95
  19  -5 -19    7.34   14.56
  19   5 -19    4.30    9.60
  19   5 -17   18.79   13.95
  19  -5 -17   21.91   17.20
  19   5 -15   22.85   17.31
  19   5 -13   -6.58   14.17
  19   5 -11   -8.01   13.05
  19   5  -9   -9.69   15.13
  19   5  -7  -18.84   18.22
  19   5  -5  -13.51   15.19
  19   5  -3   -2.55   12.98
  19   5  -1   -1.35   13.76
  19   5   1  -12.07   13.31
  19   5   3   -6.82   11.18
  19  -5   5  -13.78   10.14
  19  -5   7  -21.85    8.76
  19  -5   9  -14.96    9.57
  19   5   9  -29.30    9.11
  19   5  11   -2.99    6.65
  19  -5  11   -0.03    6.10
  19   5  13   -8.13    7.47
  19  -5  13   -7.82    6.28
  19   5  13    2.66    5.54
  19   5  15   11.62    8.72
  19  -5  15   24.68    9.72
  19   5  15    9.44    7.41
  19  -5  17   -6.34    6.76
  19   5  17    4.03    6.00
  19  -5  19    7.50    6.90
  19   5  19   17.30    7.90
  19  -5  21    3.89    5.57
  19   5  21   12.34    6.68
  19  -5  23   -0.94    4.47
  19   5  23    4.37    5.38
  19  -5  25   -3.69    4.78
  19   5  25    3.96    4.56
  19  -5  27    1.17    3.39
  19   7 -19   -8.64   10.33
  19  -7 -19   18.83   12.79
  19   7 -17   14.09   14.41
  19   7 -15   19.72   18.13
  19   7 -13   14.93   15.39
  19   7 -11   17.13   17.11
  19   7  -9  -14.59   16.74
  19   7  -7   15.80   12.46
  19   7  -5  -15.62   16.96
  19   7  -3   -0.25   11.52
  19   7  -1   45.02   20.66
  19   7   1   23.76   16.54
  19   7   3   -0.02   12.69
  19  -7   7  -15.56    7.91
  19  -7   9  -20.31    8.78
  19   7  11  -18.05    7.92
  19  -7  11  -33.43   10.30
  19   7  13    8.24    7.56
  19  -7  13    6.74    7.21
  19   7  15   13.35    7.84
  19   7  15   11.24    6.98
  19  -7  15    7.16    6.17
  19   7  17    8.75    7.06
  19   7  17   17.70    7.71
  19  -7  17    8.00    6.69
  19   7  19   17.57    8.38
  19   7  19    9.71    6.41
  19  -7  19   18.58    8.06
  19   7  21   -0.02    5.11
  19  -7  21   -5.84    5.70
  19   7  23    2.15    4.02
  19  -7  23    7.60    4.73
  19   7  25   13.44    5.11
  19  -7  25   -8.60    4.88
  19   9 -19   -5.55   12.59
  19  -9 -19  -13.70   14.26
  19   9 -17   -2.83   10.06
  19   9 -15   34.47   17.89
  19   9 -13   29.34   19.81
  19   9 -11   16.33   16.74
  19   9  -9   11.16   15.91
  19   9  -7   -0.82   14.48
  19   9  -5   -0.23   14.26
  19   9  -3   10.05   14.01
  19   9  -1   -1.12   12.11
  19   9   1   16.96   14.54
  19   9   3   33.37   18.47
  19  -9   9  -16.30    9.05
  19   9  11   -4.20    7.11
  19  -9  11  -26.20    9.31
  19   9  13   -0.66    4.74
  19  -9  13    8.57    7.10
  19   9  15   15.61    8.33
  19  -9  15   -0.76    5.22
  19   9  17    2.54    5.84
  19  -9  17    1.23    5.53
  19   9  19    4.03    5.21
  19  -9  19    0.07    4.98
  19   9  21   -6.62    5.73
  19  -9  21   -5.48    5.63
  19  -9  23   -6.46    5.59
  19  -9  25   -8.74    4.88
  19  11 -19  -13.80   12.11
  19  11 -17   -4.13    9.91
  19  11 -15   41.80   18.79
  19  11 -13   12.28   14.74
  19  11 -11   23.59   17.24
  19  11  -9   29.96   18.38
  19  11  -7   11.13   14.50
  19  11  -5    5.57   11.82
  19  11  -3   33.08   18.83
  19  11  -1   14.25   14.46
  19  11   1   17.90   15.18
  19  11   3    5.35   11.06
  19 -11  11  -13.94    7.69
  19  11  13    0.28    5.46
  19 -11  13   -4.18    6.74
  19  11  15   10.25    7.07
  19 -11  15   -2.07    5.22
  19  11  17   -1.59    4.97
  19 -11  17  -11.35    6.98
  19  11  19    0.25    4.63
  19 -11  19   -5.40    6.37
  19  11  21  -10.34    5.96
  19 -11  21   -9.98    6.26
  19 -11  23  -18.59    7.30
  19  13 -19  -20.17   12.33
  19  13 -17   13.29   10.45
  19  13 -15   -6.68   11.71
  19  13 -13   -0.61   10.49
  19  13 -11    1.84   11.57
  19  13  -9  -27.41   14.95
  19  13  -7   -3.69   11.57
  19  13  -5    8.13   12.03
  19  13  -3    3.12   11.95
  19  13  -1    6.87   12.72
  19  13   1    0.35   11.65
  19  13   3  -11.94   11.54
  19  13  15    5.79    5.90
  19  13  17   -5.76    5.78
  19  13  19  -10.33    5.82
  19  13  21   -5.52    4.78
  19  15 -19   -1.20    7.68
  19  15 -17   11.04   11.13
  19  15 -15  -15.43   12.68
  19  15 -13   -2.21    9.67
  19  15 -11   -0.42   10.22
  19  15  -9    8.37   12.33
  19  15  -7   -9.62   13.53
  19  15  -5  -15.78   14.92
  19  15  -3   -5.35   11.88
  19  15  -1    4.53   11.15
  19  15   1   -1.81   11.33
  19  15   3    1.52    9.14
  19  15  17   -3.56    5.03
  19  15  19   -4.01    4.37
  19  15  21    1.36    3.36
  19  17 -19    2.00    7.58
  19  17 -17   17.57   11.68
  19  17 -15    3.78    9.61
  19  17 -13   11.38   10.92
  19  17 -11   -5.91   11.38
  19  17  -9   -0.41   10.55
  19  17  -7    8.30   12.77
  19  17  -5   21.42   12.26
  19  17  -3   20.54   13.48
  19  17  -1  -13.31   12.60
  19  17   1    7.16   10.33
  19  17   3   -1.36    9.97
  19  19 -17   -9.79    8.79
  19  19 -15   -4.62    9.77
  19  19 -13   30.08   13.11
  19  19 -11   24.27   14.24
  19  19  -9   20.71   12.57
  19  19  -7    9.28   12.46
  19  19  -5   26.75   14.68
  19  19  -3   14.53   14.94
  19  19  -1    4.70    9.51
  19  19   1   19.23   12.05
  19  19   3   11.33   12.19
  19  21 -15   -5.94    7.16
  19  21 -13   10.96    9.10
  19  21 -11   -6.67    9.94
  19  21  -9   -4.77    8.88
  19  21  -7    8.23   10.35
  19  21  -5    1.04    9.69
  19  21  -3    7.04   11.46
  19  21  -1  -11.39   11.96
  19  21   1    7.40   10.22
  19  23 -11    4.01    7.03
  19  23  -9   -8.80    9.26
  19  23  -7   -9.80    9.77
  19  23  -5  -14.25   10.93
  19  23  -3  -15.75   11.19
  19  23  -1   -0.64    8.62
  19  23   1    3.09    7.78
  19  25  -7    6.19    6.90
  19  25  -5   13.45    9.32
  19  25  -3    0.73    7.26
  20   0 -20    2.15   11.07
  20   0 -18  -28.44   13.46
  20   0 -16  -12.95   12.73
  20   0 -14  -10.59   11.74
  20   0 -12   -7.64   16.33
  20   0 -10  -11.18   14.37
  20   0  -8   14.88   16.01
  20   0  -6   -0.40   12.21
  20   0  -4   -9.14   15.37
  20   0  -2  -22.91   20.51
  20   0   0  -38.09   18.77
  20   0   2   -2.49   14.10
  20   0   4  -12.61   15.33
  20   0   6   -7.92    8.71
  20   0   8  -11.42    7.34
  20   0  10  -13.08    8.58
  20   0  12  -15.90    8.27
  20   0  14   -1.35    5.03
  20   0  16   -5.94    6.13
  20   0  18   -3.09    5.55
  20   0  20    2.07    4.20
  20   0  22    1.15    3.99
  20   0  24   -2.67    4.19
  20  -2 -20   23.47   11.76
  20   2 -20    2.75    8.34
  20  -2 -18   15.25   11.62
  20   2 -18    9.89   12.37
  20  -2 -16  -19.50   13.39
  20   2 -16   -5.84   13.03
  20   2 -14   -9.39   14.88
  20  -2 -14   -5.82   16.47
  20   2 -12   -9.37   12.07
  20  -2 -12  -25.60   17.76
  20   2 -10  -20.55   17.14
  20   2  -8    1.82   12.85
  20   2  -6    6.81   13.07
  20   2  -4  -19.20   15.24
  20   2  -2   -9.32   13.97
  20   2   0  -16.80   16.05
  20   2   2    5.54   11.18
  20   2   4   -5.89   11.63
  20  -2   6   -9.30    7.55
  20   2   6   -5.77    8.76
  20  -2   8  -11.90    8.04
  20   2   8  -15.46    9.64
  20  -2  10   -7.33    7.01
  20   2  10  -11.83    8.16
  20  -2  12   -5.67    7.40
  20   2  12    1.80    4.64
  20   2  14   -4.67    5.92
  20  -2  14   -1.51    5.35
  20   2  16    2.72    5.07
  20  -2  16   -5.90    6.59
  20  -2  18  -19.25    7.47
  20   2  18   -0.60    5.13
  20  -2  20    1.50    4.74
  20   2  20    3.14    5.23
  20  -2  22    0.57    4.14
  20   2  22   10.89    5.70
  20   2  24    7.95    4.68
  20  -2  24   -0.10    4.18
  20   4 -20  -10.53    9.04
  20   4 -18  -10.50   10.40
  20  -4 -18    0.88   10.88
  20   4 -16   -4.36   12.27
  20  -4 -16   11.40   13.32
  20   4 -14   -7.78   11.79
  20  -4 -14   12.34   12.66
  20   4 -12    7.17   13.22
  20   4 -10    1.61   14.34
  20   4  -8   -0.68   11.50
  20   4  -6   -3.21   12.92
  20   4  -4   -5.73   11.99
  20   4  -2   -8.14   11.70
  20   4   0   -3.40   12.82
  20   4   2  -10.75   16.26
  20   4   4   -6.30   11.82
  20  -4   8   -7.61    7.86
  20   4   8  -20.23    8.96
  20  -4  10  -13.14    8.85
  20   4  10   -8.85    7.47
  20  -4  12  -37.32   10.19
  20   4  12   -3.84    5.79
  20   4  14   -9.51    6.67
  20  -4  14   -4.69    6.68
  20   4  16  -16.53    6.89
  20  -4  16   -2.61    5.79
  20   4  18    6.13    5.64
  20  -4  18   -7.06    6.17
  20   4  20   -1.67    4.07
  20  -4  20   -0.28    4.12
  20   4  22   -3.58    4.68
  20  -4  22   -4.12    5.27
  20   4  24  -15.35    5.22
  20  -4  24  -14.31    5.90
  20   6 -20    7.57    7.67
  20   6 -18    4.84   10.29
  20  -6 -18   16.26   11.23
  20   6 -16   26.45   16.77
  20  -6 -16   29.30   17.53
  20   6 -14   11.66   16.59
  20   6 -12   23.92   17.91
  20   6 -10    6.25   11.38
  20   6  -8   -4.76   11.08
  20   6  -6    7.08   12.32
  20   6  -4   10.00   14.22
  20   6  -2   -2.04   11.85
  20   6   0    7.06   12.39
  20   6   2    7.88   12.36
  20   6   4   -7.62   12.21
  20  -6   8  -16.31    7.66
  20  -6  10  -34.06    9.79
  20  -6  12   -8.92    8.01
  20  -6  14  -10.00    6.66
  20   6  14    3.13    5.22
  20   6  16    2.22    5.20
  20  -6  16   -1.51    5.69
  20   6  18   -2.68    4.75
  20  -6  18  -12.68    7.43
  20   6  20   -6.14    5.44
  20  -6  20   -4.23    5.63
  20   6  22    1.15    3.62
  20  -6  22  -10.12    6.51
  20  -6  24   -3.26    4.55
  20   8 -20   -9.47    9.30
  20  -8 -18    0.01   10.07
  20   8 -18   11.14    9.55
  20   8 -16   13.79   14.06
  20   8 -14   -9.10   12.42
  20   8 -12    0.21   10.75
  20   8 -10   -9.47   10.93
  20   8  -8   -2.30   11.02
  20   8  -6   -0.57   10.88
  20   8  -4   19.48   15.95
  20   8  -2    0.83   13.92
  20   8   0   29.36   16.91
  20   8   2   15.08   15.84
  20  -8  10  -30.24    9.60
  20  -8  12  -19.38    7.82
  20  -8  14   -0.57    6.24
  20  -8  16   -8.34    6.22
  20  -8  18   -3.51    6.47
  20  -8  20   -1.14    5.21
  20  -8  22   -3.51    5.51
  20  -8  24  -13.19    6.27
  20  10 -20  -12.43   10.65
  20  10 -18  -14.63   13.64
  20 -10 -18    8.54   10.05
  20  10 -16    9.30   11.29
  20  10 -14   -4.74   11.09
  20  10 -12   -7.92   12.18
  20  10 -10    4.27   11.84
  20  10  -8    9.24   14.23
  20  10  -6   -2.97   11.97
  20  10  -4   11.67   14.96
  20  10  -2    6.63   12.99
  20  10   0   -1.37   14.31
  20  10   2  -15.44   13.90
  20 -10  14  -17.66    7.49
  20 -10  16   -9.54    7.12
  20 -10  18  -10.53    6.67
  20 -10  20  -16.55    7.15
  20  12 -20   -1.06    8.08
  20  12 -18   -4.10    7.82
  20 -12 -18   -7.63    8.80
  20  12 -16   -9.73   11.88
  20  12 -14    3.28   10.18
  20  12 -12    3.12   10.13
  20  12 -10   -2.11   12.38
  20  12  -8  -15.76   14.32
  20  12  -6   -6.69   13.97
  20  12  -4  -11.46   14.45
  20  12  -2  -10.81   12.50
  20  12   0   -5.85   12.58
  20  12   2    0.79    9.83
  20  14 -18    3.20    9.34
  20 -14 -18   -6.94    8.98
  20  14 -16  -19.66   11.88
  20  14 -14  -16.45   13.64
  20  14 -12   -4.79   12.47
  20  14 -10    5.54   10.04
  20  14  -8   -4.01   11.44
  20  14  -6  -18.63   14.50
  20  14  -4   -8.06   10.73
  20  14  -2  -17.69   12.86
  20  14   0  -12.58   12.18
  20  14   2   -5.97   10.76
  20  16 -16    5.52   10.78
  20  16 -14   23.86   12.53
  20  16 -12   -9.43    8.84
  20  16 -10   -9.75   12.19
  20  16  -8   -5.17   10.71
  20  16  -6  -10.49   11.33
  20  16  -4  -12.73   11.72
  20  16  -2   -5.48    9.73
  20  16   0    8.49   11.66
  20  16   2    5.42    8.33
  20  18 -16   -8.47    9.65
  20  18 -14    8.46   10.03
  20  18 -12    0.93    9.52
  20  18 -10    0.07    8.97
  20  18  -8    1.50    9.75
  20  18  -6   16.85   10.21
  20  18  -4    6.64   10.27
  20  18  -2    7.39   10.37
  20  18   0    3.43    8.87
  20  18   2    0.12    8.75
  20  20 -14  -11.31    9.24
  20  20 -12   -2.38   10.27
  20  20 -10  -11.98    9.80
  20  20  -8   -6.31    8.68
  20  20  -6   -7.51    8.34
  20  20  -4   -1.44    8.04
  20  20  -2    1.80    8.40
  20  20   0  -11.87   10.31
  20  20   2   -8.55    9.38
  20  22 -10    6.56    7.32
  20  22  -8  -19.82    9.59
  20  22  -6    0.58    7.85
  20  22  -4   -8.42    9.09
  20  22  -2    1.56    7.39
  20  22   0   -3.02    6.64
  21  -1 -19    0.67    8.09
  21   1 -19   20.91   14.39
  21   1 -17   13.15   11.79
  21  -1 -17   10.11   11.16
  21  -1 -15   -2.93   11.36
  21   1 -15   15.72   13.13
  21  -1 -13   -0.33   11.56
  21   1 -13   -6.05   10.36
  21   1 -11  -14.44   14.31
  21  -1 -11   -2.22   10.94
  21   1  -9   -4.41   13.11
  21  -1  -9  -26.14   16.98
  21   1  -7   -7.73   12.57
  21  -1  -7   -1.60   11.97
  21   1  -5    5.58   11.58
  21  -1  -5   -9.97   12.76
  21   1  -3    9.65   12.63
  21  -1  -3   14.17   13.90
  21   1  -1   -9.67   10.43
  21  -1  -1   -5.55   10.98
  21   1   1   -4.91   10.88
  21  -1   1    0.83   14.64
  21  -1   3   -8.97   12.58
  21   1   3   10.46   12.11
  21  -1   9  -15.15    8.38
  21   1   9  -18.96    7.49
  21  -1  11  -10.64    7.54
  21   1  11  -17.73    7.25
  21  -1  13  -14.05    6.82
  21   1  13   -6.29    6.34
  21  -1  15   -4.16    5.72
  21   1  15   -5.80    5.71
  21  -1  17   -5.18    5.52
  21   1  17  -13.66    6.06
  21  -1  19   -1.75    3.86
  21   1  19   -0.38    4.52
  21  -1  21  -11.96    5.28
  21   1  21  -10.39    5.01
  21  -1  23   -5.71    4.59
  21   1  23   -0.34    3.23
  21  -3 -19    8.43    9.18
  21   3 -19   11.16    8.74
  21   3 -17    5.46    9.90
  21  -3 -17    0.51   10.36
  21  -3 -15    2.71   12.87
  21   3 -15   19.21   13.96
  21  -3 -13   11.17   14.99
  21   3 -13   10.81   14.13
  21   3 -11    4.30   11.82
  21  -3 -11   -3.58   15.70
  21   3  -9    2.05   11.59
  21  -3  -9  -14.62   14.71
  21   3  -7  -17.58   17.13
  21   3  -5  -18.52   15.80
  21   3  -3   -7.82   15.25
  21   3  -1    3.28   12.14
  21   3   1  -11.21   10.71
  21   3   3   -7.18    9.57
  21  -3   3  -18.14   15.36
  21  -3   9  -20.87    7.88
  21   3   9  -13.43    7.93
  21  -3  11   -5.86    6.91
  21   3  11  -12.69    5.76
  21  -3  13   -3.43    6.13
  21   3  13   -0.73    5.13
  21  -3  15  -20.04    7.41
  21   3  15   -8.90    6.27
  21  -3  17  -15.40    7.21
  21   3  17   -7.33    5.65
  21  -3  19   -3.12    5.17
  21   3  19  -10.10    5.85
  21  -3  21   -5.46    5.19
  21   3  21   -0.68    3.97
  21  -3  23   -8.68    4.73
  21   5 -19   10.47    9.51
  21  -5 -19    5.87    8.17
  21  -5 -17  -15.93   13.43
  21   5 -17   -4.97    9.53
  21   5 -15    4.42   10.83
  21  -5 -15    4.64    9.60
  21   5 -13    5.47   14.90
  21  -5 -13    1.54   10.27
  21   5 -11   -4.20   11.04
  21   5  -9   11.91   12.92
  21   5  -7   10.09   13.61
  21   5  -5   -3.67   10.51
  21   5  -3    3.74   10.91
  21   5  -1   13.99   12.28
  21   5   1  -11.84   13.47
  21   5   3    7.31    9.66
  21  -5  11  -26.97    8.68
  21  -5  13  -12.48    6.98
  21   5  13   -8.79    5.70
  21  -5  15  -16.65    6.82
  21   5  15   -6.41    5.24
  21  -5  17  -19.23    6.91
  21   5  17   -0.92    3.80
  21  -5  19  -20.95    6.65
  21   5  19   -8.69    4.97
  21  -5  21  -18.40    6.72
  21   5  21   -3.50    4.28
  21  -5  23  -14.47    6.13
  21  -7 -19   13.71   10.38
  21   7 -19   -6.48    8.11
  21  -7 -17   -5.88   10.91
  21   7 -17   17.30    9.67
  21   7 -15   -3.96    9.79
  21  -7 -15   -3.46   10.97
  21   7 -13  -12.32   13.91
  21   7 -11   -0.32   11.74
  21   7  -9   13.37   12.75
  21   7  -7   23.77   16.84
  21   7  -5   -2.85   11.22
  21   7  -3  -17.09   12.76
  21   7  -1   -9.02   15.00
  21   7   1   -8.59   10.33
  21   7   3    8.02    9.59
  21  -7  15  -22.42    7.60
  21  -7  17  -14.86    7.47
  21  -7  19  -22.87    6.79
  21   9 -19    2.03    6.78
  21  -9 -19    3.47    7.16
  21  -9 -17    3.26    8.42
  21   9 -17   -4.77    9.93
  21   9 -15  -17.07   12.60
  21  -9 -15  -17.70   13.75
  21   9 -13  -12.38   11.85
  21   9 -11  -23.97   13.87
  21   9  -9   -5.61   11.30
  21   9  -7   10.70   13.52
  21   9  -5    6.32   11.43
  21   9  -3    9.50   12.07
  21   9  -1  -32.57   16.80
  21   9   1    0.41   11.50
  21   9   3   -2.59    8.93
  21  11 -17   -2.67    8.92
  21 -11 -17   -6.07    9.24
  21  11 -15    6.17   10.39
  21  11 -13   -1.34    8.98
  21  11 -11    9.81   12.91
  21  11  -9    5.73   10.06
  21  11  -7   -3.70   11.04
  21  11  -5   12.20   12.15
  21  11  -3   -0.88   10.44
  21  11  -1  -21.00   12.98
  21  11   1   -4.31   10.54
  21  11   3   12.41    9.37
  21 -13 -17    2.41    6.91
  21  13 -17   -5.18    7.29
  21  13 -15   -4.75    9.26
  21  13 -13   10.04   11.35
  21  13 -11    5.50    9.17
  21  13  -9   -0.22    9.40
  21  13  -7   -3.00    9.77
  21  13  -5   11.41   10.38
  21  13  -3    8.61   10.30
  21  13  -1   -4.50   10.79
  21  13   1    1.55    8.38
  21  15 -15  -12.31    7.59
  21  15 -13    6.03    8.43
  21  15 -11  -12.67   11.87
  21  15  -9  -13.99   10.90
  21  15  -7    0.91    9.12
  21  15  -5  -13.95   12.17
  21  15  -3   -0.32   10.11
  21  15  -1   -5.41    8.84
  21  15   1   -7.79    8.95
  21  17 -13    2.61    8.17
  21  17 -11   -5.17    8.07
  21  17  -9   -1.62    8.76
  21  17  -7  -18.73   12.50
  21  17  -5   -1.31    8.36
  21  17  -3    1.71    7.94
  21  17  -1    2.07   10.33
  21  17   1   16.71   11.71
  21  19 -11  -12.01    9.25
  21  19  -9   -8.13    9.54
  21  19  -7   -9.67   10.57
  21  19  -5   -7.99    9.03
  21  19  -3   -6.00    8.43
  21  19  -1  -13.01    9.90
  21  19   1   -5.66    9.59
  21  21  -5  -13.43    8.71
  21  21  -3   -6.28    8.18
  22   0 -18   26.14   11.29
  22   0 -16    9.79   12.04
  22   0 -14    2.29    9.36
  22   0 -12    1.87   11.02
  22   0 -10   -6.69   10.26
  22   0  -8  -23.79   19.17
  22   0  -6  -12.49   13.95
  22   0  -4    9.78   11.83
  22   0  -2   11.18   15.90
  22   0   0   17.77   16.00
  22   0   2   27.02   15.29
  22   0  14  -16.59    6.26
  22   0  16   -0.95    4.40
  22   0  18   -6.94    4.57
  22   0  20   -1.01    3.72
  22  -2 -18   -1.06    7.44
  22   2 -18   31.77   12.46
  22   2 -16   22.20   12.29
  22  -2 -16   15.46   14.19
  22  -2 -14   -5.18   11.46
  22   2 -14   24.02   14.91
  22   2 -12   -1.83   10.54
  22  -2 -12    1.09   11.13
  22  -2 -10   -8.40   15.07
  22   2 -10   -0.15   11.58
  22  -2  -8  -13.59   15.66
  22   2  -8  -10.84   10.29
  22   2  -6  -15.25   14.13
  22  -2  -6   -0.53   12.08
  22   2  -4   11.13   12.05
  22  -2  -4    1.65   11.65
  22  -2  -2   -5.47   13.59
  22   2  -2   20.00   13.74
  22   2   0    6.32   12.59
  22  -2   0   29.69   17.32
  22  -2   2   13.89   11.70
  22   2   2   -0.30   10.96
  22  -2  16   -1.59    4.67
  22   2  16    0.16    4.12
  22  -2  18  -13.78    5.46
  22   2  18  -17.13    6.47
  22  -4 -18   10.24    9.50
  22   4 -18    5.53    7.49
  22  -4 -16  -10.32   10.70
  22   4 -16   15.67   10.42
  22   4 -14   12.21   12.01
  22  -4 -14    2.55   10.37
  22   4 -12   -7.83    9.78
  22  -4 -12   -1.58   10.01
  22   4 -10    6.91   12.08
  22  -4 -10   21.05   15.38
  22   4  -8   22.87   16.00
  22  -4  -8    5.75   12.93
  22   4  -6  -10.78   13.13
  22  -4  -6  -12.02   14.46
  22   4  -4   23.54   16.04
  22  -4  -4  -18.29   15.02
  22   4  -2    1.19    9.47
  22  -4  -2  -24.70   16.90
  22   4   0   -8.56   10.80
  22  -4   0   -9.37   12.03
  22   4   2  -12.07   12.14
  22  -4   2   -4.22   11.58
  22   6 -18   17.23   10.15
  22  -6 -18   -3.35    6.83
  22  -6 -16    7.25    7.67
  22   6 -16    6.01    7.89
  22  -6 -14   -0.87    9.20
  22   6 -14   13.45   12.18
  22   6 -12   -1.42    9.44
  22  -6 -12   -5.41   10.18
  22   6 -10   18.03   14.61
  22  -6 -10   11.28   13.77
  22   6  -8   19.68   15.81
  22   6  -6    6.40   14.10
  22   6  -4   -8.54   11.80
  22   6  -2  -10.30   14.68
  22   6   0   -9.22   12.42
  22   6   2   -5.88    8.61
  22   8 -16   -9.21    8.99
  22  -8 -16   -6.58    8.85
  22   8 -14   -0.62    8.03
  22  -8 -14   -9.38   12.52
  22   8 -12   -1.22   10.04
  22  -8 -12  -15.35   13.47
  22   8 -10   15.02   11.99
  22   8  -8   17.77   15.76
  22   8  -6    7.15   11.62
  22   8  -4   14.65   13.47
  22   8  -2  -15.92   12.69
  22   8   0   -8.20   13.43
  22   8   2    0.56    9.81
  22  10 -16   -5.66    7.45
  22 -10 -16   -2.61    7.84
  22  10 -14   -2.16    7.86
  22 -10 -14  -11.24   11.08
  22  10 -12   10.41   10.27
  22  10 -10    1.83   11.86
  22  10  -8    4.63   12.17
  22  10  -6   11.80   12.44
  22  10  -4   29.40   15.42
  22  10  -2    4.48    9.96
  22  10   0    3.73    8.84
  22  10   2   -1.31    8.37
  22  12 -14    2.30    8.39
  22 -12 -14   -4.19    9.79
  22  12 -12   11.10    8.15
  22  12 -10    2.58    8.06
  22  12  -8  -13.42   11.35
  22  12  -6   -3.00   10.31
  22  12  -4    9.70   11.62
  22  12  -2    0.34    9.08
  22  12   0    5.09    8.36
  22  12   2   11.89    9.33
  22  14 -14    8.90    7.03
  22  14 -12   -6.72    8.62
  22  14 -10    5.49    7.63
  22  14  -8   -7.94    9.73
  22  14  -6   -7.34    9.15
  22  14  -4    2.74    8.28
  22  14  -2   13.66    9.83
  22  14   0    6.99   10.00
  22  16 -12    3.74    8.42
  22  16 -10    2.21    6.85
  22  16  -8   -5.81    8.67
  22  16  -6   -6.70    8.63
  22  16  -4   -3.61    8.98
  22  16  -2    0.52    7.62
  22  16   0    2.80    8.00
  22  18  -6   -1.46    6.69
  22  18  -4  -14.84    9.09
  22  18  -2   -2.88    7.06
  23  -1 -15   23.01   12.14
  23   1 -15   15.16   11.61
  23   1 -13   -9.38   10.21
  23  -1 -13   12.95   12.34
  23   1 -11    0.67    8.89
  23  -1 -11  -10.72   12.67
  23  -1  -9   -9.10   12.89
  23   1  -9    2.61    9.26
  23  -1  -7  -12.94   12.39
  23   1  -7    4.58   11.52
  23  -1  -5    5.02    9.65
  23   1  -5   -3.47    9.02
  23  -1  -3   19.19   14.96
  23   1  -3    6.11   12.49
  23  -1  -1   14.77   13.39
  23   1  -1   22.71   13.74
  23  -1   1   13.07   10.06
  23   1   1   31.70   16.18
  23  -3 -15    5.97    8.41
  23   3 -15   16.10   12.07
  23  -3 -13   -0.75    9.68
  23   3 -13    7.99   11.26
  23   3 -11   19.84   11.99
  23  -3 -11   -1.71    9.52
  23   3  -9   -1.86    9.06
  23  -3  -9  -10.09    9.09
  23  -3  -7   -8.71   10.33
  23   3  -7   -7.18    8.90
  23  -3  -5  -13.28   10.62
  23   3  -5   -9.19   10.73
  23  -3  -3   15.40   12.51
  23   3  -3  -21.87   10.71
  23  -3  -1    6.20    9.74
  23   3  -1   10.30   11.32
  23   3   1    4.63    8.43
  23  -3   1   17.81   12.57
  23  -3   3   -4.01    8.16
  23   5 -15    5.42    8.34
  23  -5 -15   -8.02    8.63
  23  -5 -13   -3.14    8.16
  23   5 -13   14.51   11.71
  23   5 -11   -2.07   10.07
  23  -5 -11    1.06    8.96
  23  -5  -9    4.84   10.17
  23   5  -9   10.55   10.19
  23   5  -7   18.26   11.82
  23  -5  -7   14.04    8.97
  23   5  -5   -3.36   10.19
  23  -5  -5    6.19   10.11
  23   5  -3   -5.75    9.43
  23  -5  -3  -10.71   10.73
  23  -5  -1  -17.21   14.01
  23   5  -1   -3.77    8.38
  23  -5   1   -6.52   11.01
  23   5   1  -14.75   11.06
  23  -5   3   -9.58   10.60
  23   7 -15    9.63    8.42
  23  -7 -15   -9.00    7.10
  23   7 -13   -3.91    7.36
  23  -7 -13   -2.46    9.29
  23   7 -11   19.71   12.09
  23  -7 -11   -6.17    8.79
  23  -7  -9    6.60   11.06
  23   7  -9   13.77   11.27
  23   7  -7   27.12   14.52
  23  -7  -7   26.75   15.18
  23   7  -5    5.34    9.05
  23  -7  -5   -1.46   10.18
  23   7  -3    6.87   11.01
  23  -7  -3    0.84   10.47
  23   7  -1   20.02   11.47
  23  -7  -1   -9.23   14.29
  23  -7   1  -21.95   12.87
  23   7   1   -8.46   10.02
  23  -7   3  -15.25   11.59
  23  -9 -13  -13.43    7.82
  23   9 -13   -7.07    7.84
  23   9 -11    9.75   11.00
  23  -9 -11    4.67    7.92
  23   9  -9   13.42   11.88
  23  -9  -9  -24.64   13.00
  23   9  -7   25.54   13.14
  23  -9  -7    0.11    9.79
  23   9  -5   18.88   11.94
  23  -9  -5   -0.13   11.73
  23   9  -3    1.30    7.73
  23   9  -1  -10.40   11.08
  23  -9  -1  -22.15   13.22
  23   9   1   -3.90    8.54
  23  -9   1    5.38    8.21
  23  -9   3  -14.72   12.01
  23  11 -13   -9.00    8.66
  23  11 -11    5.43    9.81
  23 -11 -11   -7.34   10.29
  23  11  -9    6.62    8.12
  23 -11  -9  -12.16   11.68
  23  11  -7    3.82    7.82
  23  11  -5   19.44   11.28
  23  11  -3    0.27    9.21
  23  11  -1   -2.48    7.85
  23  11   1    8.56    7.12
  23  13 -11  -16.91    8.46
  23  13  -9   -3.02    7.47
  23 -13  -9   -8.98   10.42
  23  13  -7  -16.92   10.54
  23  13  -5  -11.61    9.13
  23  13  -3    5.06    7.27
  23  13  -1   12.84   10.30
  23  15  -5   -8.91    7.61
  23  15  -3    4.43    7.00
  24   0 -12    7.31    8.82
  24   0 -10   -6.23    7.74
  24   0  -8   -4.93    9.30
  24   0  -6   -3.32   11.07
  24   0  -4   -1.48    7.64
  24   0  -2   19.48   12.26
  24   0   0    7.41    9.80
  24  -2 -12   13.97    8.73
  24   2 -12    7.80    7.77
  24  -2 -10   -2.63    7.82
  24   2 -10   -0.69    8.20
  24   2  -8   -6.43    8.93
  24  -2  -8   12.50   11.77
  24   2  -6   -6.58    9.76
  24  -2  -6    3.56    7.80
  24   2  -4    1.00    8.73
  24  -2  -4   12.29   11.02
  24   2  -2   15.09   11.30
  24  -2  -2   12.58   10.17
  24  -2   0    5.94    7.56
  24   2   0   11.79   10.49
  24  -4 -12   14.24   10.10
  24   4 -12   10.98    9.30
  24   4 -10   -7.72    8.80
  24  -4 -10   -1.16    8.83
  24  -4  -8   -3.70    7.92
  24   4  -8    9.10   10.03
  24  -4  -6    8.29    8.89
  24   4  -6   -8.31   10.43
  24  -4  -4   -8.34    9.66
  24   4  -4  -15.67    9.80
  24  -4  -2    5.63    8.36
  24   4  -2   -6.39    8.29
  24  -4   0    1.79    8.19
  24   4   0   -9.30    7.28
  24  -4   2   -2.66    7.63
  24   6 -12    1.97    7.86
  24  -6 -10   13.81   10.26
  24   6 -10   11.49    9.56
  24  -6  -8    0.70    7.33
  24   6  -8   16.21   10.93
  24   6  -6    9.65    9.89
  24  -6  -6    1.32    7.67
  24   6  -4    4.64    7.23
  24  -6  -4    2.94    8.47
  24   6  -2  -10.61   10.46
  24  -6  -2   -6.32    9.83
  24   6   0   -8.78    9.14
  24  -6   0   -7.41    9.41
  24   8 -10   21.98   10.11
  24  -8 -10    4.13    6.85
  24   8  -8    0.37    6.69
  24  -8  -8    7.44    8.73
  24  -8  -6    6.57    7.49
  24   8  -6   -0.98    7.51
  24   8  -4   11.72    8.92
  24  -8  -4    1.19    7.32
  24   8  -2   -8.92   10.67
  24  -8  -2   -8.99    9.51
  24   8   0   -9.12    9.42
  24  -8   0  -19.74   10.78
  24  10  -8    1.58    6.28
  24 -10  -8    1.64    7.90
  24  10  -6   11.69    8.39
  24 -10  -6   -0.29    7.59
  24  10  -4   -9.56    8.54
  24 -10  -4   -8.13    9.96
  24  10  -2  -10.80    8.65
  24 -10  -2   -4.41    7.74
  24 -10   0   -9.08    9.36
  25  -1  -5    6.13    7.77
  25   1  -5   -4.12    8.44
  25  -1  -3   16.74    8.96
  25   1  -3   10.76    7.86
   0   0   0    0.00    0.00
;
_shelx_hkl_checksum              71225
_shelx_fab_file
;
    4    0    0     64.87      0.00
    6    0    0    -71.96      0.00
   10    0    0     75.87      0.00
   12    0    0     20.43      0.00
   14    0    0     14.49      0.00
   16    0    0      8.14      0.00
   18    0    0     14.89      0.00
   20    0    0     10.07      0.00
   22    0    0     31.76      0.00
   24    0    0     24.00      0.00
    6    2    0     29.20      0.00
    8    2    0     13.49      0.00
   10    2    0      1.84      0.00
   12    2    0     -4.72      0.00
   14    2    0      5.54      0.00
   16    2    0     -0.80      0.00
   18    2    0     -1.65      0.00
   20    2    0     -3.81      0.00
   22    2    0      7.12      0.00
   24    2    0      6.56      0.00
    6    4    0    -11.43      0.00
    8    4    0    -10.84      0.00
   12    4    0     20.07      0.00
   14    4    0     -4.49      0.00
   16    4    0    -20.08      0.00
   18    4    0     -1.58      0.00
   20    4    0     -4.16      0.00
   22    4    0    -11.83      0.00
   24    4    0    -15.96      0.00
    4    6    0    119.47      0.00
    6    6    0    -56.29      0.00
    8    6    0     17.13      0.00
   10    6    0    -13.28      0.00
   12    6    0    -19.65      0.00
   14    6    0     -1.51      0.00
   16    6    0      6.48      0.00
   18    6    0    -11.60      0.00
   20    6    0     -4.44      0.00
   22    6    0      2.18      0.00
   24    6    0      2.68      0.00
    0    8    0     88.81      0.00
    4    8    0     34.49      0.00
    6    8    0    -72.97      0.00
    8    8    0     26.43      0.00
   10    8    0    -21.85      0.00
   12    8    0     33.46      0.00
   14    8    0     20.62      0.00
   16    8    0     -0.62      0.00
   18    8    0      2.45      0.00
   20    8    0     19.86      0.00
   22    8    0      8.37      0.00
   24    8    0      1.75      0.00
    2   10    0    -37.24      0.00
    6   10    0    -28.42      0.00
    8   10    0     39.59      0.00
   10   10    0     -6.20      0.00
   12   10    0     -9.99      0.00
   14   10    0      4.18      0.00
   16   10    0      1.54      0.00
   18   10    0    -10.80      0.00
   20   10    0    -24.22      0.00
   22   10    0     -5.56      0.00
   24   10    0     -2.18      0.00
    0   12    0     32.22      0.00
    2   12    0    -36.66      0.00
    6   12    0     -3.22      0.00
    8   12    0      0.60      0.00
   10   12    0      0.55      0.00
   12   12    0     15.27      0.00
   14   12    0    -11.19      0.00
   16   12    0     12.32      0.00
   18   12    0    -26.89      0.00
   20   12    0     -7.74      0.00
   22   12    0    -16.49      0.00
    0   14    0    112.34      0.00
    2   14    0     -9.82      0.00
    4   14    0     28.93      0.00
    6   14    0     -9.06      0.00
    8   14    0      1.35      0.00
   10   14    0     -3.58      0.00
   12   14    0     17.34      0.00
   14   14    0      1.49      0.00
   16   14    0     14.49      0.00
   18   14    0     -0.67      0.00
   20   14    0    -16.12      0.00
   22   14    0     10.88      0.00
    0   16    0     87.26      0.00
    2   16    0    -10.13      0.00
    4   16    0     16.78      0.00
    6   16    0    -10.75      0.00
    8   16    0      8.82      0.00
   10   16    0     -1.45      0.00
   14   16    0     -4.90      0.00
   16   16    0     -7.15      0.00
   18   16    0    -25.74      0.00
   20   16    0     12.53      0.00
   22   16    0      2.81      0.00
    0   18    0     48.58      0.00
    2   18    0    -24.98      0.00
    4   18    0      7.27      0.00
    6   18    0      7.15      0.00
    8   18    0      0.42      0.00
   10   18    0     -2.43      0.00
   12   18    0      8.49      0.00
   14   18    0     -2.13      0.00
   16   18    0      6.22      0.00
   18   18    0    -14.31      0.00
   20   18    0     14.74      0.00
    0   20    0     46.76      0.00
    2   20    0     13.32      0.00
    4   20    0     12.82      0.00
    6   20    0      1.82      0.00
    8   20    0     11.03      0.00
   12   20    0     -1.24      0.00
   14   20    0     -6.98      0.00
   16   20    0     -2.89      0.00
   18   20    0     -8.40      0.00
   20   20    0    -14.69      0.00
    0   22    0     47.51      0.00
    2   22    0     -0.46      0.00
    4   22    0      8.13      0.00
    6   22    0     21.69      0.00
    8   22    0    -13.35      0.00
   10   22    0    -16.91      0.00
   12   22    0     16.02      0.00
   14   22    0     24.34      0.00
   16   22    0     36.16      0.00
   18   22    0     26.03      0.00
   20   22    0      6.64      0.00
    0   24    0     39.23      0.00
    2   24    0      4.65      0.00
    4   24    0    -10.97      0.00
    6   24    0    -19.21      0.00
    8   24    0      9.92      0.00
   10   24    0     13.99      0.00
   12   24    0      3.83      0.00
   14   24    0     -3.24      0.00
   16   24    0    -22.41      0.00
   18   24    0     15.44      0.00
    2   26    0     11.43      0.00
    4   26    0     31.95      0.00
    6   26    0      6.19      0.00
    8   26    0     -9.35      0.00
   10   26    0     -8.33      0.00
   12   26    0    -10.55      0.00
   14   26    0     26.85      0.00
   16   26    0      9.14      0.00
   18   26    0      8.80      0.00
    2   28    0     23.08      0.00
    4   28    0    -19.49      0.00
    6   28    0     -5.50      0.00
    8   28    0     15.60      0.00
   10   28    0     39.87      0.00
   12   28    0      5.94      0.00
   14   28    0     22.92      0.00
   16   28    0     17.27      0.00
    2   30    0     11.16      0.00
    4   30    0     -2.19      0.00
    6   30    0      3.62      0.00
    8   30    0     -2.38      0.00
   10   30    0     27.44      0.00
   12   30    0     -8.29      0.00
   14   30    0     13.11      0.00
    0   32    0     15.58      0.00
    2   32    0      4.85      0.00
    4   32    0     -0.96      0.00
    6   32    0    -15.30      0.00
    8   32    0     -5.98      0.00
   10   32    0    -15.29      0.00
   12   32    0      1.22      0.00
    0   34    0     -1.70      0.00
    2   34    0     -5.56      0.00
    4   34    0     -1.25      0.00
    6   34    0      7.65      0.00
    0   36    0     12.46      0.00
    2   36    0      5.08      0.00
    4   36    0      2.05      0.00
    6   36    0      2.10      0.00
    8   36    0    -14.66      0.00
    0   38    0     -1.75      0.00
    2   38    0     13.78      0.00
    4   38    0     -5.02      0.00
    5    1    1    -45.56      0.00
    7    1    1      2.77      0.00
    9    1    1    -21.76      0.00
   11    1    1     13.73      0.00
   13    1    1     -2.20      0.00
   15    1    1      3.76      0.00
   17    1    1     -6.07      0.00
   21    1    1     15.97      0.00
   23    1    1     -7.88      0.00
    1    3    1     56.22      0.00
    7    3    1     -1.17      0.00
    9    3    1     18.82      0.00
   11    3    1     12.80      0.00
   13    3    1      5.62      0.00
   15    3    1      7.36      0.00
   17    3    1     14.31      0.00
   19    3    1     -1.47      0.00
   21    3    1     14.53      0.00
   23    3    1    -13.78      0.00
    3    5    1     94.72      0.00
    5    5    1      6.16      0.00
    7    5    1     31.32      0.00
    9    5    1    -11.61      0.00
   11    5    1     -5.12      0.00
   13    5    1      0.94      0.00
   15    5    1      0.00      0.00
   17    5    1     -6.22      0.00
   19    5    1     28.80      0.00
   21    5    1      4.02      0.00
   23    5    1      4.48      0.00
    1    7    1      8.51      0.00
    3    7    1     29.33      0.00
    5    7    1   -116.00      0.00
    7    7    1     -3.09      0.00
    9    7    1      7.02      0.00
   11    7    1    -10.88      0.00
   13    7    1      2.14      0.00
   15    7    1     18.67      0.00
   17    7    1    -10.92      0.00
   19    7    1    -17.19      0.00
   21    7    1      3.99      0.00
   23    7    1    -12.32      0.00
    1    9    1    -16.41      0.00
    3    9    1     20.89      0.00
    5    9    1      7.09      0.00
    7    9    1     26.53      0.00
    9    9    1     -2.34      0.00
   11    9    1     -8.05      0.00
   13    9    1      5.28      0.00
   15    9    1      1.97      0.00
   17    9    1     -5.53      0.00
   19    9    1      9.94      0.00
   21    9    1      5.61      0.00
   23    9    1    -19.07      0.00
    1   11    1    -23.76      0.00
    3   11    1     20.65      0.00
    5   11    1      0.62      0.00
    7   11    1    -22.70      0.00
    9   11    1      6.34      0.00
   11   11    1     -1.35      0.00
   13   11    1     -9.27      0.00
   15   11    1      9.75      0.00
   17   11    1      6.64      0.00
   19   11    1    -11.86      0.00
   21   11    1     -1.95      0.00
   23   11    1     12.60      0.00
    1   13    1    -11.97      0.00
    3   13    1      4.18      0.00
    5   13    1    -10.03      0.00
    7   13    1      4.64      0.00
    9   13    1     -7.78      0.00
   11   13    1     11.01      0.00
   13   13    1     -5.99      0.00
   15   13    1      4.42      0.00
   17   13    1     -9.19      0.00
   19   13    1     -1.34      0.00
   21   13    1     -5.05      0.00
   23   13    1    -23.05      0.00
    1   15    1    -29.15      0.00
    3   15    1     -7.20      0.00
    5   15    1     -5.25      0.00
    7   15    1      7.24      0.00
    9   15    1    -12.15      0.00
   11   15    1     11.63      0.00
   13   15    1    -10.41      0.00
   15   15    1      0.60      0.00
   17   15    1     -6.00      0.00
   19   15    1     -2.70      0.00
   21   15    1     18.50      0.00
    1   17    1      1.98      0.00
    3   17    1     17.48      0.00
    5   17    1    -12.47      0.00
    7   17    1     -6.28      0.00
    9   17    1      3.75      0.00
   11   17    1      9.98      0.00
   13   17    1     -1.22      0.00
   15   17    1      9.72      0.00
   17   17    1    -20.89      0.00
   19   17    1     -4.67      0.00
   21   17    1     -8.44      0.00
    1   19    1     -4.07      0.00
    3   19    1     -1.37      0.00
    5   19    1     -4.35      0.00
    7   19    1      9.64      0.00
    9   19    1      6.60      0.00
   11   19    1     -8.88      0.00
   13   19    1     15.55      0.00
   15   19    1     -4.33      0.00
   17   19    1     10.71      0.00
   19   19    1     12.59      0.00
   21   19    1      4.92      0.00
    1   21    1     -6.04      0.00
    3   21    1      2.10      0.00
    5   21    1      0.58      0.00
    7   21    1      1.87      0.00
    9   21    1      5.04      0.00
   11   21    1      2.93      0.00
   13   21    1      5.73      0.00
   15   21    1     14.43      0.00
   17   21    1     27.40      0.00
   19   21    1      2.69      0.00
    1   23    1     -5.03      0.00
    3   23    1     14.98      0.00
    5   23    1      6.49      0.00
    7   23    1     -2.13      0.00
    9   23    1     -1.40      0.00
   11   23    1    -20.07      0.00
   13   23    1     -1.02      0.00
   15   23    1      7.03      0.00
   17   23    1      2.67      0.00
   19   23    1     -0.38      0.00
    3   25    1     -8.39      0.00
    5   25    1     -4.32      0.00
    7   25    1     -0.93      0.00
    9   25    1     11.87      0.00
   11   25    1      3.63      0.00
   13   25    1     23.27      0.00
   15   25    1     -8.41      0.00
   17   25    1      9.49      0.00
    3   27    1    -11.91      0.00
    5   27    1     -7.08      0.00
    7   27    1     -5.71      0.00
    9   27    1     -2.84      0.00
   11   27    1     -8.22      0.00
   13   27    1     13.62      0.00
   15   27    1     -4.86      0.00
   17   27    1     -1.17      0.00
    1   29    1     26.37      0.00
    3   29    1     16.12      0.00
    5   29    1     -0.35      0.00
    7   29    1     -6.35      0.00
    9   29    1     -3.90      0.00
   11   29    1    -11.56      0.00
   13   29    1    -26.72      0.00
   15   29    1     17.19      0.00
    1   31    1     -4.55      0.00
    3   31    1    -12.07      0.00
    5   31    1     -5.37      0.00
    7   31    1      4.10      0.00
    9   31    1      8.78      0.00
   11   31    1      9.59      0.00
   13   31    1     21.87      0.00
    1   33    1      1.16      0.00
    3   33    1      5.04      0.00
    5   33    1     -3.34      0.00
    7   33    1      3.49      0.00
   11   33    1     -9.72      0.00
    1   35    1      5.69      0.00
    3   35    1     10.23      0.00
    5   35    1    -10.04      0.00
    7   35    1     -3.72      0.00
    9   35    1     -8.46      0.00
    1   37    1     -8.47      0.00
    3   37    1     10.37      0.00
    5   37    1     -0.47      0.00
    7   37    1      3.95      0.00
    2    0    2   -459.77      0.00
    4    0    2     31.84      0.00
    6    0    2      9.32      0.00
    8    0    2     23.54      0.00
   10    0    2      6.09      0.00
   12    0    2      4.48      0.00
   14    0    2      5.82      0.00
   16    0    2      7.12      0.00
   18    0    2      7.90      0.00
   20    0    2     -5.63      0.00
   22    0    2     17.66      0.00
   24    0    2      3.64      0.00
    6    2    2    -39.99      0.00
    8    2    2    -33.11      0.00
   10    2    2    -17.53      0.00
   12    2    2      7.01      0.00
   14    2    2     -3.46      0.00
   16    2    2      1.44      0.00
   18    2    2      1.59      0.00
   20    2    2     -8.81      0.00
   22    2    2      3.50      0.00
   24    2    2     12.24      0.00
    0    4    2   -136.08      0.00
    2    4    2     37.95      0.00
    4    4    2    -39.85      0.00
    6    4    2      9.87      0.00
    8    4    2     13.87      0.00
   10    4    2     -4.59      0.00
   12    4    2     -5.45      0.00
   14    4    2     -7.48      0.00
   16    4    2      7.78      0.00
   18    4    2      2.44      0.00
   20    4    2    -16.22      0.00
   22    4    2     -6.53      0.00
   24    4    2     -5.15      0.00
    2    6    2    -22.68      0.00
    4    6    2     40.22      0.00
    6    6    2      1.60      0.00
    8    6    2     37.97      0.00
   10    6    2    -13.24      0.00
   12    6    2     -3.68      0.00
   14    6    2     -1.27      0.00
   16    6    2      9.68      0.00
   18    6    2     22.52      0.00
   20    6    2      0.59      0.00
   22    6    2      8.54      0.00
   24    6    2      5.10      0.00
    4    8    2     28.80      0.00
    6    8    2    -19.31      0.00
    8    8    2     23.05      0.00
   10    8    2    -17.11      0.00
   12    8    2      4.13      0.00
   14    8    2     -5.47      0.00
   16    8    2     -3.85      0.00
   18    8    2     13.55      0.00
   20    8    2     11.62      0.00
   22    8    2      7.48      0.00
   24    8    2      3.17      0.00
    4   10    2    -28.84      0.00
    6   10    2    -40.03      0.00
    8   10    2      4.04      0.00
   10   10    2     -3.59      0.00
   12   10    2     -5.59      0.00
   14   10    2      7.03      0.00
   16   10    2     11.83      0.00
   18   10    2     15.86      0.00
   20   10    2    -19.42      0.00
   22   10    2     -1.74      0.00
   24   10    2      8.66      0.00
    2   12    2     -9.44      0.00
    4   12    2     -6.02      0.00
    6   12    2     16.34      0.00
    8   12    2     -8.71      0.00
   10   12    2    -16.01      0.00
   12   12    2     -1.57      0.00
   14   12    2    -16.84      0.00
   16   12    2     -3.60      0.00
   18   12    2      3.73      0.00
   20   12    2     -9.43      0.00
   22   12    2    -13.38      0.00
    0   14    2    -38.18      0.00
    2   14    2      4.01      0.00
    4   14    2      8.83      0.00
    6   14    2    -13.50      0.00
    8   14    2     -7.74      0.00
   10   14    2     10.22      0.00
   12   14    2      3.77      0.00
   14   14    2    -10.33      0.00
   16   14    2     -4.64      0.00
   18   14    2     -6.64      0.00
   20   14    2      1.45      0.00
   22   14    2     32.14      0.00
    0   16    2    -53.12      0.00
    2   16    2     -9.50      0.00
    4   16    2     -9.68      0.00
    6   16    2     -6.96      0.00
    8   16    2      4.97      0.00
   10   16    2    -10.76      0.00
   12   16    2     10.15      0.00
   14   16    2    -10.97      0.00
   16   16    2     -0.26      0.00
   18   16    2      7.54      0.00
   20   16    2     15.34      0.00
   22   16    2    -20.23      0.00
    0   18    2    -44.26      0.00
    2   18    2     -3.53      0.00
    4   18    2     -2.77      0.00
    6   18    2      1.83      0.00
    8   18    2      7.16      0.00
   10   18    2     -6.45      0.00
   12   18    2     12.30      0.00
   14   18    2      2.20      0.00
   16   18    2      5.66      0.00
   18   18    2     -6.17      0.00
   20   18    2      6.58      0.00
   22   18    2     -3.00      0.00
    0   20    2    -48.67      0.00
    2   20    2      7.13      0.00
    4   20    2     -0.09      0.00
    6   20    2     -6.01      0.00
    8   20    2      1.90      0.00
   10   20    2     -6.13      0.00
   12   20    2     -1.79      0.00
   14   20    2      0.70      0.00
   16   20    2     35.07      0.00
   18   20    2     -0.19      0.00
   20   20    2     -5.50      0.00
    0   22    2    -38.55      0.00
    2   22    2     -1.47      0.00
    4   22    2     -4.07      0.00
    6   22    2     13.07      0.00
    8   22    2     12.85      0.00
   10   22    2      7.82      0.00
   12   22    2     14.06      0.00
   14   22    2    -13.47      0.00
   16   22    2     12.85      0.00
   18   22    2     -7.83      0.00
   20   22    2      3.79      0.00
    2   24    2     13.33      0.00
    4   24    2      1.60      0.00
    6   24    2     -5.62      0.00
    8   24    2     -7.64      0.00
   10   24    2    -16.99      0.00
   12   24    2     10.72      0.00
   14   24    2      3.95      0.00
   16   24    2     -1.12      0.00
   18   24    2     19.01      0.00
    2   26    2    -24.32      0.00
    4   26    2     -0.56      0.00
    6   26    2      8.82      0.00
    8   26    2     -5.51      0.00
   10   26    2    -20.99      0.00
   12   26    2     -4.64      0.00
   14   26    2    -23.14      0.00
   16   26    2    -23.45      0.00
   18   26    2      3.50      0.00
    0   28    2     -7.07      0.00
    2   28    2      1.40      0.00
    4   28    2    -10.43      0.00
    6   28    2     13.74      0.00
    8   28    2    -14.58      0.00
   10   28    2    -13.65      0.00
   12   28    2      2.35      0.00
   14   28    2      7.62      0.00
   16   28    2      0.23      0.00
    0   30    2      8.86      0.00
    2   30    2     -3.28      0.00
    4   30    2     -6.39      0.00
    6   30    2      3.51      0.00
    8   30    2     -9.93      0.00
   10   30    2      1.20      0.00
   12   30    2    -10.96      0.00
   14   30    2     -4.26      0.00
    0   32    2      0.77      0.00
    2   32    2      5.25      0.00
    4   32    2     18.65      0.00
    6   32    2     -0.76      0.00
    8   32    2      2.41      0.00
   10   32    2    -23.21      0.00
   12   32    2    -14.50      0.00
    0   34    2     -7.18      0.00
    2   34    2    -11.71      0.00
    4   34    2      2.52      0.00
    6   34    2     -4.84      0.00
    8   34    2      1.44      0.00
   10   34    2     11.58      0.00
    0   36    2     -3.74      0.00
    2   36    2     -5.16      0.00
    4   36    2      8.84      0.00
    6   36    2     -2.49      0.00
    8   36    2     -2.75      0.00
    0   38    2     11.81      0.00
    2   38    2      2.78      0.00
    4   38    2     -5.08      0.00
    3    1    3     -5.18      0.00
    5    1    3     85.09      0.00
    7    1    3      2.15      0.00
    9    1    3      5.32      0.00
   11    1    3     -2.06      0.00
   13    1    3      6.12      0.00
   15    1    3      3.34      0.00
   17    1    3     -6.78      0.00
   19    1    3     -4.81      0.00
   21    1    3     -6.17      0.00
   23    1    3     -3.10      0.00
   25    1    3    -21.80      0.00
    1    3    3    178.46      0.00
    3    3    3    -51.44      0.00
    7    3    3    -31.66      0.00
    9    3    3     21.01      0.00
   11    3    3      9.82      0.00
   13    3    3     -5.89      0.00
   15    3    3      3.57      0.00
   17    3    3     -1.54      0.00
   19    3    3     -3.18      0.00
   21    3    3      7.35      0.00
   23    3    3     10.85      0.00
    7    5    3     14.57      0.00
    9    5    3      2.79      0.00
   11    5    3    -13.87      0.00
   13    5    3     -3.24      0.00
   15    5    3      1.32      0.00
   17    5    3     -0.98      0.00
   19    5    3     13.01      0.00
   21    5    3    -16.88      0.00
   23    5    3     -6.73      0.00
    1    7    3    -60.84      0.00
    7    7    3     16.01      0.00
    9    7    3    -15.48      0.00
   11    7    3    -19.47      0.00
   13    7    3     -7.74      0.00
   15    7    3     -7.37      0.00
   17    7    3      0.71      0.00
   19    7    3     15.85      0.00
   21    7    3      3.91      0.00
   23    7    3    -12.94      0.00
    1    9    3     97.97      0.00
    3    9    3     -1.24      0.00
    5    9    3      4.00      0.00
    7    9    3    -19.59      0.00
    9    9    3      8.09      0.00
   11    9    3      6.52      0.00
   13    9    3     -3.09      0.00
   15    9    3      2.50      0.00
   17    9    3     -0.09      0.00
   19    9    3     -0.64      0.00
   21    9    3      2.36      0.00
   23    9    3    -13.16      0.00
    1   11    3     33.95      0.00
    3   11    3    -20.17      0.00
    5   11    3     22.00      0.00
    7   11    3     -7.66      0.00
    9   11    3     19.48      0.00
   11   11    3     -1.80      0.00
   13   11    3      4.84      0.00
   15   11    3      9.74      0.00
   17   11    3     16.18      0.00
   19   11    3    -11.19      0.00
   21   11    3    -42.81      0.00
   23   11    3     -5.37      0.00
    1   13    3     20.48      0.00
    5   13    3      6.58      0.00
    7   13    3    -29.71      0.00
    9   13    3     -3.78      0.00
   11   13    3     -2.35      0.00
   13   13    3     14.23      0.00
   15   13    3      6.52      0.00
   17   13    3    -17.73      0.00
   19   13    3     11.17      0.00
   21   13    3     20.26      0.00
   23   13    3     10.51      0.00
    1   15    3     27.05      0.00
    3   15    3     -1.64      0.00
    5   15    3     36.41      0.00
    7   15    3     -1.75      0.00
    9   15    3     14.19      0.00
   11   15    3     -5.75      0.00
   13   15    3    -16.76      0.00
   15   15    3      5.26      0.00
   17   15    3    -12.68      0.00
   19   15    3     -9.01      0.00
   21   15    3     -2.61      0.00
   23   15    3    -17.19      0.00
    1   17    3     16.10      0.00
    3   17    3     -5.39      0.00
    5   17    3     10.40      0.00
    7   17    3     -6.99      0.00
    9   17    3      4.15      0.00
   11   17    3      4.57      0.00
   13   17    3      8.43      0.00
   15   17    3     -2.91      0.00
   17   17    3    -21.62      0.00
   19   17    3      7.25      0.00
   21   17    3     -8.59      0.00
    1   19    3     17.31      0.00
    3   19    3     -9.21      0.00
    5   19    3      1.47      0.00
    7   19    3      1.18      0.00
    9   19    3     -3.41      0.00
   11   19    3    -11.08      0.00
   13   19    3     13.96      0.00
   15   19    3     21.64      0.00
   17   19    3     19.22      0.00
   19   19    3      8.51      0.00
   21   19    3      0.15      0.00
    1   21    3     19.20      0.00
    3   21    3      7.77      0.00
    5   21    3     16.87      0.00
    7   21    3     -5.14      0.00
    9   21    3     -4.85      0.00
   11   21    3      7.16      0.00
   13   21    3    -17.87      0.00
   15   21    3      4.24      0.00
   17   21    3    -19.10      0.00
   19   21    3    -40.27      0.00
   21   21    3      7.50      0.00
    1   23    3    -20.47      0.00
    3   23    3      9.26      0.00
    5   23    3     -9.68      0.00
    7   23    3      2.48      0.00
    9   23    3      0.06      0.00
   11   23    3     20.44      0.00
   13   23    3     -7.31      0.00
   15   23    3     -0.34      0.00
   17   23    3     -5.43      0.00
   19   23    3      8.32      0.00
    1   25    3     19.92      0.00
    3   25    3      7.29      0.00
    5   25    3      1.26      0.00
    7   25    3      1.04      0.00
    9   25    3    -18.01      0.00
   11   25    3     -1.19      0.00
   13   25    3      8.27      0.00
   15   25    3     -9.21      0.00
   17   25    3      5.42      0.00
   19   25    3      4.76      0.00
    1   27    3     18.16      0.00
    3   27    3      6.07      0.00
    5   27    3      7.02      0.00
    7   27    3      0.88      0.00
    9   27    3     -8.17      0.00
   11   27    3      0.44      0.00
   13   27    3     -5.59      0.00
   15   27    3    -13.74      0.00
   17   27    3    -16.40      0.00
    1   29    3     -6.91      0.00
    3   29    3      9.14      0.00
    5   29    3     -7.09      0.00
    7   29    3      4.08      0.00
    9   29    3     -3.45      0.00
   11   29    3     -2.97      0.00
   13   29    3      3.67      0.00
   15   29    3     14.25      0.00
    1   31    3     -2.62      0.00
    3   31    3      7.62      0.00
    5   31    3      2.60      0.00
    7   31    3      5.35      0.00
    9   31    3      0.77      0.00
   11   31    3     -7.26      0.00
   13   31    3      0.13      0.00
   15   31    3      5.00      0.00
    1   33    3      2.45      0.00
    3   33    3      7.75      0.00
    5   33    3     -9.58      0.00
    7   33    3     -7.28      0.00
    9   33    3      5.99      0.00
   11   33    3      7.62      0.00
    1   35    3    -10.14      0.00
    3   35    3     14.18      0.00
    5   35    3      6.42      0.00
    7   35    3      0.28      0.00
    9   35    3      5.31      0.00
    1   37    3      0.87      0.00
    3   37    3     -5.65      0.00
    5   37    3     -8.20      0.00
    7   37    3    -14.86      0.00
    2    0    4     21.00      0.00
    6    0    4     -8.45      0.00
   10    0    4     -8.79      0.00
   12    0    4      5.82      0.00
   14    0    4      9.33      0.00
   16    0    4     -5.20      0.00
   18    0    4    -13.09      0.00
   20    0    4    -11.84      0.00
   22    0    4     10.77      0.00
   24    0    4    -23.65      0.00
    6    2    4     34.51      0.00
    8    2    4     -1.71      0.00
   10    2    4     14.00      0.00
   12    2    4      1.32      0.00
   14    2    4     -6.51      0.00
   16    2    4     -0.40      0.00
   18    2    4      6.36      0.00
   20    2    4     -2.31      0.00
   22    2    4     12.73      0.00
   24    2    4      9.17      0.00
    0    4    4    -93.30      0.00
    6    4    4     -0.90      0.00
    8    4    4     -8.46      0.00
   10    4    4     -6.63      0.00
   12    4    4     -0.96      0.00
   14    4    4     -4.01      0.00
   16    4    4     -3.97      0.00
   18    4    4      4.51      0.00
   20    4    4      2.27      0.00
   22    4    4      5.06      0.00
   24    4    4     -1.63      0.00
    0    6    4     -9.12      0.00
    2    6    4      5.43      0.00
    6    6    4      6.48      0.00
    8    6    4    -24.30      0.00
   10    6    4    -12.53      0.00
   12    6    4     10.76      0.00
   14    6    4     -2.73      0.00
   16    6    4    -16.06      0.00
   18    6    4     10.91      0.00
   20    6    4     -4.18      0.00
   22    6    4      2.25      0.00
   24    6    4     -8.90      0.00
    0    8    4    -11.91      0.00
    6    8    4      3.83      0.00
    8    8    4    -11.21      0.00
   10    8    4     -9.92      0.00
   12    8    4     -1.46      0.00
   14    8    4      3.30      0.00
   16    8    4     -5.29      0.00
   18    8    4      8.20      0.00
   20    8    4     18.12      0.00
   22    8    4    -22.94      0.00
   24    8    4    -17.91      0.00
    0   10    4     37.73      0.00
    2   10    4      9.51      0.00
    4   10    4    -36.47      0.00
    6   10    4      0.64      0.00
    8   10    4      6.21      0.00
   10   10    4     18.48      0.00
   12   10    4     -1.93      0.00
   14   10    4      5.44      0.00
   16   10    4      1.31      0.00
   18   10    4     -3.48      0.00
   20   10    4    -30.07      0.00
   22   10    4    -24.90      0.00
   24   10    4      8.78      0.00
    2   12    4     40.25      0.00
    4   12    4     -3.56      0.00
    6   12    4     19.98      0.00
    8   12    4    -26.83      0.00
   10   12    4     11.35      0.00
   12   12    4      5.41      0.00
   14   12    4     12.00      0.00
   16   12    4    -11.89      0.00
   18   12    4      5.36      0.00
   20   12    4      1.89      0.00
   22   12    4      1.36      0.00
    0   14    4      9.27      0.00
    2   14    4     11.85      0.00
    4   14    4     10.87      0.00
    6   14    4     25.21      0.00
    8   14    4     -9.92      0.00
   10   14    4      2.00      0.00
   12   14    4    -22.91      0.00
   14   14    4     14.40      0.00
   16   14    4     -5.19      0.00
   18   14    4    -22.59      0.00
   20   14    4      1.00      0.00
   22   14    4     -1.51      0.00
    0   16    4     17.63      0.00
    2   16    4     -3.77      0.00
    4   16    4    -35.34      0.00
    6   16    4    -12.93      0.00
    8   16    4     -2.53      0.00
   10   16    4      5.28      0.00
   12   16    4      5.23      0.00
   14   16    4     11.56      0.00
   16   16    4     -5.30      0.00
   18   16    4      4.24      0.00
   20   16    4     13.67      0.00
   22   16    4    -13.29      0.00
    0   18    4     35.54      0.00
    2   18    4     24.07      0.00
    4   18    4      6.77      0.00
    6   18    4     16.11      0.00
    8   18    4      5.31      0.00
   10   18    4     -7.61      0.00
   12   18    4      3.46      0.00
   14   18    4     24.86      0.00
   16   18    4     -7.23      0.00
   18   18    4      0.81      0.00
   20   18    4     -6.70      0.00
   22   18    4    -11.58      0.00
    0   20    4     -1.86      0.00
    2   20    4     -0.19      0.00
    4   20    4    -13.32      0.00
    6   20    4     -4.52      0.00
    8   20    4     -6.20      0.00
   10   20    4     -1.38      0.00
   12   20    4    -19.66      0.00
   14   20    4    -13.42      0.00
   16   20    4     14.18      0.00
   18   20    4     -4.87      0.00
   20   20    4      9.51      0.00
    0   22    4    -13.63      0.00
    2   22    4     18.07      0.00
    4   22    4     -5.62      0.00
    6   22    4     -1.89      0.00
    8   22    4     -8.24      0.00
   10   22    4     -5.23      0.00
   12   22    4     12.00      0.00
   14   22    4      4.53      0.00
   16   22    4      4.39      0.00
   18   22    4    -21.44      0.00
   20   22    4     -3.49      0.00
    0   24    4      2.33      0.00
    2   24    4      7.44      0.00
    4   24    4      0.00      0.00
    6   24    4     -0.20      0.00
    8   24    4     -9.43      0.00
   10   24    4      8.99      0.00
   12   24    4      1.21      0.00
   14   24    4     -6.51      0.00
   16   24    4     -9.40      0.00
   18   24    4      9.49      0.00
    0   26    4      7.18      0.00
    2   26    4     -1.34      0.00
    4   26    4     -4.01      0.00
    6   26    4    -10.97      0.00
    8   26    4      0.17      0.00
   10   26    4      6.14      0.00
   12   26    4     -7.32      0.00
   14   26    4     -8.23      0.00
   16   26    4     19.38      0.00
   18   26    4     -8.71      0.00
    0   28    4     10.63      0.00
    2   28    4     17.17      0.00
    4   28    4     -6.55      0.00
    6   28    4     -3.59      0.00
    8   28    4    -15.08      0.00
   10   28    4      8.02      0.00
   12   28    4     -6.51      0.00
   14   28    4     -2.16      0.00
   16   28    4     -1.20      0.00
    0   30    4     -2.88      0.00
    2   30    4      1.19      0.00
    4   30    4    -11.83      0.00
    6   30    4     -8.26      0.00
    8   30    4     -4.54      0.00
   10   30    4      7.06      0.00
   12   30    4     -0.18      0.00
   14   30    4      7.79      0.00
    0   32    4    -21.31      0.00
    2   32    4    -13.86      0.00
    4   32    4      1.14      0.00
    6   32    4      0.97      0.00
    8   32    4     16.23      0.00
   10   32    4      3.84      0.00
   12   32    4     21.59      0.00
   14   32    4      1.26      0.00
    0   34    4     13.34      0.00
    2   34    4      8.63      0.00
    4   34    4      5.68      0.00
    6   34    4     -9.06      0.00
    8   34    4     -8.27      0.00
   10   34    4     23.63      0.00
    0   36    4     -0.15      0.00
    2   36    4     -5.44      0.00
    4   36    4      2.77      0.00
    6   36    4     -4.62      0.00
    8   36    4    -19.27      0.00
    0   38    4      2.86      0.00
    2   38    4     -7.06      0.00
    4   38    4      7.73      0.00
    3    1    5     11.20      0.00
    5    1    5    -41.72      0.00
    7    1    5    -25.06      0.00
    9    1    5     -3.14      0.00
   11    1    5     -0.17      0.00
   13    1    5     -7.04      0.00
   15    1    5      0.14      0.00
   17    1    5      2.38      0.00
   19    1    5    -13.14      0.00
   21    1    5      2.59      0.00
   23    1    5     18.88      0.00
   25    1    5     -0.13      0.00
    5    3    5     15.55      0.00
    7    3    5      5.36      0.00
    9    3    5     -3.09      0.00
   11    3    5     -1.78      0.00
   13    3    5    -13.14      0.00
   15    3    5      4.34      0.00
   17    3    5      3.08      0.00
   19    3    5     -9.11      0.00
   21    3    5      1.24      0.00
   23    3    5     12.28      0.00
    1    5    5    -38.59      0.00
    3    5    5    109.39      0.00
    7    5    5     -8.98      0.00
    9    5    5    -19.46      0.00
   11    5    5     -2.76      0.00
   13    5    5      3.85      0.00
   15    5    5     -9.66      0.00
   17    5    5     -2.00      0.00
   19    5    5     -2.39      0.00
   21    5    5     -4.51      0.00
   23    5    5     11.00      0.00
    1    7    5    -70.58      0.00
    3    7    5      7.34      0.00
    5    7    5     -4.03      0.00
    7    7    5      8.94      0.00
    9    7    5     -4.09      0.00
   11    7    5     13.08      0.00
   13    7    5      9.23      0.00
   15    7    5      0.29      0.00
   17    7    5      6.93      0.00
   19    7    5     -0.08      0.00
   21    7    5    -10.54      0.00
   23    7    5      0.03      0.00
    1    9    5    -35.47      0.00
    3    9    5    -37.48      0.00
    5    9    5    -12.57      0.00
    7    9    5     16.81      0.00
    9    9    5      7.69      0.00
   11    9    5     -3.67      0.00
   13    9    5      5.52      0.00
   15    9    5     -3.15      0.00
   17    9    5      5.38      0.00
   19    9    5      5.49      0.00
   21    9    5      9.52      0.00
   23    9    5     -5.24      0.00
    1   11    5    -42.38      0.00
    3   11    5     -2.63      0.00
    5   11    5      9.57      0.00
    7   11    5     -7.20      0.00
    9   11    5     -9.97      0.00
   11   11    5     -5.56      0.00
   13   11    5     -6.30      0.00
   15   11    5    -14.68      0.00
   17   11    5     -1.82      0.00
   19   11    5      0.31      0.00
   21   11    5     -7.62      0.00
   23   11    5     24.87      0.00
    1   13    5    -24.21      0.00
    3   13    5    -22.78      0.00
    5   13    5    -11.51      0.00
    7   13    5      2.43      0.00
    9   13    5      3.64      0.00
   11   13    5     -0.04      0.00
   13   13    5     -6.53      0.00
   15   13    5     -7.97      0.00
   17   13    5     -5.30      0.00
   19   13    5     20.12      0.00
   21   13    5     13.73      0.00
   23   13    5     -6.20      0.00
    1   15    5    -12.12      0.00
    3   15    5      3.64      0.00
    5   15    5      5.81      0.00
    7   15    5      1.07      0.00
    9   15    5     -8.99      0.00
   11   15    5     -4.78      0.00
   13   15    5     11.55      0.00
   15   15    5      3.47      0.00
   17   15    5    -18.14      0.00
   19   15    5    -18.78      0.00
   21   15    5      7.09      0.00
   23   15    5      2.23      0.00
    1   17    5    -24.14      0.00
    3   17    5    -12.93      0.00
    5   17    5     -9.66      0.00
    7   17    5     -2.96      0.00
    9   17    5     -4.64      0.00
   11   17    5      7.40      0.00
   13   17    5     10.61      0.00
   15   17    5      4.86      0.00
   17   17    5     11.58      0.00
   19   17    5     16.61      0.00
   21   17    5      2.32      0.00
    1   19    5    -23.74      0.00
    3   19    5     -8.03      0.00
    5   19    5     -3.12      0.00
    7   19    5     10.86      0.00
    9   19    5     -3.91      0.00
   11   19    5     -3.33      0.00
   13   19    5     -9.63      0.00
   15   19    5    -18.52      0.00
   17   19    5      6.18      0.00
   19   19    5     12.92      0.00
   21   19    5     -1.04      0.00
    1   21    5     -5.38      0.00
    3   21    5     -1.39      0.00
    5   21    5     18.42      0.00
    7   21    5     -2.14      0.00
    9   21    5    -15.02      0.00
   11   21    5      0.29      0.00
   13   21    5      0.31      0.00
   15   21    5     17.39      0.00
   17   21    5     18.77      0.00
   19   21    5    -10.03      0.00
   21   21    5      1.46      0.00
    1   23    5    -21.32      0.00
    3   23    5     -1.37      0.00
    5   23    5     -5.26      0.00
    7   23    5      6.03      0.00
    9   23    5    -16.14      0.00
   11   23    5      7.10      0.00
   13   23    5    -16.73      0.00
   15   23    5     -1.77      0.00
   17   23    5     -2.06      0.00
   19   23    5      3.13      0.00
    1   25    5     -7.18      0.00
    3   25    5    -10.97      0.00
    5   25    5      4.58      0.00
    7   25    5      1.46      0.00
    9   25    5    -10.04      0.00
   11   25    5      0.35      0.00
   13   25    5     -9.87      0.00
   15   25    5     -1.71      0.00
   17   25    5     -3.55      0.00
   19   25    5    -20.04      0.00
    1   27    5      2.71      0.00
    3   27    5    -15.92      0.00
    5   27    5      2.83      0.00
    7   27    5     -9.42      0.00
    9   27    5     -0.61      0.00
   11   27    5      1.32      0.00
   13   27    5     -9.50      0.00
   15   27    5     27.28      0.00
   17   27    5     -3.87      0.00
    1   29    5     -9.84      0.00
    3   29    5    -15.20      0.00
    5   29    5     -6.77      0.00
    7   29    5     -8.49      0.00
    9   29    5     -4.93      0.00
   11   29    5     -1.78      0.00
   13   29    5     -5.74      0.00
   15   29    5      8.21      0.00
    1   31    5      2.91      0.00
    3   31    5     -4.39      0.00
    5   31    5     10.11      0.00
    7   31    5      1.89      0.00
    9   31    5      3.66      0.00
   11   31    5     13.00      0.00
   13   31    5     -5.40      0.00
   15   31    5     -0.58      0.00
    1   33    5     -0.69      0.00
    3   33    5     -4.98      0.00
    5   33    5      1.99      0.00
    7   33    5      2.28      0.00
    9   33    5      8.83      0.00
   11   33    5      5.50      0.00
    1   35    5     -7.94      0.00
    3   35    5     -1.45      0.00
    5   35    5      7.49      0.00
    7   35    5     -2.76      0.00
    9   35    5      2.64      0.00
    1   37    5      7.49      0.00
    3   37    5     -6.80      0.00
    5   37    5      9.06      0.00
    7   37    5     -1.96      0.00
    4    0    6    -88.30      0.00
    6    0    6    -63.83      0.00
    8    0    6      5.02      0.00
   10    0    6     26.81      0.00
   12    0    6     -2.14      0.00
   14    0    6     13.89      0.00
   16    0    6      0.06      0.00
   18    0    6    -24.28      0.00
   20    0    6     -1.26      0.00
   22    0    6     -4.50      0.00
   24    0    6     -6.91      0.00
    4    2    6     43.35      0.00
    6    2    6     -1.01      0.00
    8    2    6     -6.91      0.00
   10    2    6     -3.83      0.00
   12    2    6    -14.17      0.00
   14    2    6      3.00      0.00
   16    2    6     -3.42      0.00
   18    2    6    -12.06      0.00
   20    2    6      1.23      0.00
   22    2    6      0.81      0.00
   24    2    6     -1.44      0.00
    4    4    6     62.78      0.00
    8    4    6     21.22      0.00
   10    4    6     -5.60      0.00
   12    4    6     11.76      0.00
   14    4    6      7.83      0.00
   16    4    6     -4.67      0.00
   18    4    6     -1.93      0.00
   20    4    6      7.45      0.00
   22    4    6      8.66      0.00
   24    4    6     10.49      0.00
    0    6    6    -32.90      0.00
    2    6    6    -98.65      0.00
    4    6    6     12.09      0.00
    6    6    6    -13.02      0.00
    8    6    6      6.56      0.00
   10    6    6      3.27      0.00
   12    6    6      1.33      0.00
   14    6    6     -0.72      0.00
   16    6    6     10.94      0.00
   18    6    6     -2.37      0.00
   20    6    6    -14.08      0.00
   22    6    6     -0.73      0.00
   24    6    6    -12.17      0.00
    0    8    6    -24.37      0.00
    2    8    6    -12.17      0.00
    4    8    6      1.06      0.00
    6    8    6    -26.87      0.00
    8    8    6     28.89      0.00
   10    8    6    -10.48      0.00
   12    8    6      0.60      0.00
   14    8    6     -2.26      0.00
   16    8    6      0.90      0.00
   18    8    6    -19.62      0.00
   20    8    6     13.56      0.00
   22    8    6      4.20      0.00
   24    8    6      2.61      0.00
    0   10    6      2.63      0.00
    2   10    6     25.63      0.00
    4   10    6     13.06      0.00
    6   10    6      1.39      0.00
    8   10    6     16.28      0.00
   10   10    6    -13.90      0.00
   12   10    6     -2.84      0.00
   14   10    6     -8.84      0.00
   16   10    6    -10.66      0.00
   18   10    6      2.74      0.00
   20   10    6     15.43      0.00
   22   10    6      5.36      0.00
   24   10    6     -1.91      0.00
    0   12    6     -4.24      0.00
    2   12    6     -9.04      0.00
    4   12    6      3.47      0.00
    6   12    6      0.21      0.00
    8   12    6      5.23      0.00
   10   12    6     18.31      0.00
   12   12    6     -5.87      0.00
   14   12    6     -1.91      0.00
   16   12    6      6.31      0.00
   18   12    6     29.87      0.00
   20   12    6     24.70      0.00
   22   12    6      6.45      0.00
    0   14    6    -46.89      0.00
    2   14    6    -17.83      0.00
    4   14    6     15.15      0.00
    6   14    6     -2.69      0.00
    8   14    6     -6.39      0.00
   10   14    6     -4.03      0.00
   12   14    6     -7.21      0.00
   14   14    6     -0.55      0.00
   16   14    6    -16.33      0.00
   18   14    6    -18.24      0.00
   20   14    6      3.58      0.00
   22   14    6     10.25      0.00
    0   16    6     13.40      0.00
    2   16    6     -2.75      0.00
    4   16    6     24.30      0.00
    6   16    6     -2.19      0.00
    8   16    6     18.84      0.00
   10   16    6      7.01      0.00
   12   16    6     15.06      0.00
   14   16    6     21.17      0.00
   16   16    6    -19.52      0.00
   18   16    6      2.89      0.00
   20   16    6      9.57      0.00
   22   16    6     -2.29      0.00
    0   18    6      8.05      0.00
    2   18    6    -11.35      0.00
    4   18    6     16.06      0.00
    6   18    6      4.86      0.00
    8   18    6      0.23      0.00
   10   18    6     -1.55      0.00
   12   18    6     -0.09      0.00
   14   18    6      1.01      0.00
   16   18    6     -6.34      0.00
   18   18    6     10.65      0.00
   20   18    6    -25.15      0.00
   22   18    6     -1.67      0.00
    0   20    6      4.39      0.00
    2   20    6    -15.61      0.00
    4   20    6     13.89      0.00
    6   20    6     -8.96      0.00
    8   20    6    -13.74      0.00
   10   20    6      3.05      0.00
   12   20    6     -6.22      0.00
   14   20    6    -32.80      0.00
   16   20    6    -16.13      0.00
   18   20    6     12.09      0.00
   20   20    6     12.74      0.00
    0   22    6    -17.77      0.00
    2   22    6     -0.29      0.00
    4   22    6      5.89      0.00
    6   22    6     12.91      0.00
    8   22    6     16.41      0.00
   10   22    6    -13.92      0.00
   12   22    6     -3.37      0.00
   14   22    6      4.99      0.00
   16   22    6     19.43      0.00
   18   22    6     18.31      0.00
   20   22    6     -0.76      0.00
    0   24    6      8.97      0.00
    2   24    6     -6.12      0.00
    4   24    6     13.16      0.00
    6   24    6      1.70      0.00
    8   24    6     -5.68      0.00
   10   24    6     -5.60      0.00
   12   24    6     -6.73      0.00
   14   24    6     18.43      0.00
   16   24    6    -10.64      0.00
   18   24    6    -24.56      0.00
    0   26    6     -2.60      0.00
    2   26    6     -3.99      0.00
    4   26    6     -6.64      0.00
    6   26    6     -8.48      0.00
    8   26    6     24.36      0.00
   10   26    6      1.81      0.00
   12   26    6      2.47      0.00
   14   26    6      7.32      0.00
   16   26    6    -10.49      0.00
   18   26    6      4.44      0.00
    0   28    6      6.38      0.00
    2   28    6      4.14      0.00
    4   28    6      2.88      0.00
    6   28    6      4.30      0.00
    8   28    6    -14.80      0.00
   10   28    6     -3.74      0.00
   12   28    6     -0.13      0.00
   14   28    6     18.72      0.00
   16   28    6      3.65      0.00
    0   30    6     -0.67      0.00
    2   30    6      6.27      0.00
    4   30    6      9.79      0.00
    6   30    6     -3.14      0.00
    8   30    6      0.79      0.00
   10   30    6     -1.84      0.00
   12   30    6    -14.01      0.00
   14   30    6     -8.11      0.00
    0   32    6    -17.33      0.00
    2   32    6     -2.20      0.00
    4   32    6      8.59      0.00
    6   32    6     -2.22      0.00
    8   32    6     27.39      0.00
   10   32    6     14.93      0.00
   12   32    6     12.84      0.00
   14   32    6      4.53      0.00
    0   34    6     -5.28      0.00
    2   34    6      5.52      0.00
    4   34    6      0.51      0.00
    6   34    6      2.32      0.00
    8   34    6     -2.45      0.00
   10   34    6      6.01      0.00
    0   36    6     -7.46      0.00
    2   36    6     -0.26      0.00
    4   36    6     -6.73      0.00
    6   36    6      4.13      0.00
    8   36    6      4.37      0.00
    0   38    6    -10.17      0.00
    2   38    6      7.32      0.00
    4   38    6     11.32      0.00
    1    1    7     42.51      0.00
    3    1    7    -50.07      0.00
    5    1    7     41.64      0.00
    7    1    7    -31.17      0.00
    9    1    7     41.75      0.00
   11    1    7     -2.46      0.00
   13    1    7     22.94      0.00
   15    1    7     -4.37      0.00
   17    1    7      0.70      0.00
   19    1    7      9.48      0.00
   21    1    7      7.80      0.00
   23    1    7      8.82      0.00
    3    3    7    -18.81      0.00
    5    3    7     43.67      0.00
    7    3    7    -54.55      0.00
    9    3    7     -0.64      0.00
   11    3    7     -1.10      0.00
   13    3    7      7.39      0.00
   15    3    7     -0.18      0.00
   17    3    7     -0.75      0.00
   19    3    7     -5.12      0.00
   21    3    7    -11.14      0.00
   23    3    7    -11.45      0.00
    1    5    7     -9.99      0.00
    3    5    7    -64.31      0.00
    5    5    7      6.82      0.00
    7    5    7    -12.85      0.00
    9    5    7      7.22      0.00
   11    5    7     -7.87      0.00
   13    5    7      6.18      0.00
   15    5    7    -12.87      0.00
   17    5    7     -1.16      0.00
   19    5    7     -3.77      0.00
   21    5    7      4.88      0.00
   23    5    7     10.79      0.00
    1    7    7    102.39      0.00
    3    7    7     46.50      0.00
    7    7    7     -1.56      0.00
    9    7    7      5.75      0.00
   11    7    7      1.55      0.00
   13    7    7     -4.65      0.00
   15    7    7    -10.08      0.00
   17    7    7     13.10      0.00
   19    7    7      3.01      0.00
   21    7    7     10.85      0.00
   23    7    7     26.59      0.00
    1    9    7     49.44      0.00
    3    9    7    -26.61      0.00
    5    9    7      5.04      0.00
    7    9    7    -14.58      0.00
    9    9    7      1.37      0.00
   11    9    7     -2.07      0.00
   13    9    7     14.34      0.00
   15    9    7     -8.01      0.00
   17    9    7     10.84      0.00
   19    9    7     -2.65      0.00
   21    9    7     -0.41      0.00
   23    9    7      5.77      0.00
    1   11    7    -27.55      0.00
    3   11    7      8.57      0.00
    5   11    7      8.13      0.00
    7   11    7    -13.94      0.00
    9   11    7     -2.40      0.00
   11   11    7     -6.75      0.00
   13   11    7     -0.40      0.00
   15   11    7     -1.11      0.00
   17   11    7      6.00      0.00
   19   11    7      1.30      0.00
   21   11    7     -0.31      0.00
   23   11    7      1.80      0.00
    1   13    7     66.63      0.00
    3   13    7     30.20      0.00
    5   13    7     18.45      0.00
    7   13    7      0.84      0.00
    9   13    7      7.67      0.00
   11   13    7      7.29      0.00
   13   13    7     -8.54      0.00
   15   13    7     -5.27      0.00
   17   13    7      4.24      0.00
   19   13    7     -0.41      0.00
   21   13    7     -6.37      0.00
   23   13    7      1.49      0.00
    1   15    7      9.80      0.00
    3   15    7      9.61      0.00
    5   15    7    -12.50      0.00
    7   15    7      9.94      0.00
    9   15    7      1.04      0.00
   11   15    7     -6.01      0.00
   13   15    7     21.91      0.00
   15   15    7      1.20      0.00
   17   15    7      8.21      0.00
   19   15    7     -6.33      0.00
   21   15    7      7.65      0.00
    1   17    7      7.86      0.00
    3   17    7     -1.18      0.00
    5   17    7      6.40      0.00
    7   17    7     -3.36      0.00
    9   17    7    -11.73      0.00
   11   17    7     11.77      0.00
   13   17    7     16.20      0.00
   15   17    7      0.78      0.00
   17   17    7     -6.59      0.00
   19   17    7     -5.36      0.00
   21   17    7     -0.33      0.00
    1   19    7      9.00      0.00
    3   19    7     -4.47      0.00
    5   19    7      1.01      0.00
    7   19    7     11.94      0.00
    9   19    7      0.71      0.00
   11   19    7      6.52      0.00
   13   19    7    -16.93      0.00
   15   19    7    -12.55      0.00
   17   19    7      9.80      0.00
   19   19    7      5.94      0.00
   21   19    7    -18.99      0.00
    1   21    7      7.96      0.00
    3   21    7    -15.07      0.00
    5   21    7      3.15      0.00
    7   21    7     -1.81      0.00
    9   21    7     -4.53      0.00
   11   21    7     11.06      0.00
   13   21    7      4.50      0.00
   15   21    7      2.39      0.00
   17   21    7     17.53      0.00
   19   21    7      7.20      0.00
    1   23    7     18.23      0.00
    3   23    7      6.60      0.00
    5   23    7     -9.33      0.00
    7   23    7     -0.48      0.00
    9   23    7      4.54      0.00
   11   23    7     16.34      0.00
   13   23    7     -5.90      0.00
   15   23    7     -0.06      0.00
   17   23    7     -4.50      0.00
   19   23    7     -7.98      0.00
    1   25    7      9.39      0.00
    3   25    7     -1.50      0.00
    5   25    7    -16.31      0.00
    7   25    7      6.78      0.00
    9   25    7    -17.02      0.00
   11   25    7     -9.11      0.00
   13   25    7      8.72      0.00
   15   25    7     10.35      0.00
   17   25    7     11.14      0.00
   19   25    7     15.50      0.00
    1   27    7      1.42      0.00
    3   27    7      4.00      0.00
    5   27    7      8.57      0.00
    7   27    7     17.13      0.00
    9   27    7      6.63      0.00
   11   27    7      8.86      0.00
   13   27    7     18.53      0.00
   15   27    7     -6.84      0.00
   17   27    7    -34.91      0.00
    1   29    7      5.89      0.00
    3   29    7    -11.91      0.00
    5   29    7    -12.41      0.00
    7   29    7    -10.93      0.00
    9   29    7     -2.85      0.00
   11   29    7     11.58      0.00
   13   29    7      1.50      0.00
   15   29    7      7.74      0.00
    1   31    7      7.57      0.00
    3   31    7     13.84      0.00
    5   31    7     -3.11      0.00
    7   31    7     -9.44      0.00
    9   31    7     -6.09      0.00
   11   31    7      2.75      0.00
   13   31    7    -27.65      0.00
    1   33    7    -18.33      0.00
    3   33    7     -7.28      0.00
    5   33    7     -2.40      0.00
    7   33    7      2.07      0.00
    9   33    7     10.01      0.00
   11   33    7      0.70      0.00
    1   35    7     -5.07      0.00
    3   35    7      0.46      0.00
    5   35    7      1.01      0.00
    7   35    7      3.60      0.00
    9   35    7      9.60      0.00
    1   37    7      5.14      0.00
    3   37    7     -5.02      0.00
    5   37    7      2.67      0.00
    7   37    7      3.45      0.00
    2    0    8     86.40      0.00
    6    0    8     26.03      0.00
    8    0    8      7.67      0.00
   10    0    8      2.39      0.00
   12    0    8     -3.55      0.00
   14    0    8      1.01      0.00
   16    0    8      5.62      0.00
   18    0    8    -22.62      0.00
   20    0    8     11.82      0.00
   22    0    8    -29.74      0.00
   24    0    8     -2.83      0.00
    0    2    8    -25.62      0.00
    4    2    8    -41.47      0.00
    6    2    8    -26.44      0.00
    8    2    8     -5.69      0.00
   10    2    8      3.80      0.00
   12    2    8      5.32      0.00
   14    2    8     -3.11      0.00
   16    2    8     13.20      0.00
   18    2    8    -14.48      0.00
   20    2    8     20.50      0.00
   22    2    8      1.96      0.00
   24    2    8     -5.93      0.00
    4    4    8    -91.07      0.00
    6    4    8    -16.65      0.00
    8    4    8      3.92      0.00
   10    4    8     -8.39      0.00
   12    4    8      5.10      0.00
   14    4    8     -3.91      0.00
   16    4    8      8.32      0.00
   18    4    8      8.18      0.00
   20    4    8     17.71      0.00
   22    4    8     -4.89      0.00
   24    4    8     26.05      0.00
    0    6    8     39.17      0.00
    2    6    8    -26.01      0.00
    4    6    8     -8.39      0.00
    6    6    8      1.61      0.00
    8    6    8      0.46      0.00
   10    6    8     -4.82      0.00
   12    6    8     -5.52      0.00
   14    6    8     -0.80      0.00
   16    6    8      4.10      0.00
   18    6    8    -12.30      0.00
   20    6    8     16.44      0.00
   22    6    8      3.31      0.00
   24    6    8     -9.59      0.00
    0    8    8    -66.10      0.00
    2    8    8    -35.19      0.00
    4    8    8    -13.36      0.00
    6    8    8    -20.37      0.00
    8    8    8    -10.72      0.00
   10    8    8    -11.71      0.00
   12    8    8     13.26      0.00
   14    8    8     -4.21      0.00
   16    8    8      0.92      0.00
   18    8    8    -20.92      0.00
   20    8    8     16.79      0.00
   22    8    8     -3.14      0.00
   24    8    8      1.83      0.00
    0   10    8     33.79      0.00
    2   10    8     61.63      0.00
    4   10    8     14.59      0.00
    6   10    8     12.34      0.00
    8   10    8     -4.94      0.00
   10   10    8     -1.10      0.00
   12   10    8     -4.52      0.00
   14   10    8      1.23      0.00
   16   10    8     19.60      0.00
   18   10    8     -9.29      0.00
   20   10    8     -5.80      0.00
   22   10    8    -20.91      0.00
   24   10    8     -0.94      0.00
    0   12    8     -7.15      0.00
    2   12    8    -16.51      0.00
    4   12    8     -8.53      0.00
    6   12    8    -16.41      0.00
    8   12    8    -13.86      0.00
   10   12    8      4.14      0.00
   12   12    8     -6.78      0.00
   14   12    8      4.27      0.00
   16   12    8     -5.19      0.00
   18   12    8    -33.16      0.00
   20   12    8     -5.26      0.00
   22   12    8      9.00      0.00
    0   14    8    -34.38      0.00
    2   14    8    -12.65      0.00
    4   14    8    -20.53      0.00
    6   14    8    -21.35      0.00
    8   14    8     -9.39      0.00
   10   14    8      1.97      0.00
   12   14    8     -6.80      0.00
   14   14    8     11.04      0.00
   16   14    8     22.73      0.00
   18   14    8      7.55      0.00
   20   14    8      0.11      0.00
   22   14    8     -1.88      0.00
    0   16    8      8.65      0.00
    2   16    8    -13.40      0.00
    4   16    8      7.02      0.00
    6   16    8     -7.08      0.00
    8   16    8      8.98      0.00
   10   16    8    -11.98      0.00
   12   16    8    -18.04      0.00
   14   16    8     11.75      0.00
   16   16    8    -19.77      0.00
   18   16    8    -11.20      0.00
   20   16    8      3.89      0.00
   22   16    8     -3.53      0.00
    0   18    8     -3.62      0.00
    2   18    8    -21.67      0.00
    4   18    8     -7.14      0.00
    6   18    8     -3.84      0.00
    8   18    8     -8.08      0.00
   10   18    8      1.23      0.00
   12   18    8      7.08      0.00
   14   18    8     28.40      0.00
   16   18    8     19.97      0.00
   18   18    8     16.48      0.00
   20   18    8     -2.09      0.00
    0   20    8      4.89      0.00
    2   20    8    -25.38      0.00
    4   20    8      4.36      0.00
    6   20    8     -7.60      0.00
    8   20    8     -3.53      0.00
   10   20    8     16.42      0.00
   12   20    8      7.64      0.00
   14   20    8      3.22      0.00
   16   20    8      8.12      0.00
   18   20    8     17.08      0.00
   20   20    8     16.07      0.00
    0   22    8     -1.71      0.00
    2   22    8     -8.16      0.00
    4   22    8      1.94      0.00
    6   22    8     -1.26      0.00
    8   22    8     -4.73      0.00
   10   22    8     -0.81      0.00
   12   22    8      6.09      0.00
   14   22    8      7.71      0.00
   16   22    8      1.60      0.00
   18   22    8     11.58      0.00
   20   22    8      0.05      0.00
    0   24    8     10.79      0.00
    2   24    8    -16.77      0.00
    4   24    8      3.61      0.00
    6   24    8     -6.81      0.00
    8   24    8      1.91      0.00
   10   24    8      7.88      0.00
   12   24    8      1.21      0.00
   14   24    8      7.84      0.00
   16   24    8     -8.42      0.00
   18   24    8    -14.01      0.00
    0   26    8      6.47      0.00
    2   26    8      5.31      0.00
    4   26    8     -3.07      0.00
    6   26    8     -2.18      0.00
    8   26    8     -3.30      0.00
   10   26    8    -14.73      0.00
   12   26    8      4.61      0.00
   14   26    8     13.83      0.00
   16   26    8    -16.69      0.00
   18   26    8     16.37      0.00
    0   28    8     -0.98      0.00
    2   28    8     -5.60      0.00
    4   28    8    -17.51      0.00
    6   28    8      2.44      0.00
    8   28    8    -11.85      0.00
   10   28    8     -8.11      0.00
   12   28    8     -1.96      0.00
   14   28    8     -3.30      0.00
   16   28    8     -1.16      0.00
    0   30    8     -9.17      0.00
    2   30    8     -9.78      0.00
    4   30    8     -2.48      0.00
    6   30    8     -3.33      0.00
    8   30    8      4.90      0.00
   10   30    8     -5.47      0.00
   12   30    8     -6.21      0.00
   14   30    8     11.62      0.00
    0   32    8     -1.11      0.00
    2   32    8      1.48      0.00
    4   32    8     -1.47      0.00
    6   32    8     -8.60      0.00
    8   32    8      8.68      0.00
   10   32    8      3.00      0.00
   12   32    8     -6.13      0.00
    0   34    8      0.76      0.00
    2   34    8     -1.87      0.00
    4   34    8    -12.01      0.00
    6   34    8      0.38      0.00
    8   34    8     -2.33      0.00
   10   34    8     -7.75      0.00
    0   36    8      0.12      0.00
    2   36    8     -3.83      0.00
    4   36    8     -5.44      0.00
    6   36    8     -3.19      0.00
    8   36    8      2.29      0.00
    0   38    8      5.83      0.00
    2   38    8      0.89      0.00
    1    1    9     38.96      0.00
    3    1    9     34.52      0.00
    5    1    9     28.98      0.00
    7    1    9    -35.81      0.00
    9    1    9      5.62      0.00
   11    1    9    -12.96      0.00
   13    1    9      6.91      0.00
   15    1    9     -9.56      0.00
   17    1    9      9.64      0.00
   19    1    9      3.62      0.00
   21    1    9      3.25      0.00
   23    1    9     13.69      0.00
    5    3    9     -2.07      0.00
    7    3    9     -7.17      0.00
    9    3    9     23.21      0.00
   11    3    9     -5.17      0.00
   13    3    9    -16.45      0.00
   15    3    9      0.53      0.00
   17    3    9      3.87      0.00
   19    3    9     -9.16      0.00
   21    3    9    -11.77      0.00
   23    3    9    -10.05      0.00
    1    5    9    -14.50      0.00
    7    5    9     -1.87      0.00
    9    5    9      3.73      0.00
   11    5    9     -5.25      0.00
   13    5    9     11.70      0.00
   15    5    9    -10.75      0.00
   17    5    9     -5.46      0.00
   19    5    9      0.59      0.00
   21    5    9      3.53      0.00
   23    5    9     -1.56      0.00
    1    7    9     15.39      0.00
    3    7    9     24.71      0.00
    5    7    9    -12.04      0.00
    7    7    9     -7.23      0.00
    9    7    9    -11.46      0.00
   11    7    9     -6.14      0.00
   13    7    9     17.49      0.00
   15    7    9      1.71      0.00
   17    7    9      8.42      0.00
   19    7    9      5.54      0.00
   21    7    9      6.83      0.00
   23    7    9      2.42      0.00
    1    9    9    -40.85      0.00
    3    9    9    -49.28      0.00
    5    9    9     34.33      0.00
    7    9    9      2.20      0.00
    9    9    9      4.08      0.00
   11    9    9     -0.43      0.00
   13    9    9      1.17      0.00
   15    9    9    -20.94      0.00
   17    9    9     -6.37      0.00
   19    9    9     -0.87      0.00
   21    9    9    -16.17      0.00
   23    9    9    -18.04      0.00
    1   11    9    -42.19      0.00
    3   11    9    -12.53      0.00
    5   11    9    -14.50      0.00
    7   11    9    -11.52      0.00
    9   11    9     -5.82      0.00
   11   11    9     -3.16      0.00
   13   11    9      1.08      0.00
   15   11    9      8.86      0.00
   17   11    9    -15.05      0.00
   19   11    9    -44.59      0.00
   21   11    9      2.76      0.00
   23   11    9     -2.22      0.00
    1   13    9      4.50      0.00
    3   13    9     -1.63      0.00
    5   13    9      3.18      0.00
    7   13    9     -2.90      0.00
    9   13    9      1.57      0.00
   11   13    9     -7.10      0.00
   13   13    9    -11.97      0.00
   15   13    9     -4.78      0.00
   17   13    9    -17.11      0.00
   19   13    9    -16.55      0.00
   21   13    9      0.37      0.00
   23   13    9      5.08      0.00
    1   15    9    -16.12      0.00
    3   15    9     -4.36      0.00
    5   15    9    -11.12      0.00
    7   15    9      1.38      0.00
    9   15    9      1.95      0.00
   11   15    9      9.89      0.00
   13   15    9      5.65      0.00
   15   15    9    -10.95      0.00
   17   15    9     22.56      0.00
   19   15    9     -0.36      0.00
   21   15    9     16.27      0.00
    1   17    9    -24.51      0.00
    3   17    9     -3.48      0.00
    5   17    9      0.49      0.00
    7   17    9     -0.04      0.00
    9   17    9     -7.41      0.00
   11   17    9    -13.10      0.00
   13   17    9     -0.52      0.00
   15   17    9     27.04      0.00
   17   17    9      9.59      0.00
   19   17    9    -18.05      0.00
   21   17    9      1.95      0.00
    1   19    9    -13.19      0.00
    3   19    9     11.87      0.00
    5   19    9      7.57      0.00
    7   19    9      7.72      0.00
    9   19    9     -1.37      0.00
   11   19    9     -4.55      0.00
   13   19    9     -9.19      0.00
   15   19    9     -4.10      0.00
   17   19    9    -12.07      0.00
   19   19    9     13.93      0.00
   21   19    9     -5.79      0.00
    1   21    9    -20.16      0.00
    3   21    9     -2.54      0.00
    5   21    9      2.55      0.00
    7   21    9     -0.63      0.00
    9   21    9    -11.20      0.00
   11   21    9     12.09      0.00
   13   21    9      2.45      0.00
   15   21    9     -4.87      0.00
   17   21    9      7.79      0.00
   19   21    9     -5.47      0.00
    1   23    9      9.25      0.00
    3   23    9     -2.80      0.00
    5   23    9    -12.51      0.00
    7   23    9      1.20      0.00
    9   23    9     -1.89      0.00
   11   23    9      5.51      0.00
   13   23    9      5.93      0.00
   15   23    9      2.76      0.00
   17   23    9      0.08      0.00
   19   23    9     -8.34      0.00
    1   25    9    -12.98      0.00
    3   25    9      9.88      0.00
    5   25    9      8.06      0.00
    7   25    9      7.81      0.00
    9   25    9    -28.02      0.00
   11   25    9      1.05      0.00
   13   25    9    -14.92      0.00
   15   25    9     -1.04      0.00
   17   25    9      3.80      0.00
    1   27    9     -0.31      0.00
    3   27    9     -0.96      0.00
    5   27    9     -4.29      0.00
    7   27    9      5.79      0.00
    9   27    9     -2.86      0.00
   11   27    9     -3.73      0.00
   13   27    9      2.62      0.00
   15   27    9      8.56      0.00
   17   27    9    -23.74      0.00
    1   29    9      9.23      0.00
    3   29    9     -5.86      0.00
    5   29    9      1.26      0.00
    7   29    9      9.36      0.00
    9   29    9     -4.71      0.00
   11   29    9     -9.81      0.00
   13   29    9    -10.83      0.00
   15   29    9     24.66      0.00
    1   31    9     -3.57      0.00
    3   31    9      1.00      0.00
    5   31    9      3.73      0.00
    7   31    9      0.99      0.00
    9   31    9     -9.67      0.00
   11   31    9     15.86      0.00
   13   31    9     -7.30      0.00
    1   33    9      3.91      0.00
    3   33    9     -7.85      0.00
    5   33    9     10.14      0.00
    7   33    9      2.87      0.00
    9   33    9      2.68      0.00
   11   33    9    -19.86      0.00
    1   35    9     11.49      0.00
    3   35    9     -4.58      0.00
    5   35    9     -0.09      0.00
    7   35    9     -4.96      0.00
    9   35    9     11.75      0.00
    1   37    9      4.18      0.00
    3   37    9    -13.90      0.00
    5   37    9      6.46      0.00
    0    0   10     -9.72      0.00
    2    0   10     -0.48      0.00
    4    0   10    -23.73      0.00
    6    0   10    -32.64      0.00
    8    0   10    -58.67      0.00
   10    0   10      2.66      0.00
   12    0   10     -3.85      0.00
   14    0   10    -18.10      0.00
   16    0   10      2.89      0.00
   18    0   10     -7.52      0.00
   20    0   10     24.16      0.00
   22    0   10    -20.08      0.00
   24    0   10     -2.75      0.00
    0    2   10    -14.43      0.00
    2    2   10     22.82      0.00
    4    2   10     51.50      0.00
    6    2   10     29.71      0.00
    8    2   10     11.39      0.00
   10    2   10      4.13      0.00
   12    2   10    -12.48      0.00
   14    2   10     -7.18      0.00
   16    2   10     21.89      0.00
   18    2   10    -13.47      0.00
   20    2   10     15.21      0.00
   22    2   10     -3.08      0.00
   24    2   10     -6.71      0.00
    0    4   10    -23.77      0.00
    2    4   10     17.34      0.00
    4    4   10     13.80      0.00
    6    4   10     29.08      0.00
    8    4   10     -4.38      0.00
   10    4   10      3.79      0.00
   12    4   10     -1.24      0.00
   14    4   10     -1.30      0.00
   16    4   10      6.02      0.00
   18    4   10      2.49      0.00
   20    4   10      8.44      0.00
   22    4   10    -18.17      0.00
   24    4   10      6.59      0.00
    0    6   10     24.55      0.00
    2    6   10     16.92      0.00
    4    6   10      9.58      0.00
    6    6   10      2.62      0.00
    8    6   10     -4.53      0.00
   10    6   10      1.70      0.00
   12    6   10     -2.08      0.00
   14    6   10      1.09      0.00
   16    6   10     -6.78      0.00
   18    6   10    -10.60      0.00
   20    6   10      5.50      0.00
   22    6   10    -22.05      0.00
   24    6   10    -15.91      0.00
    0    8   10     39.10      0.00
    2    8   10    -12.40      0.00
    4    8   10     -7.86      0.00
    6    8   10      9.34      0.00
    8    8   10      9.79      0.00
   10    8   10     -8.91      0.00
   12    8   10     -7.24      0.00
   14    8   10     -9.20      0.00
   16    8   10     -3.10      0.00
   18    8   10     -9.57      0.00
   20    8   10      8.53      0.00
   22    8   10    -21.01      0.00
   24    8   10    -17.02      0.00
    0   10   10     13.07      0.00
    2   10   10     32.77      0.00
    4   10   10    -15.54      0.00
    6   10   10     17.66      0.00
    8   10   10     -7.72      0.00
   10   10   10      8.71      0.00
   12   10   10      0.56      0.00
   14   10   10    -18.84      0.00
   16   10   10      0.69      0.00
   18   10   10    -12.77      0.00
   20   10   10     17.97      0.00
   22   10   10      3.79      0.00
    0   12   10     16.73      0.00
    2   12   10    -13.43      0.00
    4   12   10      1.06      0.00
    6   12   10      7.57      0.00
    8   12   10     10.31      0.00
   10   12   10     -0.79      0.00
   12   12   10      4.52      0.00
   14   12   10     -2.58      0.00
   16   12   10      5.49      0.00
   18   12   10    -10.69      0.00
   20   12   10      1.51      0.00
   22   12   10     -6.65      0.00
    0   14   10     20.76      0.00
    2   14   10      8.50      0.00
    4   14   10     14.20      0.00
    6   14   10    -12.69      0.00
    8   14   10     -3.89      0.00
   10   14   10     10.96      0.00
   12   14   10     -7.28      0.00
   14   14   10     -5.24      0.00
   16   14   10     -3.14      0.00
   18   14   10    -31.67      0.00
   20   14   10    -10.47      0.00
   22   14   10     11.74      0.00
    0   16   10     32.68      0.00
    2   16   10      8.30      0.00
    4   16   10     21.95      0.00
    6   16   10      2.56      0.00
    8   16   10     11.18      0.00
   10   16   10      1.69      0.00
   12   16   10     -1.43      0.00
   14   16   10      6.54      0.00
   16   16   10     11.67      0.00
   18   16   10     -2.39      0.00
   20   16   10      0.54      0.00
   22   16   10      5.87      0.00
    0   18   10      2.70      0.00
    4   18   10     10.01      0.00
    6   18   10      5.77      0.00
    8   18   10      3.21      0.00
   10   18   10     -6.87      0.00
   12   18   10    -30.01      0.00
   14   18   10     -3.74      0.00
   16   18   10      7.62      0.00
   18   18   10    -14.03      0.00
   20   18   10     -0.70      0.00
    0   20   10     20.98      0.00
    2   20   10     12.53      0.00
    4   20   10      6.02      0.00
    6   20   10    -11.31      0.00
    8   20   10      7.07      0.00
   10   20   10     20.15      0.00
   12   20   10     17.00      0.00
   14   20   10     -2.14      0.00
   16   20   10     -3.00      0.00
   18   20   10    -17.46      0.00
   20   20   10     -1.28      0.00
    0   22   10     -6.89      0.00
    2   22   10     -5.42      0.00
    4   22   10     -6.02      0.00
    6   22   10      5.52      0.00
    8   22   10     -3.77      0.00
   10   22   10    -18.25      0.00
   12   22   10    -29.96      0.00
   14   22   10    -10.48      0.00
   16   22   10      0.36      0.00
   18   22   10      1.16      0.00
   20   22   10    -16.27      0.00
    0   24   10     17.02      0.00
    2   24   10     10.10      0.00
    4   24   10      4.23      0.00
    6   24   10     -3.07      0.00
    8   24   10      8.26      0.00
   10   24   10     -8.34      0.00
   12   24   10     13.11      0.00
   14   24   10     -1.49      0.00
   16   24   10     -0.31      0.00
   18   24   10    -13.00      0.00
    0   26   10     10.35      0.00
    2   26   10     13.25      0.00
    4   26   10      4.62      0.00
    6   26   10      5.96      0.00
    8   26   10     -6.05      0.00
   10   26   10      2.06      0.00
   12   26   10      0.76      0.00
   14   26   10      7.09      0.00
   16   26   10     17.85      0.00
   18   26   10     20.53      0.00
    0   28   10     -2.83      0.00
    2   28   10     12.35      0.00
    4   28   10    -11.98      0.00
    6   28   10      2.28      0.00
    8   28   10      4.07      0.00
   10   28   10     -9.35      0.00
   12   28   10     -8.03      0.00
   14   28   10    -12.95      0.00
   16   28   10     16.94      0.00
    0   30   10     -2.58      0.00
    2   30   10     -0.50      0.00
    4   30   10      9.68      0.00
    6   30   10     -1.45      0.00
    8   30   10      7.28      0.00
   10   30   10    -10.82      0.00
   12   30   10      5.44      0.00
   14   30   10     -2.65      0.00
    0   32   10      0.61      0.00
    2   32   10      7.60      0.00
    4   32   10      5.32      0.00
    6   32   10      0.58      0.00
    8   32   10     -7.28      0.00
   10   32   10     -2.64      0.00
   12   32   10      6.22      0.00
    0   34   10      7.80      0.00
    2   34   10     -1.70      0.00
    4   34   10     -9.02      0.00
    6   34   10     -3.45      0.00
    8   34   10     -6.82      0.00
   10   34   10     -5.56      0.00
    0   36   10      4.42      0.00
    2   36   10     -0.14      0.00
    4   36   10     17.14      0.00
    6   36   10     11.91      0.00
    1    1   11    -36.33      0.00
    3    1   11    -12.95      0.00
    5    1   11    -42.84      0.00
    7    1   11     13.99      0.00
    9    1   11      4.73      0.00
   11    1   11      7.86      0.00
   13    1   11    -10.11      0.00
   15    1   11      3.15      0.00
   17    1   11      9.61      0.00
   19    1   11     12.72      0.00
   21    1   11     -0.04      0.00
   23    1   11      3.89      0.00
    1    3   11     24.61      0.00
    7    3   11     -6.59      0.00
    9    3   11    -32.76      0.00
   11    3   11      0.52      0.00
   13    3   11      1.57      0.00
   15    3   11     10.60      0.00
   17    3   11     -6.35      0.00
   19    3   11     -0.89      0.00
   21    3   11     -7.12      0.00
   23    3   11    -19.04      0.00
    1    5   11     14.71      0.00
    3    5   11     25.63      0.00
    5    5   11     14.73      0.00
    7    5   11     25.14      0.00
    9    5   11     12.54      0.00
   11    5   11     -1.56      0.00
   13    5   11    -17.39      0.00
   15    5   11      1.27      0.00
   17    5   11     13.99      0.00
   19    5   11      9.57      0.00
   21    5   11     -2.34      0.00
   23    5   11     -5.37      0.00
    1    7   11     -2.69      0.00
    3    7   11    -25.16      0.00
    5    7   11    -42.45      0.00
    7    7   11      5.05      0.00
    9    7   11     -8.97      0.00
   11    7   11      6.47      0.00
   13    7   11      7.23      0.00
   15    7   11     -5.64      0.00
   17    7   11     -3.38      0.00
   19    7   11      2.81      0.00
   21    7   11     -4.86      0.00
   23    7   11      8.64      0.00
    1    9   11     51.40      0.00
    3    9   11    -11.54      0.00
    5    9   11     -0.95      0.00
    7    9   11    -16.25      0.00
    9    9   11      9.81      0.00
   11    9   11     -2.91      0.00
   13    9   11     -6.87      0.00
   15    9   11     -7.68      0.00
   17    9   11      0.32      0.00
   19    9   11     22.30      0.00
   21    9   11    -11.03      0.00
   23    9   11      5.68      0.00
    1   11   11     27.16      0.00
    3   11   11      3.57      0.00
    5   11   11     -8.63      0.00
    7   11   11      7.70      0.00
    9   11   11      4.17      0.00
   11   11   11      4.17      0.00
   13   11   11     -9.32      0.00
   15   11   11     -0.21      0.00
   17   11   11      6.09      0.00
   19   11   11     14.47      0.00
   21   11   11     18.48      0.00
   23   11   11     -0.48      0.00
    1   13   11     -5.22      0.00
    3   13   11      9.99      0.00
    5   13   11    -14.29      0.00
    7   13   11    -16.59      0.00
    9   13   11     -0.39      0.00
   11   13   11      4.78      0.00
   13   13   11      5.99      0.00
   15   13   11      4.88      0.00
   17   13   11    -14.16      0.00
   19   13   11     -9.85      0.00
   21   13   11    -13.84      0.00
   23   13   11     10.76      0.00
    1   15   11      8.67      0.00
    3   15   11      6.16      0.00
    5   15   11     12.65      0.00
    7   15   11      4.57      0.00
    9   15   11    -15.30      0.00
   11   15   11    -14.59      0.00
   13   15   11      9.57      0.00
   15   15   11      7.00      0.00
   17   15   11      5.16      0.00
   19   15   11    -12.42      0.00
   21   15   11     11.10      0.00
    1   17   11      7.39      0.00
    3   17   11      0.39      0.00
    5   17   11    -16.69      0.00
    7   17   11     -5.10      0.00
    9   17   11     12.06      0.00
   11   17   11     -5.06      0.00
   13   17   11      5.84      0.00
   15   17   11     11.34      0.00
   17   17   11     -7.66      0.00
   19   17   11    -16.61      0.00
   21   17   11      4.54      0.00
    1   19   11     -2.72      0.00
    3   19   11      0.35      0.00
    5   19   11     -0.60      0.00
    7   19   11     -3.40      0.00
    9   19   11     17.27      0.00
   11   19   11     -3.85      0.00
   13   19   11     -0.23      0.00
   15   19   11     10.90      0.00
   17   19   11     -5.67      0.00
   19   19   11     34.37      0.00
   21   19   11     -4.40      0.00
    1   21   11      3.56      0.00
    3   21   11     11.17      0.00
    5   21   11     -4.61      0.00
    7   21   11     -3.21      0.00
    9   21   11      5.60      0.00
   11   21   11     -3.52      0.00
   13   21   11      1.65      0.00
   15   21   11     11.27      0.00
   17   21   11     -5.53      0.00
   19   21   11    -11.41      0.00
    1   23   11      9.69      0.00
    3   23   11      2.93      0.00
    5   23   11     -0.64      0.00
    7   23   11      5.80      0.00
    9   23   11      3.18      0.00
   11   23   11     -3.92      0.00
   13   23   11     12.73      0.00
   15   23   11     10.75      0.00
   17   23   11     -1.23      0.00
   19   23   11     -6.72      0.00
    1   25   11     -5.58      0.00
    3   25   11      9.55      0.00
    5   25   11     -1.50      0.00
    7   25   11     -1.66      0.00
    9   25   11    -16.53      0.00
   11   25   11    -10.85      0.00
   13   25   11     -0.34      0.00
   15   25   11     10.35      0.00
   17   25   11     -7.15      0.00
    1   27   11     -0.40      0.00
    3   27   11     -2.39      0.00
    5   27   11     -8.60      0.00
    7   27   11     -0.17      0.00
    9   27   11     11.59      0.00
   11   27   11      1.17      0.00
   13   27   11     -1.83      0.00
   15   27   11      1.29      0.00
   17   27   11     -6.77      0.00
    1   29   11     -1.96      0.00
    3   29   11      6.44      0.00
    5   29   11     -3.33      0.00
    7   29   11     -0.54      0.00
    9   29   11      1.30      0.00
   11   29   11     11.77      0.00
   13   29   11      0.56      0.00
   15   29   11     -5.44      0.00
    1   31   11     -1.13      0.00
    3   31   11     -3.96      0.00
    5   31   11     -5.40      0.00
    7   31   11     -5.12      0.00
    9   31   11    -25.76      0.00
   11   31   11      4.75      0.00
   13   31   11     -2.55      0.00
    1   33   11      0.60      0.00
    3   33   11     -3.52      0.00
    5   33   11      5.84      0.00
    7   33   11     -4.12      0.00
    9   33   11      0.11      0.00
   11   33   11      0.56      0.00
    1   35   11     -5.00      0.00
    3   35   11     -7.43      0.00
    5   35   11     -8.81      0.00
    7   35   11     -7.19      0.00
    9   35   11      2.12      0.00
    1   37   11      3.73      0.00
    3   37   11      7.02      0.00
    0    0   12     53.50      0.00
    2    0   12    -11.98      0.00
    4    0   12     13.38      0.00
    6    0   12     33.00      0.00
    8    0   12     13.43      0.00
   10    0   12     23.40      0.00
   12    0   12     12.57      0.00
   14    0   12      1.81      0.00
   16    0   12     -5.55      0.00
   18    0   12     -8.18      0.00
   20    0   12      5.15      0.00
   22    0   12    -22.95      0.00
   24    0   12     20.98      0.00
    0    2   12    -31.82      0.00
    2    2   12    -15.16      0.00
    4    2   12    -15.89      0.00
    6    2   12    -17.97      0.00
    8    2   12     -6.65      0.00
   10    2   12      3.21      0.00
   12    2   12      2.82      0.00
   14    2   12     -5.64      0.00
   16    2   12     17.39      0.00
   18    2   12      2.55      0.00
   20    2   12      3.81      0.00
   22    2   12     -1.31      0.00
   24    2   12     27.59      0.00
    0    4   12      2.72      0.00
    2    4   12    -39.79      0.00
    4    4   12    -12.58      0.00
    6    4   12    -18.18      0.00
   10    4   12     -8.28      0.00
   12    4   12      5.74      0.00
   14    4   12      1.82      0.00
   16    4   12     -1.64      0.00
   18    4   12      5.98      0.00
   20    4   12     -0.12      0.00
   22    4   12     -7.84      0.00
   24    4   12     20.90      0.00
    0    6   12    -43.39      0.00
    2    6   12    -12.02      0.00
    4    6   12      4.29      0.00
    6    6   12     14.47      0.00
    8    6   12      2.58      0.00
   10    6   12      1.10      0.00
   12    6   12      2.17      0.00
   14    6   12     10.07      0.00
   16    6   12      4.26      0.00
   18    6   12     13.29      0.00
   20    6   12      1.04      0.00
   22    6   12      2.85      0.00
   24    6   12     11.54      0.00
    0    8   12     45.50      0.00
    2    8   12    -15.88      0.00
    4    8   12     -7.99      0.00
    6    8   12     -9.79      0.00
    8    8   12     17.49      0.00
   10    8   12      9.17      0.00
   12    8   12      3.96      0.00
   14    8   12     -2.73      0.00
   16    8   12     -2.22      0.00
   18    8   12      1.64      0.00
   20    8   12      1.13      0.00
   22    8   12      9.37      0.00
    0   10   12    -60.42      0.00
    2   10   12      4.27      0.00
    4   10   12    -33.25      0.00
    6   10   12    -12.64      0.00
    8   10   12     -9.66      0.00
   10   10   12      5.24      0.00
   12   10   12     19.06      0.00
   14   10   12     -0.08      0.00
   16   10   12      4.17      0.00
   18   10   12     -2.71      0.00
   20   10   12      2.35      0.00
   22   10   12    -23.36      0.00
    0   12   12     -4.50      0.00
    2   12   12      9.23      0.00
    4   12   12      4.50      0.00
    6   12   12     -1.82      0.00
    8   12   12     -9.00      0.00
   10   12   12    -16.62      0.00
   12   12   12      9.70      0.00
   14   12   12    -13.10      0.00
   16   12   12     12.63      0.00
   18   12   12      9.33      0.00
   20   12   12     16.92      0.00
   22   12   12     17.19      0.00
    0   14   12     10.93      0.00
    2   14   12    -15.94      0.00
    4   14   12     13.95      0.00
    8   14   12     14.26      0.00
   10   14   12     -9.38      0.00
   12   14   12     -2.87      0.00
   14   14   12     14.13      0.00
   16   14   12     13.09      0.00
   18   14   12    -27.02      0.00
   20   14   12    -30.51      0.00
   22   14   12     -7.37      0.00
    0   16   12    -17.15      0.00
    2   16   12    -18.35      0.00
    4   16   12     -2.64      0.00
    6   16   12      4.64      0.00
    8   16   12     -0.29      0.00
   10   16   12    -15.99      0.00
   12   16   12     13.46      0.00
   14   16   12     -0.81      0.00
   16   16   12     -3.36      0.00
   18   16   12     -2.09      0.00
   20   16   12     -1.67      0.00
   22   16   12      3.26      0.00
    0   18   12     14.41      0.00
    2   18   12    -14.67      0.00
    4   18   12     -0.01      0.00
    6   18   12      9.58      0.00
    8   18   12     -9.59      0.00
   10   18   12     -2.54      0.00
   12   18   12      0.58      0.00
   14   18   12     -9.41      0.00
   16   18   12     10.56      0.00
   18   18   12     20.82      0.00
   20   18   12     19.22      0.00
    0   20   12      0.01      0.00
    2   20   12     -5.81      0.00
    4   20   12     -2.31      0.00
    6   20   12     -1.51      0.00
    8   20   12     10.55      0.00
   10   20   12      3.59      0.00
   12   20   12     10.15      0.00
   14   20   12      0.58      0.00
   16   20   12     26.18      0.00
   18   20   12     13.64      0.00
   20   20   12      1.92      0.00
    0   22   12     -5.86      0.00
    2   22   12     -7.06      0.00
    4   22   12      6.81      0.00
    6   22   12      8.33      0.00
    8   22   12    -16.18      0.00
   10   22   12      3.68      0.00
   12   22   12      3.77      0.00
   14   22   12     18.24      0.00
   16   22   12      2.16      0.00
   18   22   12     -2.82      0.00
    0   24   12      6.76      0.00
    2   24   12     -1.80      0.00
    4   24   12    -12.13      0.00
    6   24   12    -10.59      0.00
    8   24   12      5.44      0.00
   10   24   12    -20.20      0.00
   12   24   12      6.54      0.00
   14   24   12    -10.53      0.00
   16   24   12     -9.68      0.00
   18   24   12      1.59      0.00
    0   26   12    -13.09      0.00
    2   26   12     -9.66      0.00
    4   26   12      3.55      0.00
    6   26   12      4.15      0.00
    8   26   12     -3.07      0.00
   10   26   12     -5.31      0.00
   12   26   12     -1.75      0.00
   14   26   12     11.77      0.00
   16   26   12      3.31      0.00
    0   28   12    -13.71      0.00
    2   28   12      0.07      0.00
    4   28   12     -9.97      0.00
    6   28   12      0.36      0.00
    8   28   12      4.54      0.00
   10   28   12      9.98      0.00
   12   28   12     27.89      0.00
   14   28   12     -7.15      0.00
   16   28   12    -19.53      0.00
    0   30   12     20.04      0.00
    2   30   12     -5.24      0.00
    4   30   12      7.09      0.00
    6   30   12     -8.44      0.00
    8   30   12      3.09      0.00
   10   30   12     -8.70      0.00
   12   30   12      9.72      0.00
   14   30   12     -3.16      0.00
    0   32   12     -1.61      0.00
    2   32   12    -10.64      0.00
    4   32   12    -17.55      0.00
    6   32   12     -2.67      0.00
    8   32   12     -4.87      0.00
   10   32   12      0.35      0.00
    0   34   12      7.15      0.00
    2   34   12      2.08      0.00
    4   34   12      5.15      0.00
    6   34   12     11.95      0.00
    8   34   12     -0.42      0.00
    0   36   12      2.51      0.00
    2   36   12     -3.39      0.00
    4   36   12      0.67      0.00
    6   36   12      6.12      0.00
    1    1   13     -1.03      0.00
    3    1   13     30.88      0.00
    5    1   13      6.00      0.00
    7    1   13      9.26      0.00
    9    1   13    -14.54      0.00
   11    1   13      8.60      0.00
   13    1   13     -2.04      0.00
   15    1   13      4.41      0.00
   17    1   13     -6.71      0.00
   19    1   13     -3.43      0.00
   21    1   13     -0.59      0.00
   23    1   13      1.57      0.00
    1    3   13      5.10      0.00
    3    3   13      4.82      0.00
    5    3   13    -21.33      0.00
    7    3   13      5.35      0.00
    9    3   13     11.02      0.00
   11    3   13      2.55      0.00
   13    3   13     -1.49      0.00
   15    3   13     -0.61      0.00
   17    3   13      1.25      0.00
   19    3   13     -0.75      0.00
   21    3   13      5.11      0.00
   23    3   13     -3.80      0.00
    3    5   13     20.48      0.00
    5    5   13     10.83      0.00
    7    5   13      1.63      0.00
    9    5   13     -3.63      0.00
   11    5   13     -4.57      0.00
   13    5   13     14.81      0.00
   15    5   13      5.50      0.00
   17    5   13      1.23      0.00
   19    5   13      1.48      0.00
   21    5   13     12.57      0.00
   23    5   13     -2.28      0.00
    1    7   13    -35.86      0.00
    3    7   13    -10.28      0.00
    5    7   13    -22.76      0.00
    7    7   13     18.83      0.00
    9    7   13      2.20      0.00
   11    7   13     -4.11      0.00
   13    7   13     -2.87      0.00
   15    7   13      3.45      0.00
   17    7   13     -2.82      0.00
   19    7   13     -3.71      0.00
   21    7   13     -7.40      0.00
   23    7   13      0.30      0.00
    1    9   13     -8.22      0.00
    3    9   13     27.80      0.00
    5    9   13     10.07      0.00
    7    9   13      6.09      0.00
    9    9   13     10.15      0.00
   11    9   13     -2.65      0.00
   13    9   13      6.62      0.00
   15    9   13      5.71      0.00
   17    9   13    -13.99      0.00
   19    9   13     10.22      0.00
   21    9   13    -10.77      0.00
   23    9   13     -4.40      0.00
    1   11   13     35.93      0.00
    3   11   13     26.73      0.00
    5   11   13     10.58      0.00
    7   11   13     14.31      0.00
    9   11   13      6.18      0.00
   11   11   13      0.35      0.00
   13   11   13    -18.42      0.00
   15   11   13     14.17      0.00
   17   11   13    -13.74      0.00
   19   11   13      6.84      0.00
   21   11   13     -0.12      0.00
   23   11   13     -3.95      0.00
    1   13   13    -12.54      0.00
    3   13   13      7.75      0.00
    5   13   13    -24.43      0.00
    7   13   13      5.04      0.00
    9   13   13      0.58      0.00
   11   13   13     12.86      0.00
   13   13   13      4.25      0.00
   15   13   13     13.11      0.00
   17   13   13      0.64      0.00
   19   13   13     10.93      0.00
   21   13   13    -12.79      0.00
    1   15   13     -9.10      0.00
    3   15   13      1.94      0.00
    5   15   13     44.94      0.00
    7   15   13     42.48      0.00
    9   15   13      1.20      0.00
   11   15   13    -21.29      0.00
   13   15   13     -3.13      0.00
   15   15   13     10.75      0.00
   17   15   13     -6.78      0.00
   19   15   13      4.44      0.00
   21   15   13     -4.52      0.00
    1   17   13     16.78      0.00
    3   17   13      7.30      0.00
    5   17   13      5.86      0.00
    7   17   13     -0.51      0.00
    9   17   13     13.07      0.00
   11   17   13    -10.85      0.00
   13   17   13    -10.29      0.00
   15   17   13     -7.29      0.00
   17   17   13      1.98      0.00
   19   17   13     24.26      0.00
   21   17   13     -2.05      0.00
    1   19   13      7.85      0.00
    3   19   13     -0.27      0.00
    5   19   13     11.56      0.00
    7   19   13    -14.22      0.00
    9   19   13      3.81      0.00
   11   19   13     -3.35      0.00
   13   19   13     -4.36      0.00
   15   19   13      0.21      0.00
   17   19   13     -1.39      0.00
   19   19   13     41.23      0.00
    1   21   13     -4.50      0.00
    3   21   13      5.61      0.00
    5   21   13      3.71      0.00
    7   21   13      6.73      0.00
    9   21   13      7.59      0.00
   11   21   13    -21.07      0.00
   13   21   13     -7.52      0.00
   15   21   13      4.97      0.00
   17   21   13     -7.00      0.00
   19   21   13    -20.69      0.00
    1   23   13      6.52      0.00
    3   23   13    -12.10      0.00
    5   23   13     -6.84      0.00
    7   23   13     -2.21      0.00
    9   23   13      5.15      0.00
   11   23   13      8.73      0.00
   13   23   13      5.66      0.00
   15   23   13      4.65      0.00
   17   23   13     20.80      0.00
    1   25   13     -3.85      0.00
    3   25   13     10.83      0.00
    5   25   13     -3.25      0.00
    7   25   13     -5.31      0.00
    9   25   13     22.62      0.00
   11   25   13    -13.99      0.00
   13   25   13      3.51      0.00
   15   25   13    -10.01      0.00
   17   25   13    -20.60      0.00
    1   27   13     19.36      0.00
    3   27   13     13.14      0.00
    5   27   13     -3.09      0.00
    7   27   13     -5.37      0.00
    9   27   13     -3.70      0.00
   11   27   13    -29.09      0.00
   13   27   13     13.40      0.00
   15   27   13    -19.99      0.00
    1   29   13    -13.80      0.00
    3   29   13      4.68      0.00
    5   29   13     -3.21      0.00
    7   29   13     -5.87      0.00
    9   29   13      4.03      0.00
   11   29   13     -0.21      0.00
   13   29   13     29.19      0.00
    1   31   13     14.64      0.00
    3   31   13     -4.08      0.00
    5   31   13     -2.76      0.00
    7   31   13      6.60      0.00
    9   31   13      4.47      0.00
   11   31   13      1.12      0.00
   13   31   13      6.18      0.00
    1   33   13      8.06      0.00
    3   33   13      2.25      0.00
    5   33   13      3.41      0.00
    7   33   13     -0.26      0.00
    9   33   13      3.78      0.00
    1   35   13     -1.15      0.00
    3   35   13      8.22      0.00
    5   35   13     -5.86      0.00
    7   35   13     -9.10      0.00
    1   37   13      3.55      0.00
    0    0   14     49.24      0.00
    2    0   14    -17.78      0.00
    4    0   14     15.94      0.00
    6    0   14     -6.84      0.00
    8    0   14    -36.15      0.00
   10    0   14      9.36      0.00
   12    0   14     -2.19      0.00
   14    0   14      5.35      0.00
   16    0   14     -7.34      0.00
   18    0   14     -3.30      0.00
   20    0   14     -0.22      0.00
   22    0   14     -4.97      0.00
    0    2   14      2.72      0.00
    2    2   14     29.15      0.00
    4    2   14     11.08      0.00
    6    2   14      1.11      0.00
    8    2   14     -8.87      0.00
   10    2   14      4.95      0.00
   12    2   14     -6.95      0.00
   14    2   14     -2.66      0.00
   16    2   14      5.28      0.00
   18    2   14      3.16      0.00
   20    2   14     -3.11      0.00
   22    2   14     13.16      0.00
    0    4   14      8.77      0.00
    4    4   14      6.99      0.00
    6    4   14     20.32      0.00
    8    4   14     24.63      0.00
   10    4   14     21.00      0.00
   12    4   14     -5.71      0.00
   14    4   14     -3.05      0.00
   16    4   14     -9.68      0.00
   18    4   14      0.81      0.00
   20    4   14    -14.75      0.00
   22    4   14      7.28      0.00
    0    6   14      5.83      0.00
    2    6   14     17.58      0.00
    4    6   14      8.62      0.00
    6    6   14     -7.30      0.00
    8    6   14    -10.31      0.00
   10    6   14      1.75      0.00
   12    6   14     -0.32      0.00
   14    6   14     12.82      0.00
   16    6   14    -15.71      0.00
   18    6   14     10.00      0.00
   20    6   14    -14.81      0.00
   22    6   14     14.57      0.00
    0    8   14     71.47      0.00
    2    8   14      6.60      0.00
    4    8   14     27.47      0.00
    6    8   14     18.49      0.00
    8    8   14      6.91      0.00
   10    8   14      0.42      0.00
   12    8   14    -21.02      0.00
   14    8   14     -8.26      0.00
   16    8   14     -4.79      0.00
   18    8   14      9.77      0.00
   20    8   14    -14.84      0.00
   22    8   14     11.24      0.00
    0   10   14     -9.14      0.00
    2   10   14     11.27      0.00
    4   10   14    -13.13      0.00
    6   10   14     -2.70      0.00
    8   10   14     -8.19      0.00
   10   10   14     19.67      0.00
   12   10   14      4.31      0.00
   14   10   14     -9.07      0.00
   16   10   14     -1.33      0.00
   18   10   14     11.29      0.00
   20   10   14     -9.46      0.00
   22   10   14      1.36      0.00
    0   12   14     -3.94      0.00
    2   12   14     17.75      0.00
    4   12   14     -6.03      0.00
    6   12   14      7.65      0.00
    8   12   14    -12.65      0.00
   10   12   14      5.61      0.00
   12   12   14      2.04      0.00
   14   12   14     -6.70      0.00
   16   12   14      8.31      0.00
   18   12   14      7.96      0.00
   20   12   14      1.41      0.00
   22   12   14      0.86      0.00
    0   14   14     35.63      0.00
    2   14   14      5.12      0.00
    4   14   14     16.27      0.00
    6   14   14     17.65      0.00
    8   14   14     16.99      0.00
   10   14   14     -6.86      0.00
   12   14   14    -16.40      0.00
   14   14   14     -5.16      0.00
   16   14   14    -11.23      0.00
   18   14   14      6.24      0.00
   20   14   14      1.99      0.00
   22   14   14     16.61      0.00
    0   16   14     -2.30      0.00
    2   16   14     10.92      0.00
    4   16   14     -9.03      0.00
    6   16   14     -0.84      0.00
    8   16   14     11.02      0.00
   10   16   14     11.94      0.00
   12   16   14     -2.25      0.00
   14   16   14     -3.14      0.00
   16   16   14      3.20      0.00
   18   16   14     38.17      0.00
   20   16   14     27.42      0.00
    0   18   14    -19.81      0.00
    2   18   14      0.85      0.00
    4   18   14     20.44      0.00
    6   18   14      8.68      0.00
    8   18   14     -3.44      0.00
   10   18   14     -9.89      0.00
   12   18   14     -8.63      0.00
   14   18   14      1.65      0.00
   16   18   14     -4.40      0.00
   18   18   14     -8.14      0.00
   20   18   14     23.65      0.00
    0   20   14      4.52      0.00
    2   20   14     11.25      0.00
    4   20   14     -6.01      0.00
    6   20   14      2.83      0.00
    8   20   14     12.29      0.00
   10   20   14     -3.90      0.00
   12   20   14     -6.07      0.00
   14   20   14    -13.82      0.00
   16   20   14    -17.20      0.00
   18   20   14    -21.73      0.00
   20   20   14     -4.64      0.00
    0   22   14      4.43      0.00
    2   22   14     10.47      0.00
    4   22   14    -10.13      0.00
    6   22   14      5.20      0.00
    8   22   14      4.05      0.00
   10   22   14     11.88      0.00
   12   22   14     -3.63      0.00
   14   22   14     -3.87      0.00
   16   22   14     -3.23      0.00
   18   22   14     14.78      0.00
    0   24   14      4.61      0.00
    2   24   14     13.53      0.00
    4   24   14     -2.90      0.00
    6   24   14     -3.50      0.00
    8   24   14      2.45      0.00
   10   24   14     -8.92      0.00
   12   24   14      2.31      0.00
   14   24   14    -11.27      0.00
   16   24   14      7.54      0.00
   18   24   14     14.83      0.00
    0   26   14    -16.60      0.00
    2   26   14      6.50      0.00
    4   26   14      8.16      0.00
    6   26   14      0.58      0.00
    8   26   14      2.53      0.00
   10   26   14      9.55      0.00
   12   26   14      7.82      0.00
   14   26   14    -11.81      0.00
   16   26   14    -24.51      0.00
    0   28   14      9.84      0.00
    2   28   14     31.75      0.00
    4   28   14      3.79      0.00
    6   28   14      2.87      0.00
    8   28   14      0.37      0.00
   10   28   14    -24.05      0.00
   12   28   14     -2.65      0.00
   14   28   14     18.52      0.00
    0   30   14      1.82      0.00
    2   30   14    -12.57      0.00
    4   30   14      4.98      0.00
    6   30   14     -3.07      0.00
    8   30   14     -4.53      0.00
   10   30   14     -3.91      0.00
   12   30   14      1.15      0.00
    0   32   14      6.29      0.00
    2   32   14     10.19      0.00
    4   32   14     -7.41      0.00
    6   32   14    -21.45      0.00
    8   32   14     -9.17      0.00
   10   32   14     -5.60      0.00
    0   34   14     -2.44      0.00
    2   34   14      8.99      0.00
    4   34   14     12.16      0.00
    6   34   14     11.63      0.00
    8   34   14     -5.60      0.00
    0   36   14      1.76      0.00
    2   36   14      0.44      0.00
    4   36   14     -2.26      0.00
    1    1   15    -30.60      0.00
    3    1   15    -18.76      0.00
    5    1   15    -20.01      0.00
    7    1   15    -10.03      0.00
    9    1   15    -13.38      0.00
   11    1   15     16.35      0.00
   13    1   15     -9.25      0.00
   15    1   15      8.97      0.00
   17    1   15    -11.51      0.00
   19    1   15     -4.64      0.00
   21    1   15     13.67      0.00
   23    1   15    -31.69      0.00
    1    3   15      3.18      0.00
    3    3   15     10.48      0.00
    5    3   15     12.67      0.00
    7    3   15      3.10      0.00
    9    3   15     -6.41      0.00
   11    3   15      0.07      0.00
   13    3   15      1.22      0.00
   15    3   15     -2.55      0.00
   17    3   15      1.63      0.00
   19    3   15      0.66      0.00
   21    3   15     16.49      0.00
   23    3   15    -16.87      0.00
    1    5   15    -13.85      0.00
    3    5   15     -4.46      0.00
    5    5   15     -3.38      0.00
    7    5   15     -7.09      0.00
    9    5   15      4.95      0.00
   11    5   15     -5.12      0.00
   13    5   15      1.24      0.00
   15    5   15     -7.27      0.00
   17    5   15     -0.99      0.00
   19    5   15    -17.30      0.00
   21    5   15     17.31      0.00
   23    5   15      0.02      0.00
    1    7   15     -5.05      0.00
    3    7   15    -14.58      0.00
    5    7   15     -4.35      0.00
    7    7   15      2.55      0.00
    9    7   15     -3.77      0.00
   11    7   15      3.61      0.00
   13    7   15      6.14      0.00
   15    7   15      2.09      0.00
   17    7   15     -9.97      0.00
   19    7   15     -6.88      0.00
   21    7   15      5.47      0.00
   23    7   15     -3.35      0.00
    1    9   15    -16.83      0.00
    3    9   15      0.69      0.00
    5    9   15     -8.14      0.00
    7    9   15    -11.72      0.00
    9    9   15     -0.31      0.00
   11    9   15      4.12      0.00
   13    9   15    -14.20      0.00
   15    9   15     -5.09      0.00
   17    9   15      8.87      0.00
   19    9   15     -0.14      0.00
   21    9   15      2.51      0.00
    1   11   15     25.83      0.00
    3   11   15    -18.61      0.00
    5   11   15     -4.31      0.00
    7   11   15    -15.12      0.00
    9   11   15     -3.28      0.00
   11   11   15      8.55      0.00
   13   11   15     -7.28      0.00
   15   11   15      9.35      0.00
   17   11   15     -9.01      0.00
   19   11   15     -5.85      0.00
   21   11   15    -14.20      0.00
    1   13   15    -23.39      0.00
    3   13   15      3.33      0.00
    5   13   15    -13.11      0.00
    7   13   15     -2.35      0.00
    9   13   15     -9.12      0.00
   11   13   15     -0.44      0.00
   13   13   15     -8.92      0.00
   15   13   15     -8.30      0.00
   17   13   15      9.42      0.00
   19   13   15      5.74      0.00
   21   13   15      4.09      0.00
    1   15   15    -12.90      0.00
    3   15   15     -5.99      0.00
    5   15   15      3.80      0.00
    7   15   15      7.84      0.00
    9   15   15      6.98      0.00
   11   15   15    -15.24      0.00
   13   15   15     -0.06      0.00
   15   15   15     10.20      0.00
   17   15   15      3.08      0.00
   19   15   15      1.09      0.00
   21   15   15      7.45      0.00
    1   17   15      4.29      0.00
    3   17   15     -4.79      0.00
    5   17   15      0.62      0.00
    7   17   15     -4.96      0.00
    9   17   15     21.03      0.00
   11   17   15    -16.45      0.00
   13   17   15     -2.41      0.00
   15   17   15    -11.14      0.00
   17   17   15     -5.72      0.00
   19   17   15      8.88      0.00
    1   19   15     -9.49      0.00
    3   19   15     -3.73      0.00
    5   19   15      6.48      0.00
    7   19   15    -13.93      0.00
    9   19   15     12.56      0.00
   11   19   15     -5.50      0.00
   13   19   15      3.49      0.00
   15   19   15      7.49      0.00
   17   19   15    -12.34      0.00
   19   19   15    -12.60      0.00
    1   21   15     -5.43      0.00
    3   21   15    -13.41      0.00
    5   21   15     -8.73      0.00
    7   21   15      7.46      0.00
    9   21   15     -3.44      0.00
   11   21   15    -15.22      0.00
   13   21   15      0.96      0.00
   15   21   15    -11.54      0.00
   17   21   15     -4.41      0.00
   19   21   15      2.90      0.00
    1   23   15     -2.65      0.00
    3   23   15     -7.37      0.00
    5   23   15      0.52      0.00
    7   23   15     -1.89      0.00
    9   23   15     -2.77      0.00
   11   23   15     13.15      0.00
   13   23   15      4.18      0.00
   15   23   15     -2.05      0.00
   17   23   15     13.64      0.00
    1   25   15     -5.74      0.00
    3   25   15      2.11      0.00
    5   25   15      9.10      0.00
    7   25   15     -6.94      0.00
    9   25   15     10.51      0.00
   11   25   15    -10.16      0.00
   13   25   15     -4.32      0.00
   15   25   15    -26.25      0.00
   17   25   15     -9.29      0.00
    1   27   15    -13.71      0.00
    3   27   15     -0.50      0.00
    5   27   15     -8.48      0.00
    7   27   15     -2.90      0.00
    9   27   15     -5.59      0.00
   11   27   15    -17.05      0.00
   13   27   15     32.81      0.00
   15   27   15    -15.78      0.00
    1   29   15    -12.48      0.00
    3   29   15    -13.10      0.00
    5   29   15     -2.27      0.00
    7   29   15     -4.80      0.00
    9   29   15     17.40      0.00
   11   29   15     -5.69      0.00
   13   29   15      8.37      0.00
    1   31   15      6.48      0.00
    3   31   15     11.96      0.00
    5   31   15      9.23      0.00
    7   31   15    -11.25      0.00
    9   31   15      1.46      0.00
   11   31   15      3.14      0.00
    1   33   15    -11.71      0.00
    3   33   15     -0.46      0.00
    5   33   15      4.20      0.00
    7   33   15      0.93      0.00
    9   33   15     10.87      0.00
    1   35   15     -4.49      0.00
    3   35   15      3.23      0.00
    5   35   15     -7.79      0.00
    0    0   16     44.64      0.00
    2    0   16      5.13      0.00
    4    0   16      1.29      0.00
    6    0   16     -3.55      0.00
    8    0   16      8.02      0.00
   10    0   16     10.57      0.00
   12    0   16     -5.60      0.00
   14    0   16     -5.45      0.00
   16    0   16    -16.47      0.00
   18    0   16      5.68      0.00
   20    0   16      7.32      0.00
   22    0   16      4.59      0.00
    0    2   16    -42.68      0.00
    2    2   16    -10.38      0.00
    6    2   16      8.46      0.00
    8    2   16    -10.43      0.00
   10    2   16     -4.67      0.00
   12    2   16      5.81      0.00
   14    2   16      2.35      0.00
   16    2   16    -16.09      0.00
   18    2   16      5.54      0.00
   20    2   16     -5.94      0.00
   22    2   16      2.57      0.00
    0    4   16     13.98      0.00
    2    4   16     -0.03      0.00
    4    4   16      1.35      0.00
    6    4   16     -5.50      0.00
    8    4   16    -18.60      0.00
   10    4   16     -2.09      0.00
   12    4   16      4.90      0.00
   14    4   16      2.92      0.00
   16    4   16      8.65      0.00
   18    4   16      0.67      0.00
   20    4   16    -18.83      0.00
   22    4   16     14.39      0.00
    0    6   16    -38.01      0.00
    2    6   16     -8.37      0.00
    4    6   16     -4.38      0.00
    6    6   16     -0.63      0.00
    8    6   16      2.06      0.00
   10    6   16    -11.65      0.00
   12    6   16     -9.49      0.00
   14    6   16      1.00      0.00
   16    6   16    -14.92      0.00
   18    6   16      5.75      0.00
   20    6   16      9.42      0.00
   22    6   16     23.88      0.00
    0    8   16     11.43      0.00
    2    8   16    -18.16      0.00
    4    8   16    -14.71      0.00
    6    8   16      1.64      0.00
    8    8   16     -6.47      0.00
   10    8   16      3.14      0.00
   12    8   16      5.05      0.00
   14    8   16     17.79      0.00
   16    8   16     -1.31      0.00
   18    8   16     -2.28      0.00
   20    8   16    -11.66      0.00
   22    8   16      2.35      0.00
    0   10   16      4.46      0.00
    2   10   16     12.03      0.00
    4   10   16    -13.66      0.00
    6   10   16      4.57      0.00
    8   10   16      0.64      0.00
   10   10   16      6.15      0.00
   12   10   16      0.35      0.00
   14   10   16    -18.76      0.00
   16   10   16     -1.94      0.00
   18   10   16     11.65      0.00
   20   10   16     -8.79      0.00
   22   10   16     -2.26      0.00
    0   12   16    -42.51      0.00
    2   12   16     11.47      0.00
    4   12   16     -7.87      0.00
    6   12   16     22.85      0.00
    8   12   16    -11.94      0.00
   10   12   16    -12.32      0.00
   12   12   16      4.80      0.00
   14   12   16      5.18      0.00
   16   12   16     12.84      0.00
   18   12   16     -9.28      0.00
   20   12   16    -11.01      0.00
    0   14   16     16.12      0.00
    2   14   16     11.95      0.00
    4   14   16     -9.56      0.00
    6   14   16      4.38      0.00
    8   14   16     10.76      0.00
   10   14   16     -7.71      0.00
   12   14   16      9.84      0.00
   14   14   16      7.00      0.00
   16   14   16      8.07      0.00
   18   14   16      3.85      0.00
   20   14   16     -9.41      0.00
    0   16   16    -14.03      0.00
    2   16   16     11.16      0.00
    4   16   16    -11.36      0.00
    6   16   16      7.25      0.00
    8   16   16     -2.04      0.00
   10   16   16     -6.04      0.00
   12   16   16     -5.14      0.00
   14   16   16    -15.61      0.00
   16   16   16     -0.25      0.00
   18   16   16      5.76      0.00
   20   16   16    -12.32      0.00
    0   18   16    -19.01      0.00
    2   18   16     -4.62      0.00
    4   18   16     -8.29      0.00
    6   18   16      1.08      0.00
    8   18   16     17.79      0.00
   10   18   16     -4.80      0.00
   12   18   16      1.98      0.00
   14   18   16     -7.71      0.00
   16   18   16     13.39      0.00
   18   18   16     -9.44      0.00
   20   18   16     -1.54      0.00
    0   20   16      3.80      0.00
    2   20   16      8.07      0.00
    4   20   16     -6.29      0.00
    6   20   16      6.23      0.00
    8   20   16     -8.96      0.00
   10   20   16     11.63      0.00
   12   20   16      2.36      0.00
   14   20   16     -1.02      0.00
   16   20   16      9.03      0.00
   18   20   16     -6.99      0.00
    0   22   16     -0.01      0.00
    2   22   16      5.80      0.00
    4   22   16     -8.42      0.00
    6   22   16      2.56      0.00
    8   22   16     -8.31      0.00
   10   22   16      7.64      0.00
   12   22   16     -0.93      0.00
   14   22   16      3.17      0.00
   16   22   16      4.13      0.00
   18   22   16      6.46      0.00
    0   24   16    -15.77      0.00
    2   24   16    -13.24      0.00
    4   24   16     -6.73      0.00
    6   24   16      4.30      0.00
    8   24   16    -13.78      0.00
   10   24   16    -18.31      0.00
   12   24   16     -0.29      0.00
   14   24   16      3.39      0.00
   16   24   16     -7.96      0.00
    0   26   16    -16.37      0.00
    2   26   16    -12.98      0.00
    4   26   16    -17.92      0.00
    6   26   16     -1.03      0.00
    8   26   16     -1.22      0.00
   10   26   16      6.73      0.00
   12   26   16     -4.75      0.00
   14   26   16     -2.19      0.00
    0   28   16    -11.69      0.00
    2   28   16     -8.50      0.00
    4   28   16     -4.70      0.00
    6   28   16      5.27      0.00
    8   28   16      5.67      0.00
   10   28   16      7.94      0.00
   12   28   16     -2.85      0.00
   14   28   16     20.95      0.00
    0   30   16     16.82      0.00
    2   30   16    -16.04      0.00
    4   30   16     -6.77      0.00
    6   30   16     -3.41      0.00
    8   30   16    -29.12      0.00
   10   30   16      4.90      0.00
   12   30   16     -3.44      0.00
    0   32   16    -18.21      0.00
    2   32   16    -17.41      0.00
    4   32   16      7.67      0.00
    6   32   16     10.42      0.00
    8   32   16     26.47      0.00
   10   32   16     18.58      0.00
    0   34   16     -1.15      0.00
    2   34   16     -4.01      0.00
    4   34   16     -4.09      0.00
    6   34   16     13.74      0.00
    1    1   17     27.16      0.00
    3    1   17     24.20      0.00
    5    1   17      8.35      0.00
    7    1   17     17.03      0.00
    9    1   17     19.11      0.00
   11    1   17      0.32      0.00
   13    1   17     -5.29      0.00
   15    1   17     -1.91      0.00
   17    1   17    -11.15      0.00
   19    1   17      0.53      0.00
   21    1   17      5.62      0.00
    1    3   17     -0.44      0.00
    3    3   17    -14.24      0.00
    5    3   17    -12.75      0.00
    7    3   17    -30.88      0.00
    9    3   17     -4.40      0.00
   11    3   17     -2.16      0.00
   13    3   17      0.47      0.00
   15    3   17      1.96      0.00
   17    3   17      3.55      0.00
   19    3   17      2.09      0.00
   21    3   17      6.89      0.00
    1    5   17      5.48      0.00
    3    5   17     10.09      0.00
    5    5   17      7.68      0.00
    7    5   17     -2.64      0.00
    9    5   17     15.02      0.00
   11    5   17     -4.66      0.00
   13    5   17      4.73      0.00
   15    5   17      6.13      0.00
   17    5   17     11.32      0.00
   19    5   17     -5.54      0.00
   21    5   17      1.18      0.00
    1    7   17     30.30      0.00
    3    7   17      9.79      0.00
    5    7   17     13.66      0.00
    7    7   17      4.18      0.00
    9    7   17     19.96      0.00
   11    7   17    -16.70      0.00
   13    7   17    -11.87      0.00
   15    7   17      8.77      0.00
   17    7   17     -2.54      0.00
   19    7   17     -6.33      0.00
   21    7   17      5.80      0.00
    1    9   17    -11.50      0.00
    3    9   17      8.18      0.00
    5    9   17     -3.73      0.00
    7    9   17      4.32      0.00
    9    9   17     13.16      0.00
   11    9   17      1.12      0.00
   13    9   17      2.75      0.00
   15    9   17      2.86      0.00
   17    9   17      5.53      0.00
   19    9   17     13.58      0.00
   21    9   17      3.28      0.00
    1   11   17     20.45      0.00
    3   11   17     -1.37      0.00
    5   11   17      9.75      0.00
    7   11   17     -3.92      0.00
    9   11   17     -3.61      0.00
   11   11   17     -8.25      0.00
   13   11   17      0.88      0.00
   15   11   17     -2.17      0.00
   17   11   17      2.11      0.00
   19   11   17     11.50      0.00
   21   11   17     -1.56      0.00
    1   13   17     29.07      0.00
    3   13   17      7.37      0.00
    5   13   17      0.90      0.00
    7   13   17     12.82      0.00
    9   13   17      3.26      0.00
   11   13   17      3.80      0.00
   13   13   17     10.36      0.00
   15   13   17      1.88      0.00
   17   13   17     23.97      0.00
   19   13   17     -4.94      0.00
   21   13   17     -2.17      0.00
    1   15   17    -14.99      0.00
    3   15   17     15.74      0.00
    5   15   17      0.30      0.00
    7   15   17     -0.28      0.00
    9   15   17      2.76      0.00
   11   15   17     -5.77      0.00
   13   15   17     15.05      0.00
   15   15   17      2.95      0.00
   17   15   17     -4.34      0.00
   19   15   17     -4.57      0.00
    1   17   17     20.29      0.00
    3   17   17     -3.95      0.00
    5   17   17      8.69      0.00
    7   17   17      5.19      0.00
    9   17   17      7.80      0.00
   11   17   17     -6.92      0.00
   13   17   17      2.99      0.00
   15   17   17    -23.26      0.00
   17   17   17      6.19      0.00
   19   17   17     14.49      0.00
    1   19   17      9.74      0.00
    3   19   17      2.53      0.00
    5   19   17      3.92      0.00
    7   19   17     -9.40      0.00
    9   19   17     17.81      0.00
   11   19   17      0.02      0.00
   13   19   17      1.81      0.00
   15   19   17     -1.84      0.00
   17   19   17     20.10      0.00
   19   19   17     -2.52      0.00
    1   21   17     -5.97      0.00
    3   21   17      7.69      0.00
    5   21   17      2.24      0.00
    7   21   17     -5.69      0.00
    9   21   17     -0.15      0.00
   11   21   17      7.40      0.00
   13   21   17     10.88      0.00
   15   21   17     -4.35      0.00
   17   21   17    -11.07      0.00
    1   23   17     13.05      0.00
    3   23   17     -3.39      0.00
    5   23   17      2.95      0.00
    7   23   17      5.96      0.00
    9   23   17     10.23      0.00
   11   23   17    -21.05      0.00
   13   23   17    -12.65      0.00
   15   23   17     -2.28      0.00
   17   23   17      0.70      0.00
    1   25   17     -0.49      0.00
    3   25   17     -4.60      0.00
    5   25   17      2.71      0.00
    7   25   17     -1.75      0.00
    9   25   17     10.86      0.00
   11   25   17     -4.55      0.00
   13   25   17     14.76      0.00
   15   25   17     -2.41      0.00
    1   27   17      5.48      0.00
    3   27   17     -3.91      0.00
    5   27   17    -19.18      0.00
    7   27   17     -0.09      0.00
    9   27   17      3.06      0.00
   11   27   17     -4.75      0.00
   13   27   17     18.65      0.00
    1   29   17      2.45      0.00
    3   29   17     -9.38      0.00
    5   29   17      9.51      0.00
    7   29   17     -4.57      0.00
    9   29   17     -1.42      0.00
   11   29   17    -17.22      0.00
    1   31   17     -6.80      0.00
    3   31   17     -8.87      0.00
    5   31   17     -9.51      0.00
    7   31   17     -1.05      0.00
    9   31   17      6.18      0.00
    1   33   17      3.19      0.00
    3   33   17      1.54      0.00
    5   33   17      2.17      0.00
    7   33   17     16.08      0.00
    1   35   17      1.19      0.00
    3   35   17     -6.78      0.00
    0    0   18    -26.50      0.00
    2    0   18     -6.35      0.00
    4    0   18    -27.60      0.00
    8    0   18    -10.38      0.00
   10    0   18     -3.16      0.00
   12    0   18     16.76      0.00
   14    0   18      1.98      0.00
   16    0   18     -1.45      0.00
   18    0   18      1.40      0.00
   20    0   18     12.53      0.00
   22    0   18     11.70      0.00
    0    2   18     -9.77      0.00
    2    2   18     13.27      0.00
    4    2   18      4.83      0.00
    6    2   18     18.66      0.00
    8    2   18      2.84      0.00
   10    2   18     -2.57      0.00
   12    2   18     -5.48      0.00
   14    2   18     14.30      0.00
   16    2   18      0.16      0.00
   18    2   18     14.20      0.00
   20    2   18      3.03      0.00
   22    2   18     -3.77      0.00
    0    4   18      3.72      0.00
    2    4   18     18.81      0.00
    4    4   18     -2.74      0.00
    6    4   18      9.17      0.00
    8    4   18     11.17      0.00
   10    4   18     21.75      0.00
   12    4   18      2.04      0.00
   14    4   18    -15.43      0.00
   16    4   18     -2.17      0.00
   18    4   18    -12.03      0.00
   20    4   18     -1.24      0.00
   22    4   18     16.14      0.00
    0    6   18    -15.94      0.00
    2    6   18      0.29      0.00
    4    6   18     -7.51      0.00
    6    6   18     -2.45      0.00
    8    6   18      3.58      0.00
   10    6   18     -5.92      0.00
   12    6   18     -5.56      0.00
   14    6   18      5.70      0.00
   16    6   18     22.29      0.00
   18    6   18     10.18      0.00
   20    6   18     -5.78      0.00
   22    6   18    -18.85      0.00
    0    8   18    -10.66      0.00
    2    8   18     -7.66      0.00
    4    8   18     -2.15      0.00
    6    8   18     -3.23      0.00
    8    8   18     -2.00      0.00
   10    8   18     12.57      0.00
   12    8   18    -11.60      0.00
   14    8   18      1.99      0.00
   16    8   18     -4.56      0.00
   18    8   18     12.56      0.00
   20    8   18      3.71      0.00
    0   10   18     15.91      0.00
    2   10   18     14.67      0.00
    4   10   18      5.59      0.00
    6   10   18      5.09      0.00
    8   10   18     -2.41      0.00
   10   10   18      5.82      0.00
   12   10   18     -2.43      0.00
   14   10   18     -1.27      0.00
   16   10   18      1.74      0.00
   18   10   18      8.95      0.00
   20   10   18     -2.90      0.00
    0   12   18    -29.08      0.00
    2   12   18      0.13      0.00
    4   12   18    -23.22      0.00
    6   12   18     -8.18      0.00
    8   12   18     -9.61      0.00
   10   12   18     -2.00      0.00
   12   12   18     -7.05      0.00
   14   12   18    -11.01      0.00
   16   12   18     -4.51      0.00
   18   12   18      7.36      0.00
   20   12   18      7.50      0.00
    0   14   18      9.76      0.00
    2   14   18      4.14      0.00
    4   14   18    -10.39      0.00
    6   14   18      2.46      0.00
    8   14   18     -0.66      0.00
   12   14   18      3.88      0.00
   14   14   18     -2.62      0.00
   16   14   18     -8.31      0.00
   18   14   18     -0.24      0.00
   20   14   18      3.09      0.00
    0   16   18    -13.38      0.00
    2   16   18      7.70      0.00
    4   16   18     10.97      0.00
    6   16   18      8.88      0.00
    8   16   18     -4.13      0.00
   10   16   18     -9.69      0.00
   12   16   18      6.57      0.00
   14   16   18      7.96      0.00
   16   16   18      0.59      0.00
   18   16   18     -3.02      0.00
    0   18   18     -6.91      0.00
    2   18   18     -9.20      0.00
    4   18   18      0.00      0.00
    6   18   18    -11.78      0.00
    8   18   18      5.95      0.00
   10   18   18    -19.78      0.00
   12   18   18      7.54      0.00
   14   18   18     -8.79      0.00
   16   18   18     -1.08      0.00
   18   18   18     -4.51      0.00
    0   20   18      6.56      0.00
    2   20   18     12.11      0.00
    4   20   18     -1.18      0.00
    6   20   18     -1.41      0.00
    8   20   18      2.49      0.00
   10   20   18      7.27      0.00
   12   20   18     -6.50      0.00
   14   20   18     -2.37      0.00
   16   20   18    -14.87      0.00
   18   20   18     -9.07      0.00
    0   22   18     -8.63      0.00
    2   22   18      0.47      0.00
    4   22   18     10.50      0.00
    6   22   18     13.80      0.00
    8   22   18      9.54      0.00
   10   22   18     -4.32      0.00
   12   22   18    -19.65      0.00
   14   22   18     -0.07      0.00
   16   22   18      1.52      0.00
    0   24   18     -3.90      0.00
    2   24   18     -3.65      0.00
    4   24   18     -9.85      0.00
    6   24   18     -4.41      0.00
    8   24   18     20.56      0.00
   10   24   18     -1.56      0.00
   12   24   18     -6.70      0.00
   14   24   18      7.90      0.00
   16   24   18     -4.68      0.00
    0   26   18      8.49      0.00
    2   26   18     12.35      0.00
    4   26   18     -5.27      0.00
    6   26   18      2.80      0.00
    8   26   18      7.77      0.00
   10   26   18      8.60      0.00
   12   26   18     -7.55      0.00
   14   26   18      0.77      0.00
    0   28   18      4.62      0.00
    2   28   18     16.19      0.00
    4   28   18     15.41      0.00
    6   28   18      1.24      0.00
    8   28   18     -8.19      0.00
   10   28   18      7.54      0.00
   12   28   18      4.58      0.00
    0   30   18     -9.30      0.00
    2   30   18    -11.67      0.00
    4   30   18     -3.36      0.00
    6   30   18     21.01      0.00
    8   30   18     27.00      0.00
   10   30   18     15.83      0.00
    0   32   18     25.21      0.00
    2   32   18     11.32      0.00
    4   32   18      5.97      0.00
    6   32   18    -23.43      0.00
    8   32   18      8.42      0.00
    0   34   18     -9.21      0.00
    2   34   18      9.08      0.00
    4   34   18     -0.81      0.00
    6   34   18     -0.68      0.00
    1    1   19     -0.69      0.00
    3    1   19     -6.13      0.00
    5    1   19     -4.11      0.00
    7    1   19     10.83      0.00
    9    1   19    -10.27      0.00
   11    1   19     -0.51      0.00
   13    1   19      2.16      0.00
   15    1   19      5.91      0.00
   17    1   19      3.09      0.00
   19    1   19      0.71      0.00
   21    1   19      2.62      0.00
    1    3   19    -10.02      0.00
    3    3   19    -10.74      0.00
    5    3   19     -1.03      0.00
    7    3   19     -2.25      0.00
    9    3   19     -7.16      0.00
   11    3   19      9.40      0.00
   13    3   19     -0.25      0.00
   15    3   19     -0.90      0.00
   17    3   19     -6.58      0.00
   19    3   19      6.70      0.00
   21    3   19      4.25      0.00
    1    5   19    -13.85      0.00
    3    5   19    -22.61      0.00
    5    5   19     14.50      0.00
    7    5   19     28.80      0.00
    9    5   19     -7.76      0.00
   11    5   19     -5.82      0.00
   13    5   19     -0.27      0.00
   15    5   19     -2.79      0.00
   17    5   19      7.31      0.00
   19    5   19     14.09      0.00
   21    5   19      1.75      0.00
    1    7   19     11.53      0.00
    3    7   19     -7.55      0.00
    5    7   19      1.11      0.00
    7    7   19    -10.41      0.00
    9    7   19      0.48      0.00
   11    7   19      7.84      0.00
   13    7   19     -5.36      0.00
   15    7   19     -4.64      0.00
   17    7   19      0.69      0.00
   19    7   19    -19.48      0.00
   21    7   19    -11.63      0.00
    1    9   19    -21.25      0.00
    3    9   19     -5.68      0.00
    5    9   19     -7.76      0.00
    7    9   19     -1.37      0.00
    9    9   19    -19.29      0.00
   11    9   19      0.31      0.00
   13    9   19     -5.74      0.00
   15    9   19     -0.64      0.00
   17    9   19      1.00      0.00
   19    9   19     11.94      0.00
   21    9   19      1.37      0.00
    1   11   19    -13.98      0.00
    3   11   19    -18.12      0.00
    5   11   19     -4.90      0.00
    7   11   19     -0.27      0.00
    9   11   19    -11.12      0.00
   11   11   19     10.92      0.00
   13   11   19     -2.66      0.00
   15   11   19    -11.20      0.00
   17   11   19     -0.52      0.00
   19   11   19      6.22      0.00
    1   13   19     10.94      0.00
    3   13   19    -10.10      0.00
    5   13   19      1.71      0.00
    7   13   19      4.91      0.00
    9   13   19    -16.71      0.00
   11   13   19     10.23      0.00
   13   13   19    -10.33      0.00
   15   13   19    -23.05      0.00
   17   13   19      1.47      0.00
   19   13   19     -6.85      0.00
    1   15   19    -20.97      0.00
    3   15   19     -1.00      0.00
    5   15   19     -4.94      0.00
    7   15   19     -0.07      0.00
    9   15   19    -22.61      0.00
   11   15   19    -29.00      0.00
   13   15   19    -16.21      0.00
   15   15   19     -0.08      0.00
   17   15   19    -15.98      0.00
   19   15   19    -17.50      0.00
    1   17   19     -2.28      0.00
    3   17   19    -11.61      0.00
    5   17   19      6.44      0.00
    7   17   19     -3.65      0.00
    9   17   19    -10.74      0.00
   11   17   19     15.81      0.00
   13   17   19     16.24      0.00
   15   17   19      6.93      0.00
   17   17   19      6.55      0.00
   19   17   19    -11.26      0.00
    1   19   19     -5.36      0.00
    3   19   19      1.87      0.00
    5   19   19     11.15      0.00
    7   19   19     -2.63      0.00
    9   19   19     -1.83      0.00
   11   19   19    -10.20      0.00
   13   19   19      8.84      0.00
   15   19   19      0.55      0.00
   17   19   19      4.93      0.00
    1   21   19     -2.44      0.00
    3   21   19     -2.37      0.00
    5   21   19      5.03      0.00
    7   21   19      8.55      0.00
    9   21   19    -17.87      0.00
   11   21   19    -11.81      0.00
   13   21   19     -6.25      0.00
   15   21   19     -4.67      0.00
   17   21   19      2.15      0.00
    1   23   19      1.22      0.00
    3   23   19     -1.30      0.00
    5   23   19     15.13      0.00
    7   23   19     10.32      0.00
    9   23   19     24.64      0.00
   11   23   19     -7.87      0.00
   13   23   19    -18.42      0.00
   15   23   19      2.09      0.00
    1   25   19     -5.37      0.00
    3   25   19     -1.98      0.00
    5   25   19     18.57      0.00
    7   25   19      6.19      0.00
    9   25   19     -2.12      0.00
   11   25   19      6.27      0.00
   13   25   19     20.46      0.00
    1   27   19      7.22      0.00
    3   27   19      4.96      0.00
    5   27   19     21.14      0.00
    7   27   19     -1.90      0.00
    9   27   19    -14.95      0.00
   11   27   19     10.29      0.00
   13   27   19      7.18      0.00
    1   29   19      2.46      0.00
    3   29   19     -4.03      0.00
    5   29   19     22.05      0.00
    7   29   19     18.40      0.00
    9   29   19     16.81      0.00
   11   29   19      6.33      0.00
    1   31   19      2.83      0.00
    3   31   19     -1.22      0.00
    5   31   19     13.14      0.00
    7   31   19     -0.60      0.00
    9   31   19     -6.39      0.00
    1   33   19      3.01      0.00
    3   33   19     -0.61      0.00
    5   33   19     -5.44      0.00
    7   33   19      6.58      0.00
    0    0   20      1.88      0.00
    2    0   20     23.68      0.00
    4    0   20    -16.17      0.00
    6    0   20      3.21      0.00
    8    0   20      5.57      0.00
   10    0   20    -11.19      0.00
   12    0   20     11.93      0.00
   14    0   20      4.25      0.00
   16    0   20      7.73      0.00
   18    0   20     -4.07      0.00
   20    0   20     -3.72      0.00
   22    0   20      2.51      0.00
    0    2   20      2.46      0.00
    2    2   20      3.90      0.00
    4    2   20     -0.57      0.00
    6    2   20     11.10      0.00
    8    2   20      7.16      0.00
   10    2   20      3.86      0.00
   12    2   20    -19.89      0.00
   14    2   20      2.55      0.00
   16    2   20     -4.56      0.00
   18    2   20      5.88      0.00
   20    2   20    -10.58      0.00
    0    4   20      7.03      0.00
    2    4   20     26.14      0.00
    4    4   20     -0.29      0.00
    6    4   20      9.63      0.00
    8    4   20     -2.67      0.00
   10    4   20      6.25      0.00
   12    4   20     -0.65      0.00
   14    4   20     -2.69      0.00
   16    4   20      4.97      0.00
   18    4   20      2.69      0.00
   20    4   20      9.91      0.00
    0    6   20     -2.42      0.00
    2    6   20     -8.11      0.00
    4    6   20    -11.34      0.00
    6    6   20     10.54      0.00
    8    6   20     -2.21      0.00
   10    6   20     -6.81      0.00
   12    6   20      1.44      0.00
   14    6   20      7.83      0.00
   16    6   20     -9.17      0.00
   18    6   20    -19.90      0.00
   20    6   20      8.06      0.00
    0    8   20     -0.76      0.00
    2    8   20     -3.89      0.00
    4    8   20      0.68      0.00
    6    8   20     -3.40      0.00
    8    8   20     -7.14      0.00
   10    8   20      0.42      0.00
   12    8   20     -7.66      0.00
   14    8   20      7.21      0.00
   16    8   20     -3.81      0.00
   18    8   20     17.97      0.00
   20    8   20      8.34      0.00
    0   10   20     23.77      0.00
    2   10   20      8.53      0.00
    4   10   20     10.35      0.00
    6   10   20      7.92      0.00
    8   10   20    -14.47      0.00
   10   10   20      9.35      0.00
   12   10   20     -5.69      0.00
   14   10   20      3.14      0.00
   16   10   20     -5.91      0.00
   18   10   20      4.49      0.00
   20   10   20     -2.26      0.00
    0   12   20    -19.00      0.00
    2   12   20      3.66      0.00
    4   12   20     -4.32      0.00
    6   12   20      4.59      0.00
   10   12   20      2.81      0.00
   12   12   20    -12.54      0.00
   14   12   20      4.21      0.00
   16   12   20    -22.50      0.00
   18   12   20     -6.17      0.00
   20   12   20      8.36      0.00
    0   14   20      4.26      0.00
    2   14   20      1.85      0.00
    4   14   20     -3.28      0.00
    6   14   20     11.47      0.00
    8   14   20    -17.51      0.00
   10   14   20      0.51      0.00
   12   14   20    -20.52      0.00
   14   14   20      7.09      0.00
   16   14   20      1.28      0.00
   18   14   20     13.25      0.00
    0   16   20     14.56      0.00
    2   16   20     14.90      0.00
    4   16   20     -0.80      0.00
    6   16   20      1.21      0.00
    8   16   20      0.22      0.00
   10   16   20     -0.56      0.00
   12   16   20    -10.62      0.00
   14   16   20      7.43      0.00
   16   16   20     -7.53      0.00
   18   16   20    -11.26      0.00
    0   18   20     -9.94      0.00
    2   18   20    -10.58      0.00
    4   18   20      8.05      0.00
    6   18   20    -11.10      0.00
    8   18   20      0.26      0.00
   10   18   20      5.21      0.00
   12   18   20    -13.99      0.00
   14   18   20     16.22      0.00
   16   18   20     10.39      0.00
   18   18   20    -11.58      0.00
    0   20   20      2.56      0.00
    2   20   20     12.75      0.00
    4   20   20      9.15      0.00
    6   20   20      1.81      0.00
    8   20   20     13.49      0.00
   10   20   20     20.39      0.00
   12   20   20    -15.52      0.00
   14   20   20     10.94      0.00
   16   20   20     -1.55      0.00
    0   22   20     -0.92      0.00
    2   22   20     -2.40      0.00
    4   22   20      8.92      0.00
    6   22   20     -3.45      0.00
    8   22   20    -12.32      0.00
   10   22   20      3.93      0.00
   12   22   20     -3.44      0.00
   14   22   20      8.40      0.00
   16   22   20      8.84      0.00
    0   24   20     12.68      0.00
    2   24   20      6.36      0.00
    4   24   20     14.10      0.00
    6   24   20      2.62      0.00
    8   24   20     26.39      0.00
   10   24   20      7.00      0.00
   12   24   20     -3.35      0.00
   14   24   20      3.53      0.00
    0   26   20      6.79      0.00
    2   26   20      0.36      0.00
    4   26   20     17.99      0.00
    6   26   20      8.88      0.00
    8   26   20     -0.53      0.00
   10   26   20     -9.83      0.00
   12   26   20     -2.43      0.00
    0   28   20     -3.23      0.00
    2   28   20     -1.99      0.00
    4   28   20     -2.53      0.00
    6   28   20    -10.31      0.00
    8   28   20    -34.89      0.00
   10   28   20      5.80      0.00
   12   28   20     10.45      0.00
    0   30   20      5.91      0.00
    2   30   20     -4.41      0.00
    4   30   20     -1.67      0.00
    6   30   20      9.80      0.00
    8   30   20      5.91      0.00
   10   30   20     -2.08      0.00
    0   32   20     12.84      0.00
    2   32   20     -8.82      0.00
    4   32   20     -1.82      0.00
    6   32   20     -6.11      0.00
    8   32   20     -4.27      0.00
    1    1   21     11.39      0.00
    3    1   21      2.88      0.00
    5    1   21     -1.79      0.00
    7    1   21     13.90      0.00
    9    1   21     -0.31      0.00
   11    1   21      5.84      0.00
   13    1   21    -11.79      0.00
   15    1   21     -3.08      0.00
   17    1   21      6.34      0.00
   19    1   21      4.49      0.00
   21    1   21     -4.62      0.00
    1    3   21     -6.90      0.00
    3    3   21      1.66      0.00
    5    3   21    -21.10      0.00
    7    3   21    -11.25      0.00
    9    3   21     -4.93      0.00
   11    3   21     17.60      0.00
   13    3   21     -2.81      0.00
   15    3   21      5.81      0.00
   17    3   21      1.66      0.00
   19    3   21     -6.56      0.00
   21    3   21     -7.77      0.00
    1    5   21      6.62      0.00
    3    5   21     -2.57      0.00
    5    5   21     15.33      0.00
    7    5   21      5.84      0.00
    9    5   21      2.82      0.00
   11    5   21      6.47      0.00
   13    5   21      3.62      0.00
   15    5   21     -5.43      0.00
   17    5   21     -4.72      0.00
   19    5   21     16.79      0.00
   21    5   21     -5.64      0.00
    1    7   21      7.61      0.00
    3    7   21     -3.63      0.00
    5    7   21    -15.77      0.00
    7    7   21    -29.27      0.00
    9    7   21      1.67      0.00
   11    7   21     -2.09      0.00
   13    7   21      2.28      0.00
   15    7   21      3.68      0.00
   17    7   21      4.57      0.00
   19    7   21     -8.09      0.00
    1    9   21     -2.36      0.00
    3    9   21      0.74      0.00
    5    9   21     -4.23      0.00
    7    9   21      5.81      0.00
    9    9   21     -5.48      0.00
   11    9   21      0.01      0.00
   13    9   21      0.81      0.00
   15    9   21     -3.56      0.00
   17    9   21     -3.61      0.00
   19    9   21     11.31      0.00
    1   11   21     -3.90      0.00
    3   11   21      8.46      0.00
    5   11   21      1.71      0.00
    7   11   21      2.29      0.00
    9   11   21      3.23      0.00
   11   11   21      8.88      0.00
   13   11   21     -6.82      0.00
   15   11   21      9.99      0.00
   17   11   21     12.60      0.00
   19   11   21     11.22      0.00
    1   13   21      6.67      0.00
    3   13   21     -1.59      0.00
    5   13   21      1.65      0.00
    7   13   21      7.04      0.00
    9   13   21     -0.10      0.00
   11   13   21      9.87      0.00
   13   13   21      1.74      0.00
   15   13   21      0.66      0.00
   17   13   21      3.95      0.00
   19   13   21     -4.77      0.00
    1   15   21     19.90      0.00
    3   15   21      6.34      0.00
    5   15   21    -11.61      0.00
    7   15   21     -1.70      0.00
    9   15   21     -8.50      0.00
   11   15   21    -14.82      0.00
   13   15   21    -16.98      0.00
   15   15   21      3.77      0.00
   17   15   21      0.84      0.00
   19   15   21     -4.57      0.00
    1   17   21      5.13      0.00
    3   17   21     -5.37      0.00
    5   17   21     -1.53      0.00
    7   17   21      8.19      0.00
    9   17   21      7.70      0.00
   11   17   21      6.78      0.00
   13   17   21     -7.24      0.00
   15   17   21     -7.80      0.00
   17   17   21     11.54      0.00
    1   19   21      2.28      0.00
    3   19   21      8.92      0.00
    5   19   21     -9.07      0.00
    7   19   21     -0.72      0.00
    9   19   21     13.20      0.00
   11   19   21      1.54      0.00
   13   19   21      5.33      0.00
   15   19   21      5.70      0.00
   17   19   21     17.98      0.00
    1   21   21      2.59      0.00
    3   21   21     12.41      0.00
    5   21   21     -7.05      0.00
    7   21   21     13.29      0.00
    9   21   21     -9.27      0.00
   11   21   21      9.00      0.00
   13   21   21     -7.59      0.00
   15   21   21    -10.25      0.00
    1   23   21      3.00      0.00
    3   23   21      0.37      0.00
    5   23   21    -19.62      0.00
    7   23   21     -8.00      0.00
    9   23   21     -2.65      0.00
   11   23   21     -2.69      0.00
   13   23   21    -14.81      0.00
   15   23   21     -2.98      0.00
    1   25   21     10.78      0.00
    3   25   21      7.71      0.00
    5   25   21    -23.17      0.00
    7   25   21      6.29      0.00
    9   25   21     -6.11      0.00
   11   25   21     -1.18      0.00
   13   25   21     14.46      0.00
    1   27   21     -1.00      0.00
    3   27   21      5.40      0.00
    5   27   21      8.00      0.00
    7   27   21     10.34      0.00
    9   27   21     13.78      0.00
   11   27   21     13.13      0.00
    1   29   21      8.77      0.00
    3   29   21     -1.47      0.00
    5   29   21    -17.76      0.00
    7   29   21    -32.50      0.00
    9   29   21    -16.09      0.00
    1   31   21      4.10      0.00
    3   31   21     -0.14      0.00
    5   31   21      6.02      0.00
    7   31   21    -17.62      0.00
    1   33   21    -11.13      0.00
    3   33   21     -1.82      0.00
    0    0   22    -23.41      0.00
    2    0   22      0.43      0.00
    4    0   22    -21.87      0.00
    6    0   22      2.65      0.00
    8    0   22     -1.17      0.00
   10    0   22      2.18      0.00
   12    0   22     11.94      0.00
   14    0   22    -11.21      0.00
   16    0   22    -12.86      0.00
   18    0   22    -12.93      0.00
   20    0   22     32.98      0.00
    0    2   22     -3.55      0.00
    2    2   22     -4.67      0.00
    4    2   22     -1.39      0.00
    6    2   22     -0.13      0.00
    8    2   22     -9.73      0.00
   10    2   22      4.42      0.00
   12    2   22     -6.94      0.00
   14    2   22      2.56      0.00
   16    2   22      4.99      0.00
   18    2   22      1.50      0.00
   20    2   22     -4.14      0.00
    0    4   22    -13.99      0.00
    2    4   22     -0.18      0.00
    4    4   22    -10.65      0.00
    6    4   22     -4.02      0.00
    8    4   22      1.21      0.00
   10    4   22     14.27      0.00
   12    4   22      4.75      0.00
   14    4   22     -3.35      0.00
   16    4   22     -5.90      0.00
   18    4   22     -2.73      0.00
   20    4   22      9.90      0.00
    0    6   22     -5.97      0.00
    2    6   22     -5.87      0.00
    4    6   22     -9.21      0.00
    6    6   22    -22.29      0.00
    8    6   22    -21.51      0.00
   10    6   22     -1.44      0.00
   12    6   22     -3.63      0.00
   14    6   22      0.80      0.00
   16    6   22     -9.01      0.00
   18    6   22    -16.83      0.00
   20    6   22     10.68      0.00
    0    8   22     -9.41      0.00
    2    8   22     -6.23      0.00
    4    8   22      5.92      0.00
    6    8   22      5.90      0.00
    8    8   22     14.32      0.00
   10    8   22     -2.53      0.00
   12    8   22      7.42      0.00
   14    8   22      9.37      0.00
   16    8   22      4.62      0.00
   18    8   22     14.16      0.00
   20    8   22      4.06      0.00
    0   10   22     -4.86      0.00
    2   10   22     -6.47      0.00
    4   10   22     -3.33      0.00
    6   10   22     -9.44      0.00
    8   10   22     -8.16      0.00
   10   10   22      8.96      0.00
   12   10   22     -6.59      0.00
   14   10   22     -2.33      0.00
   16   10   22     -3.42      0.00
   18   10   22      0.15      0.00
    0   12   22    -14.80      0.00
    2   12   22      2.75      0.00
    4   12   22     -6.88      0.00
    6   12   22    -18.69      0.00
    8   12   22     -6.46      0.00
   10   12   22     -6.87      0.00
   12   12   22     -3.00      0.00
   14   12   22      8.39      0.00
   16   12   22      1.00      0.00
   18   12   22     -4.38      0.00
    0   14   22    -17.04      0.00
    2   14   22     -5.05      0.00
    4   14   22     -3.71      0.00
    6   14   22      4.73      0.00
    8   14   22     -7.53      0.00
   10   14   22      8.36      0.00
   12   14   22     -9.16      0.00
   14   14   22      3.54      0.00
   16   14   22     14.67      0.00
   18   14   22     11.29      0.00
    0   16   22     -0.76      0.00
    2   16   22      3.92      0.00
    4   16   22     -1.94      0.00
    6   16   22      4.86      0.00
    8   16   22      5.10      0.00
   10   16   22     -3.50      0.00
   12   16   22     15.96      0.00
   14   16   22      4.65      0.00
   16   16   22     -4.78      0.00
   18   16   22    -10.43      0.00
    0   18   22      4.07      0.00
    2   18   22      9.69      0.00
    4   18   22      3.50      0.00
    6   18   22     -7.83      0.00
    8   18   22     -5.05      0.00
   10   18   22     -7.79      0.00
   12   18   22    -19.29      0.00
   14   18   22      3.75      0.00
   16   18   22     -5.17      0.00
    0   20   22    -22.50      0.00
    2   20   22     -4.83      0.00
    4   20   22     -2.11      0.00
    6   20   22      0.20      0.00
    8   20   22      5.01      0.00
   10   20   22      1.99      0.00
   12   20   22     -3.89      0.00
   14   20   22      8.32      0.00
   16   20   22    -15.98      0.00
    0   22   22     -5.54      0.00
    2   22   22      9.65      0.00
    4   22   22     -2.14      0.00
    6   22   22     -3.30      0.00
    8   22   22    -11.85      0.00
   10   22   22     -6.68      0.00
   12   22   22     11.46      0.00
   14   22   22     12.90      0.00
    0   24   22     -0.59      0.00
    2   24   22     -2.08      0.00
    4   24   22      5.65      0.00
    6   24   22     -3.70      0.00
    8   24   22      7.93      0.00
   10   24   22     -9.06      0.00
   12   24   22     -0.23      0.00
   14   24   22     12.49      0.00
    0   26   22      8.39      0.00
    2   26   22      2.70      0.00
    4   26   22      5.42      0.00
    6   26   22    -11.44      0.00
    8   26   22     35.23      0.00
   10   26   22     -5.04      0.00
   12   26   22      2.11      0.00
    0   28   22     -0.35      0.00
    2   28   22      6.85      0.00
    4   28   22      4.16      0.00
    6   28   22     -5.16      0.00
    8   28   22    -11.44      0.00
   10   28   22     12.89      0.00
    0   30   22     -1.06      0.00
    2   30   22     -6.54      0.00
    4   30   22     17.43      0.00
    6   30   22     -2.95      0.00
    8   30   22      5.52      0.00
    0   32   22      2.27      0.00
    2   32   22      8.42      0.00
    4   32   22     24.08      0.00
    6   32   22      1.22      0.00
    1    1   23     -7.24      0.00
    3    1   23     -2.18      0.00
    5    1   23     -5.53      0.00
    7    1   23      0.55      0.00
    9    1   23    -13.59      0.00
   11    1   23      2.13      0.00
   13    1   23     -6.76      0.00
   15    1   23      2.88      0.00
   17    1   23     -0.89      0.00
   19    1   23     -4.08      0.00
   21    1   23      1.43      0.00
    1    3   23     -3.28      0.00
    3    3   23     12.83      0.00
    5    3   23     -0.44      0.00
    7    3   23     17.25      0.00
    9    3   23     -7.77      0.00
   11    3   23      3.09      0.00
   13    3   23     -3.31      0.00
   15    3   23     -5.87      0.00
   17    3   23     -7.30      0.00
   19    3   23      2.94      0.00
   21    3   23      0.64      0.00
    1    5   23      6.55      0.00
    3    5   23     -2.71      0.00
    5    5   23     19.25      0.00
    7    5   23      1.24      0.00
    9    5   23     -2.83      0.00
   11    5   23     -0.74      0.00
   13    5   23      9.72      0.00
   15    5   23      4.56      0.00
   17    5   23      6.78      0.00
   19    5   23      6.26      0.00
   21    5   23    -10.84      0.00
    1    7   23     -5.97      0.00
    3    7   23     -6.88      0.00
    5    7   23     18.39      0.00
    7    7   23      0.12      0.00
    9    7   23     -1.84      0.00
   11    7   23     -3.69      0.00
   13    7   23     -6.47      0.00
   15    7   23    -12.51      0.00
   17    7   23      7.67      0.00
   19    7   23    -10.29      0.00
    1    9   23      7.81      0.00
    3    9   23     -5.17      0.00
    5    9   23      2.37      0.00
    7    9   23      6.58      0.00
    9    9   23     -5.09      0.00
   11    9   23      2.53      0.00
   13    9   23      5.29      0.00
   15    9   23     -0.71      0.00
   17    9   23      6.15      0.00
   19    9   23      8.66      0.00
    1   11   23      4.82      0.00
    3   11   23      9.23      0.00
    5   11   23     11.59      0.00
    7   11   23     10.18      0.00
    9   11   23     -4.09      0.00
   11   11   23     13.81      0.00
   13   11   23     -0.01      0.00
   15   11   23      9.93      0.00
   17   11   23      7.24      0.00
   19   11   23     -4.23      0.00
    1   13   23     -1.50      0.00
    3   13   23     -6.40      0.00
    5   13   23     -6.16      0.00
    7   13   23     -6.52      0.00
    9   13   23    -15.46      0.00
   11   13   23     -5.64      0.00
   13   13   23    -11.73      0.00
   15   13   23     -3.12      0.00
   17   13   23     14.97      0.00
    1   15   23    -12.39      0.00
    3   15   23      3.70      0.00
    5   15   23      0.90      0.00
    7   15   23      5.19      0.00
    9   15   23      0.62      0.00
   11   15   23     22.67      0.00
   13   15   23      6.62      0.00
   15   15   23     14.49      0.00
   17   15   23      4.48      0.00
    1   17   23     -3.41      0.00
    3   17   23      2.84      0.00
    5   17   23      8.52      0.00
    7   17   23     -3.40      0.00
    9   17   23     -4.76      0.00
   11   17   23     -7.99      0.00
   13   17   23      9.78      0.00
   15   17   23      7.29      0.00
   17   17   23     16.42      0.00
    1   19   23      7.84      0.00
    3   19   23      2.47      0.00
    5   19   23     -2.09      0.00
    7   19   23      2.44      0.00
    9   19   23     15.21      0.00
   11   19   23     -0.93      0.00
   13   19   23      6.86      0.00
   15   19   23     -7.04      0.00
    1   21   23     -1.03      0.00
    3   21   23      7.00      0.00
    5   21   23      3.84      0.00
    7   21   23     14.93      0.00
    9   21   23      4.08      0.00
   11   21   23      7.37      0.00
   13   21   23     10.08      0.00
   15   21   23     -2.70      0.00
    1   23   23     -5.65      0.00
    3   23   23      9.32      0.00
    5   23   23     19.94      0.00
    7   23   23     -8.59      0.00
    9   23   23     -7.59      0.00
   11   23   23     -2.04      0.00
   13   23   23      4.47      0.00
    1   25   23     -8.06      0.00
    3   25   23     -2.40      0.00
    5   25   23     -0.15      0.00
    7   25   23     16.22      0.00
    9   25   23     14.41      0.00
   11   25   23     11.84      0.00
   13   25   23      5.35      0.00
    1   27   23      6.42      0.00
    3   27   23      2.17      0.00
    5   27   23     -6.85      0.00
    7   27   23      0.79      0.00
    9   27   23     -1.80      0.00
   11   27   23     -0.01      0.00
    1   29   23     -5.00      0.00
    3   29   23      2.13      0.00
    5   29   23     15.99      0.00
    7   29   23     15.35      0.00
    9   29   23      4.30      0.00
    1   31   23     -7.40      0.00
    3   31   23      7.38      0.00
    5   31   23     -8.58      0.00
    0    0   24     11.87      0.00
    2    0   24     22.40      0.00
    4    0   24      6.06      0.00
    6    0   24      8.50      0.00
    8    0   24      9.18      0.00
   10    0   24     -3.67      0.00
   12    0   24      6.85      0.00
   14    0   24     -3.78      0.00
   16    0   24     14.48      0.00
   18    0   24     -5.54      0.00
   20    0   24      8.33      0.00
    0    2   24     -4.50      0.00
    2    2   24     -2.33      0.00
    4    2   24      0.26      0.00
    6    2   24      1.24      0.00
    8    2   24     -0.79      0.00
   10    2   24     -6.86      0.00
   12    2   24     -5.95      0.00
   14    2   24      1.20      0.00
   16    2   24     10.12      0.00
   18    2   24     -2.45      0.00
   20    2   24     -9.85      0.00
    0    4   24     -4.64      0.00
    2    4   24    -11.19      0.00
    4    4   24     -9.10      0.00
    6    4   24     -2.17      0.00
    8    4   24     -2.50      0.00
   10    4   24    -11.03      0.00
   12    4   24     -3.16      0.00
   14    4   24      2.77      0.00
   16    4   24     -6.81      0.00
   18    4   24     11.21      0.00
   20    4   24      5.28      0.00
    0    6   24     10.49      0.00
    2    6   24      4.27      0.00
    4    6   24     24.59      0.00
    6    6   24     24.07      0.00
    8    6   24      0.65      0.00
   10    6   24     -8.08      0.00
   12    6   24      1.13      0.00
   14    6   24     11.98      0.00
   16    6   24     10.72      0.00
   18    6   24     -0.33      0.00
   20    6   24      0.20      0.00
    0    8   24     19.92      0.00
    2    8   24      1.37      0.00
    4    8   24     -0.41      0.00
    6    8   24     11.75      0.00
    8    8   24     11.28      0.00
   10    8   24      2.21      0.00
   12    8   24      2.45      0.00
   14    8   24     -5.46      0.00
   16    8   24      0.22      0.00
   18    8   24      4.29      0.00
   20    8   24      0.62      0.00
    0   10   24      1.00      0.00
    2   10   24     -5.76      0.00
    4   10   24     -4.13      0.00
    6   10   24      0.87      0.00
    8   10   24     -3.72      0.00
   10   10   24     -0.57      0.00
   12   10   24     -4.44      0.00
   14   10   24     10.00      0.00
   16   10   24      8.38      0.00
   18   10   24     -2.77      0.00
    0   12   24     14.23      0.00
    2   12   24      1.92      0.00
    4   12   24     -6.19      0.00
    6   12   24     -4.50      0.00
    8   12   24     -1.77      0.00
   10   12   24     -7.10      0.00
   12   12   24     -4.86      0.00
   14   12   24      3.65      0.00
   16   12   24      4.28      0.00
   18   12   24     -5.62      0.00
    0   14   24      1.42      0.00
    2   14   24     10.67      0.00
    4   14   24     10.75      0.00
    6   14   24     12.63      0.00
    8   14   24     14.62      0.00
   10   14   24     -1.01      0.00
   12   14   24      2.83      0.00
   14   14   24     14.31      0.00
   16   14   24      8.66      0.00
   18   14   24      4.27      0.00
    0   16   24     12.29      0.00
    2   16   24     -0.93      0.00
    4   16   24     -1.07      0.00
    6   16   24    -15.88      0.00
    8   16   24     -5.86      0.00
   10   16   24      0.57      0.00
   12   16   24      5.36      0.00
   14   16   24    -11.13      0.00
   16   16   24     13.14      0.00
    0   18   24      2.84      0.00
    2   18   24      4.07      0.00
    4   18   24    -10.51      0.00
    6   18   24     -2.09      0.00
    8   18   24     19.08      0.00
   10   18   24     11.88      0.00
   12   18   24      2.98      0.00
   14   18   24     17.41      0.00
   16   18   24     -8.89      0.00
    0   20   24      5.89      0.00
    2   20   24     -3.06      0.00
    4   20   24    -10.53      0.00
    6   20   24     -1.85      0.00
    8   20   24      0.01      0.00
   10   20   24      6.18      0.00
   12   20   24      0.58      0.00
   14   20   24      4.56      0.00
   16   20   24    -14.14      0.00
    0   22   24     -4.08      0.00
    2   22   24     21.86      0.00
    4   22   24    -11.27      0.00
    6   22   24      9.28      0.00
    8   22   24     11.28      0.00
   10   22   24      9.68      0.00
   12   22   24     -0.71      0.00
   14   22   24      3.21      0.00
    0   24   24     -8.43      0.00
    2   24   24     -0.59      0.00
    4   24   24     12.06      0.00
    6   24   24     13.07      0.00
    8   24   24    -16.96      0.00
   10   24   24     -1.46      0.00
   12   24   24      2.70      0.00
    0   26   24    -10.80      0.00
    2   26   24     -6.63      0.00
    4   26   24    -20.54      0.00
    6   26   24     -7.18      0.00
    8   26   24     11.67      0.00
   10   26   24    -11.37      0.00
   12   26   24      7.07      0.00
    0   28   24     -5.60      0.00
    2   28   24      3.90      0.00
    4   28   24    -23.66      0.00
    6   28   24     -0.16      0.00
    8   28   24     -9.01      0.00
   10   28   24     -2.61      0.00
    0   30   24     -0.62      0.00
    2   30   24      7.53      0.00
    4   30   24      9.28      0.00
    6   30   24      1.57      0.00
    1    1   25     -3.89      0.00
    3    1   25     -3.66      0.00
    5    1   25    -12.44      0.00
    7    1   25      7.54      0.00
    9    1   25     -3.29      0.00
   11    1   25     -1.17      0.00
   13    1   25      4.49      0.00
   15    1   25      1.05      0.00
   17    1   25     16.65      0.00
   19    1   25     -1.18      0.00
    1    3   25      6.39      0.00
    3    3   25      0.56      0.00
    5    3   25    -16.50      0.00
    7    3   25      7.89      0.00
    9    3   25     -0.81      0.00
   11    3   25     -4.48      0.00
   13    3   25      5.66      0.00
   15    3   25     -4.37      0.00
   17    3   25    -15.36      0.00
   19    3   25      3.16      0.00
    1    5   25     -0.38      0.00
    3    5   25     -9.98      0.00
    5    5   25     11.03      0.00
    7    5   25      3.86      0.00
    9    5   25     -4.44      0.00
   11    5   25    -20.20      0.00
   13    5   25      6.63      0.00
   15    5   25     -3.96      0.00
   17    5   25      3.86      0.00
   19    5   25     17.25      0.00
    1    7   25    -10.07      0.00
    3    7   25    -13.50      0.00
    5    7   25     -2.15      0.00
    7    7   25    -15.98      0.00
    9    7   25     -3.10      0.00
   11    7   25     -0.08      0.00
   13    7   25     17.88      0.00
   15    7   25      0.76      0.00
   17    7   25    -12.85      0.00
   19    7   25      3.49      0.00
    1    9   25      2.26      0.00
    3    9   25    -14.09      0.00
    5    9   25     -6.03      0.00
    7    9   25     -6.36      0.00
    9    9   25     -0.13      0.00
   11    9   25     -7.58      0.00
   13    9   25      0.43      0.00
   15    9   25     -0.01      0.00
   17    9   25    -11.27      0.00
   19    9   25     12.03      0.00
    1   11   25      2.87      0.00
    3   11   25     -2.79      0.00
    5   11   25     -5.62      0.00
    7   11   25      3.45      0.00
    9   11   25      0.22      0.00
   11   11   25     -5.46      0.00
   13   11   25      1.57      0.00
   15   11   25      9.83      0.00
   17   11   25     -6.58      0.00
    1   13   25     -9.51      0.00
    3   13   25     -2.89      0.00
    5   13   25      6.92      0.00
    7   13   25     10.43      0.00
    9   13   25     -9.65      0.00
   11   13   25    -11.61      0.00
   13   13   25     11.57      0.00
   15   13   25      0.92      0.00
   17   13   25     -8.47      0.00
    1   15   25     -1.75      0.00
    3   15   25     -6.36      0.00
    5   15   25    -18.06      0.00
    7   15   25    -11.13      0.00
    9   15   25    -20.73      0.00
   11   15   25      2.62      0.00
   13   15   25     -1.35      0.00
   15   15   25      1.76      0.00
   17   15   25      9.39      0.00
    1   17   25      4.92      0.00
    3   17   25     -4.97      0.00
    5   17   25      1.91      0.00
    7   17   25     -5.16      0.00
    9   17   25     18.85      0.00
   11   17   25      3.43      0.00
   13   17   25      1.96      0.00
   15   17   25    -18.76      0.00
   17   17   25     -4.14      0.00
    1   19   25      1.19      0.00
    3   19   25    -12.10      0.00
    5   19   25      1.25      0.00
    7   19   25    -13.47      0.00
    9   19   25     -2.31      0.00
   11   19   25     -1.87      0.00
   13   19   25     14.87      0.00
   15   19   25      3.86      0.00
    1   21   25     -8.70      0.00
    3   21   25     -1.73      0.00
    5   21   25     -8.51      0.00
    7   21   25     -4.98      0.00
    9   21   25      2.13      0.00
   11   21   25     13.35      0.00
   13   21   25      6.03      0.00
   15   21   25      6.77      0.00
    1   23   25     -9.50      0.00
    3   23   25     -6.77      0.00
    5   23   25      0.57      0.00
    7   23   25     -9.87      0.00
    9   23   25     -7.88      0.00
   11   23   25     -4.38      0.00
   13   23   25     -7.20      0.00
    1   25   25      3.84      0.00
    3   25   25      1.73      0.00
    5   25   25     -0.14      0.00
    7   25   25     -8.68      0.00
    9   25   25    -10.03      0.00
   11   25   25     -0.14      0.00
    1   27   25     -0.57      0.00
    3   27   25      6.90      0.00
    5   27   25    -10.90      0.00
    7   27   25      9.37      0.00
    9   27   25     -3.05      0.00
    1   29   25     -3.29      0.00
    3   29   25      9.90      0.00
    5   29   25     -0.05      0.00
    7   29   25      6.10      0.00
    0    0   26     -2.39      0.00
    2    0   26      2.74      0.00
    4    0   26     -8.72      0.00
    6    0   26    -10.01      0.00
    8    0   26     11.46      0.00
   10    0   26      1.69      0.00
   12    0   26      9.17      0.00
   14    0   26    -12.66      0.00
   16    0   26      7.99      0.00
   18    0   26     -2.25      0.00
    0    2   26     -9.50      0.00
    2    2   26     -0.25      0.00
    4    2   26      1.51      0.00
    6    2   26     -0.15      0.00
    8    2   26      0.97      0.00
   10    2   26     -8.39      0.00
   12    2   26     -8.49      0.00
   14    2   26     -1.93      0.00
   16    2   26      9.19      0.00
   18    2   26    -13.42      0.00
    0    4   26      7.37      0.00
    2    4   26     -8.38      0.00
    4    4   26     -0.62      0.00
    6    4   26     -3.15      0.00
    8    4   26     -3.57      0.00
   10    4   26     -3.85      0.00
   12    4   26     -1.02      0.00
   14    4   26     11.96      0.00
   16    4   26     -6.04      0.00
   18    4   26     12.86      0.00
    0    6   26      6.63      0.00
    2    6   26     -9.31      0.00
    4    6   26      4.24      0.00
    6    6   26     -2.64      0.00
    8    6   26      2.46      0.00
   10    6   26     -2.36      0.00
   12    6   26      0.46      0.00
   14    6   26     -0.24      0.00
   16    6   26    -15.53      0.00
   18    6   26      3.21      0.00
    0    8   26     -0.79      0.00
    2    8   26     -0.84      0.00
    4    8   26      8.10      0.00
    6    8   26      2.25      0.00
    8    8   26     -6.57      0.00
   10    8   26      0.11      0.00
   12    8   26     -4.60      0.00
   14    8   26     -2.31      0.00
   16    8   26    -12.47      0.00
   18    8   26      9.21      0.00
    0   10   26      1.50      0.00
    2   10   26     -4.81      0.00
    4   10   26     -2.05      0.00
    6   10   26      1.38      0.00
    8   10   26     -2.77      0.00
   10   10   26     -2.59      0.00
   12   10   26      1.03      0.00
   14   10   26     -4.21      0.00
   16   10   26     -6.39      0.00
   18   10   26    -14.58      0.00
    0   12   26     -0.79      0.00
    2   12   26    -11.54      0.00
    4   12   26      2.77      0.00
    6   12   26      3.80      0.00
    8   12   26     -1.67      0.00
   10   12   26      7.14      0.00
   12   12   26      0.94      0.00
   14   12   26     -0.87      0.00
   16   12   26     10.30      0.00
   18   12   26     15.09      0.00
    0   14   26    -15.22      0.00
    2   14   26     -3.67      0.00
    4   14   26     10.77      0.00
    6   14   26      9.11      0.00
    8   14   26     -1.51      0.00
   10   14   26    -27.63      0.00
   12   14   26      0.16      0.00
   14   14   26     -3.24      0.00
   16   14   26     -6.64      0.00
    0   16   26      7.19      0.00
    2   16   26    -18.82      0.00
    4   16   26      4.44      0.00
    6   16   26      2.43      0.00
    8   16   26     -0.49      0.00
   10   16   26     17.58      0.00
   12   16   26      5.65      0.00
   14   16   26    -24.53      0.00
   16   16   26      2.35      0.00
    0   18   26     -9.62      0.00
    2   18   26     -2.91      0.00
    4   18   26      0.34      0.00
    6   18   26    -10.75      0.00
    8   18   26     -8.98      0.00
   10   18   26      4.32      0.00
   12   18   26     13.69      0.00
   14   18   26      9.05      0.00
   16   18   26    -11.05      0.00
    0   20   26      5.19      0.00
    2   20   26     -6.86      0.00
    4   20   26     17.59      0.00
    6   20   26     -1.62      0.00
    8   20   26    -23.84      0.00
   10   20   26      4.79      0.00
   12   20   26     -0.57      0.00
   14   20   26      0.36      0.00
    0   22   26    -29.72      0.00
    2   22   26     -7.50      0.00
    4   22   26      0.70      0.00
    6   22   26     10.18      0.00
    8   22   26      3.03      0.00
   10   22   26     -0.51      0.00
   12   22   26      5.13      0.00
    0   24   26      3.49      0.00
    2   24   26     -6.02      0.00
    4   24   26      1.06      0.00
    6   24   26    -16.58      0.00
    8   24   26     -4.82      0.00
   10   24   26      4.82      0.00
   12   24   26     25.19      0.00
    0   26   26     -0.62      0.00
    2   26   26      2.31      0.00
    4   26   26      3.01      0.00
    6   26   26      6.57      0.00
    8   26   26      6.36      0.00
   10   26   26     -7.64      0.00
    0   28   26      2.09      0.00
    2   28   26     13.37      0.00
    4   28   26      3.04      0.00
    6   28   26      2.08      0.00
    8   28   26      1.04      0.00
    2   30   26     -8.48      0.00
    4   30   26     -9.69      0.00
    1    1   27    -10.27      0.00
    3    1   27      7.03      0.00
    5    1   27    -11.56      0.00
    7    1   27     -7.93      0.00
    9    1   27     -3.61      0.00
   11    1   27    -10.82      0.00
   13    1   27     -7.08      0.00
   15    1   27      2.33      0.00
   17    1   27      5.88      0.00
   19    1   27    -20.53      0.00
    1    3   27      9.24      0.00
    3    3   27     15.34      0.00
    5    3   27     -1.99      0.00
    7    3   27      9.94      0.00
    9    3   27      7.12      0.00
   11    3   27     -0.94      0.00
   13    3   27      6.08      0.00
   15    3   27     12.20      0.00
   17    3   27    -15.51      0.00
   19    3   27    -13.27      0.00
    1    5   27     -9.88      0.00
    3    5   27      4.65      0.00
    5    5   27     -1.05      0.00
    7    5   27      3.05      0.00
    9    5   27     -1.22      0.00
   11    5   27     -6.75      0.00
   13    5   27     -8.23      0.00
   15    5   27     -2.18      0.00
   17    5   27      6.29      0.00
   19    5   27      7.24      0.00
    1    7   27      6.71      0.00
    3    7   27      2.96      0.00
    5    7   27     -1.93      0.00
    7    7   27      2.74      0.00
    9    7   27      0.61      0.00
   11    7   27      1.66      0.00
   13    7   27      2.37      0.00
   15    7   27     -2.78      0.00
   17    7   27     -7.61      0.00
    1    9   27     -0.24      0.00
    3    9   27      5.55      0.00
    5    9   27      3.81      0.00
    7    9   27      3.84      0.00
    9    9   27      6.73      0.00
   11    9   27      3.64      0.00
   13    9   27     -9.51      0.00
   15    9   27     -6.67      0.00
   17    9   27     -7.55      0.00
    1   11   27     -3.67      0.00
    3   11   27      4.64      0.00
    5   11   27      3.32      0.00
    7   11   27     -3.55      0.00
    9   11   27      4.08      0.00
   11   11   27    -21.56      0.00
   13   11   27    -16.71      0.00
   15   11   27     -7.56      0.00
   17   11   27     -1.79      0.00
    1   13   27     -5.32      0.00
    3   13   27     -0.29      0.00
    5   13   27     -2.98      0.00
    7   13   27     -5.71      0.00
    9   13   27     13.82      0.00
   11   13   27     14.99      0.00
   13   13   27     10.15      0.00
   15   13   27      3.77      0.00
   17   13   27     -0.87      0.00
    1   15   27     -5.67      0.00
    3   15   27      4.97      0.00
    5   15   27     18.73      0.00
    7   15   27     14.59      0.00
    9   15   27     -0.40      0.00
   11   15   27     -1.38      0.00
   13   15   27     -6.22      0.00
   15   15   27      6.13      0.00
    1   17   27      0.33      0.00
    3   17   27      2.07      0.00
    5   17   27     -3.05      0.00
    7   17   27    -12.31      0.00
    9   17   27      7.82      0.00
   11   17   27     -0.42      0.00
   13   17   27     -6.03      0.00
   15   17   27     -9.10      0.00
    1   19   27      2.02      0.00
    3   19   27      2.75      0.00
    5   19   27     -1.10      0.00
    7   19   27    -16.72      0.00
    9   19   27     -5.65      0.00
   11   19   27      3.55      0.00
   13   19   27    -14.82      0.00
   15   19   27     -5.51      0.00
    1   21   27     -8.60      0.00
    3   21   27      9.68      0.00
    5   21   27     -1.72      0.00
    7   21   27     20.84      0.00
    9   21   27    -17.39      0.00
   11   21   27     13.09      0.00
   13   21   27     -1.36      0.00
    1   23   27     -3.47      0.00
    3   23   27     10.50      0.00
    5   23   27     -2.34      0.00
    7   23   27     17.32      0.00
    9   23   27     -1.47      0.00
   11   23   27     18.90      0.00
    1   25   27     -3.51      0.00
    3   25   27     -4.04      0.00
    5   25   27      3.04      0.00
    7   25   27      5.43      0.00
    9   25   27     -8.76      0.00
    1   27   27    -11.16      0.00
    3   27   27     -9.53      0.00
    5   27   27    -18.56      0.00
    7   27   27     -3.26      0.00
    1   29   27      1.65      0.00
    3   29   27    -13.46      0.00
    5   29   27     -2.43      0.00
    0    0   28      9.60      0.00
    2    0   28      9.04      0.00
    4    0   28     -3.94      0.00
    6    0   28     -2.92      0.00
    8    0   28     13.91      0.00
   10    0   28      0.03      0.00
   12    0   28     -3.94      0.00
   14    0   28     -8.56      0.00
   16    0   28     11.40      0.00
   18    0   28     -2.85      0.00
    0    2   28     -8.09      0.00
    2    2   28     -0.99      0.00
    4    2   28     -8.12      0.00
    6    2   28    -11.79      0.00
    8    2   28     -0.04      0.00
   10    2   28     -1.47      0.00
   12    2   28      0.37      0.00
   14    2   28     -2.97      0.00
   16    2   28     -1.60      0.00
   18    2   28    -21.87      0.00
    0    4   28     -2.17      0.00
    2    4   28     -0.85      0.00
    4    4   28      5.94      0.00
    6    4   28     -3.11      0.00
    8    4   28     -4.20      0.00
   10    4   28     -2.77      0.00
   12    4   28      0.77      0.00
   14    4   28      8.74      0.00
   16    4   28     -7.66      0.00
   18    4   28     13.14      0.00
    0    6   28     14.94      0.00
    2    6   28    -11.08      0.00
    4    6   28    -10.67      0.00
    6    6   28      2.83      0.00
    8    6   28      4.92      0.00
   10    6   28     -3.29      0.00
   12    6   28     -1.08      0.00
   14    6   28     -3.56      0.00
   16    6   28    -11.93      0.00
   18    6   28      4.30      0.00
    0    8   28      4.05      0.00
    2    8   28     -1.66      0.00
    4    8   28    -12.74      0.00
    6    8   28     -6.33      0.00
    8    8   28     -2.21      0.00
   10    8   28     12.51      0.00
   12    8   28    -15.44      0.00
   14    8   28     -9.71      0.00
   16    8   28    -12.32      0.00
    0   10   28     -6.73      0.00
    2   10   28     -5.32      0.00
    4   10   28     -1.11      0.00
    6   10   28      1.80      0.00
    8   10   28     -8.14      0.00
   10   10   28     -7.83      0.00
   12   10   28      3.77      0.00
   14   10   28      1.30      0.00
   16   10   28      0.30      0.00
    0   12   28      2.12      0.00
    2   12   28     -7.56      0.00
    4   12   28     -1.65      0.00
    6   12   28      3.37      0.00
    8   12   28      5.77      0.00
   10   12   28      8.89      0.00
   12   12   28     -3.35      0.00
   14   12   28     -6.19      0.00
   16   12   28     -8.14      0.00
    0   14   28     -0.09      0.00
    2   14   28     -3.10      0.00
    4   14   28     -3.82      0.00
    6   14   28    -17.51      0.00
    8   14   28     -5.51      0.00
   10   14   28    -16.04      0.00
   12   14   28      5.17      0.00
   14   14   28    -11.89      0.00
   16   14   28     10.16      0.00
    0   16   28      4.46      0.00
    2   16   28    -12.66      0.00
    4   16   28      5.69      0.00
    6   16   28      4.19      0.00
    8   16   28     -8.87      0.00
   10   16   28     -8.02      0.00
   12   16   28     15.89      0.00
   14   16   28     -7.87      0.00
    0   18   28      0.86      0.00
    2   18   28      2.87      0.00
    4   18   28    -11.06      0.00
    6   18   28     -7.51      0.00
    8   18   28      7.62      0.00
   10   18   28     -3.98      0.00
   12   18   28      3.85      0.00
   14   18   28    -23.27      0.00
    0   20   28     12.04      0.00
    2   20   28      4.07      0.00
    4   20   28     -5.38      0.00
    6   20   28      3.86      0.00
    8   20   28     -9.50      0.00
   10   20   28      1.17      0.00
   12   20   28     11.43      0.00
    0   22   28      1.12      0.00
    2   22   28      3.82      0.00
    4   22   28    -11.44      0.00
    6   22   28      9.67      0.00
    8   22   28     -4.16      0.00
   10   22   28    -20.52      0.00
   12   22   28      1.63      0.00
    0   24   28    -10.87      0.00
    2   24   28      0.43      0.00
    4   24   28      8.17      0.00
    6   24   28      1.96      0.00
    8   24   28      9.98      0.00
   10   24   28     -4.14      0.00
    0   26   28     -5.84      0.00
    2   26   28      4.23      0.00
    4   26   28      1.47      0.00
    6   26   28      9.16      0.00
    8   26   28     -5.73      0.00
    0   28   28      4.45      0.00
    2   28   28     -1.61      0.00
    4   28   28     -7.67      0.00
    1    1   29      2.25      0.00
    3    1   29     -1.74      0.00
    5    1   29      4.90      0.00
    7    1   29     -1.03      0.00
    9    1   29     17.25      0.00
   11    1   29     -0.88      0.00
   13    1   29     -1.55      0.00
   15    1   29      1.04      0.00
   17    1   29     14.06      0.00
    1    3   29     -7.61      0.00
    3    3   29     -0.43      0.00
    5    3   29     -2.10      0.00
    7    3   29    -11.11      0.00
    9    3   29      4.10      0.00
   11    3   29     -4.99      0.00
   13    3   29     -1.54      0.00
   15    3   29     -5.13      0.00
   17    3   29     -9.87      0.00
    1    5   29     -9.58      0.00
    3    5   29     -7.34      0.00
    5    5   29     -2.30      0.00
    7    5   29     -6.03      0.00
    9    5   29     -9.65      0.00
   11    5   29     -2.40      0.00
   13    5   29     -5.42      0.00
   15    5   29      2.25      0.00
   17    5   29     -6.33      0.00
    1    7   29     12.71      0.00
    3    7   29      0.93      0.00
    5    7   29      7.83      0.00
    7    7   29     -3.49      0.00
    9    7   29      4.92      0.00
   11    7   29      6.13      0.00
   13    7   29     -2.09      0.00
   15    7   29      5.45      0.00
   17    7   29     -8.07      0.00
    1    9   29      4.14      0.00
    3    9   29     -2.07      0.00
    5    9   29      0.79      0.00
    7    9   29      2.53      0.00
    9    9   29     11.00      0.00
   11    9   29      7.25      0.00
   13    9   29     -8.83      0.00
   15    9   29     -2.31      0.00
    1   11   29     -6.68      0.00
    3   11   29     -4.97      0.00
    5   11   29     10.01      0.00
    7   11   29     -9.62      0.00
    9   11   29     -0.54      0.00
   11   11   29    -23.84      0.00
   13   11   29     -0.01      0.00
   15   11   29     11.04      0.00
    1   13   29      6.20      0.00
    3   13   29     14.76      0.00
    5   13   29      3.68      0.00
    7   13   29      2.72      0.00
    9   13   29     -0.89      0.00
   11   13   29     -9.16      0.00
   13   13   29     -3.60      0.00
   15   13   29      0.23      0.00
    1   15   29     -9.37      0.00
    3   15   29     -2.53      0.00
    5   15   29     -1.01      0.00
    7   15   29      0.40      0.00
    9   15   29      3.40      0.00
   11   15   29      3.91      0.00
   13   15   29      2.85      0.00
   15   15   29      8.65      0.00
    1   17   29      0.46      0.00
    3   17   29     -0.28      0.00
    5   17   29    -15.77      0.00
    7   17   29     -9.29      0.00
    9   17   29      1.96      0.00
   11   17   29     -8.11      0.00
   13   17   29     -6.67      0.00
    1   19   29     -3.12      0.00
    3   19   29     -1.30      0.00
    5   19   29     15.39      0.00
    7   19   29      4.61      0.00
    9   19   29      6.44      0.00
   11   19   29     -6.08      0.00
   13   19   29     -8.84      0.00
    1   21   29      1.51      0.00
    3   21   29     -9.22      0.00
    5   21   29    -32.78      0.00
    7   21   29      2.48      0.00
    9   21   29      3.18      0.00
   11   21   29     10.56      0.00
    1   23   29      1.21      0.00
    3   23   29      9.27      0.00
    5   23   29      0.85      0.00
    7   23   29      2.96      0.00
    9   23   29      7.33      0.00
    1   25   29      4.96      0.00
    3   25   29      7.89      0.00
    5   25   29      7.67      0.00
    7   25   29     -2.12      0.00
    1   27   29     -6.30      0.00
    3   27   29     14.96      0.00
    5   27   29     -2.46      0.00
    0    0   30      0.91      0.00
    2    0   30     -0.07      0.00
    4    0   30    -10.00      0.00
    6    0   30     -5.94      0.00
   10    0   30      6.69      0.00
   12    0   30      4.93      0.00
   14    0   30    -13.10      0.00
   16    0   30      7.98      0.00
    0    2   30    -12.61      0.00
    2    2   30      7.25      0.00
    4    2   30     15.75      0.00
    6    2   30      0.48      0.00
    8    2   30     10.41      0.00
   10    2   30     -2.22      0.00
   12    2   30      2.81      0.00
   14    2   30    -10.84      0.00
   16    2   30     21.91      0.00
    0    4   30     13.01      0.00
    2    4   30      7.41      0.00
    4    4   30      9.48      0.00
    6    4   30      5.82      0.00
    8    4   30      3.68      0.00
   10    4   30     -8.86      0.00
   12    4   30      2.31      0.00
   14    4   30     -4.24      0.00
   16    4   30      0.12      0.00
    0    6   30      2.18      0.00
    2    6   30      4.31      0.00
    4    6   30      7.41      0.00
    6    6   30     -0.12      0.00
    8    6   30     -7.02      0.00
   10    6   30      7.33      0.00
   12    6   30     17.46      0.00
   14    6   30     -2.75      0.00
   16    6   30      1.56      0.00
    0    8   30    -16.75      0.00
    2    8   30      5.64      0.00
    4    8   30      0.20      0.00
    6    8   30     -1.25      0.00
    8    8   30     -9.30      0.00
   10    8   30      8.52      0.00
   12    8   30     -1.14      0.00
   14    8   30    -12.20      0.00
   16    8   30      1.88      0.00
    0   10   30      7.24      0.00
    2   10   30      2.68      0.00
    4   10   30     -4.99      0.00
    6   10   30     18.50      0.00
    8   10   30      1.54      0.00
   10   10   30     -2.11      0.00
   12   10   30      1.61      0.00
   14   10   30     -4.89      0.00
   16   10   30     15.18      0.00
    0   12   30      2.07      0.00
    2   12   30     13.89      0.00
    4   12   30     -1.76      0.00
    6   12   30      9.99      0.00
    8   12   30     -2.21      0.00
   10   12   30     -0.40      0.00
   12   12   30      4.70      0.00
   14   12   30      6.93      0.00
    0   14   30    -11.95      0.00
    2   14   30     10.16      0.00
    4   14   30     13.18      0.00
    6   14   30      2.99      0.00
    8   14   30      6.91      0.00
   10   14   30     -6.13      0.00
   12   14   30     -9.30      0.00
   14   14   30    -12.10      0.00
    0   16   30     -6.39      0.00
    2   16   30     -2.97      0.00
    4   16   30    -15.68      0.00
    6   16   30    -13.04      0.00
    8   16   30      1.92      0.00
   10   16   30     -1.37      0.00
   12   16   30      2.44      0.00
   14   16   30    -15.68      0.00
    0   18   30      1.08      0.00
    2   18   30      6.48      0.00
    4   18   30     -1.33      0.00
    6   18   30      2.05      0.00
    8   18   30      7.74      0.00
   10   18   30      2.58      0.00
   12   18   30      8.63      0.00
    0   20   30     -5.95      0.00
    2   20   30      8.45      0.00
    4   20   30     -1.88      0.00
    6   20   30     12.35      0.00
    8   20   30      0.99      0.00
   10   20   30      3.64      0.00
   12   20   30      1.09      0.00
    0   22   30     -2.61      0.00
    2   22   30     -5.14      0.00
    4   22   30    -14.14      0.00
    6   22   30     -2.64      0.00
    8   22   30     -0.05      0.00
   10   22   30      9.41      0.00
    0   24   30     -2.85      0.00
    2   24   30      3.41      0.00
    4   24   30    -12.72      0.00
    6   24   30    -11.89      0.00
    8   24   30    -10.11      0.00
    0   26   30     -8.60      0.00
    2   26   30      8.38      0.00
    4   26   30     -2.98      0.00
    1    1   31     -0.13      0.00
    3    1   31      6.47      0.00
    5    1   31     -0.36      0.00
    7    1   31      1.81      0.00
    9    1   31     12.24      0.00
   11    1   31     -6.56      0.00
   13    1   31     -5.69      0.00
   15    1   31     -3.53      0.00
   17    1   31     13.75      0.00
    1    3   31     13.54      0.00
    3    3   31      0.93      0.00
    5    3   31     -2.96      0.00
    7    3   31      6.12      0.00
    9    3   31     10.79      0.00
   11    3   31     -2.55      0.00
   13    3   31      0.31      0.00
   15    3   31      4.69      0.00
   17    3   31     11.83      0.00
    1    5   31     -6.01      0.00
    3    5   31     -1.61      0.00
    5    5   31     -0.39      0.00
    7    5   31     -8.92      0.00
    9    5   31     -3.28      0.00
   11    5   31      4.87      0.00
   13    5   31     -3.51      0.00
   15    5   31      5.01      0.00
    1    7   31      0.06      0.00
    3    7   31      8.52      0.00
    5    7   31      4.91      0.00
    7    7   31     -5.10      0.00
    9    7   31     11.64      0.00
   11    7   31     10.03      0.00
   13    7   31     -3.86      0.00
   15    7   31     -3.40      0.00
    1    9   31     -9.40      0.00
    3    9   31     -4.97      0.00
    5    9   31      1.70      0.00
    7    9   31      9.64      0.00
    9    9   31     -2.53      0.00
   11    9   31      5.20      0.00
   13    9   31      5.49      0.00
   15    9   31      4.22      0.00
    1   11   31    -13.04      0.00
    3   11   31    -23.62      0.00
    5   11   31     -3.28      0.00
    7   11   31    -14.28      0.00
    9   11   31      1.11      0.00
   11   11   31      0.19      0.00
   13   11   31     -9.88      0.00
   15   11   31      3.52      0.00
    1   13   31     -9.95      0.00
    3   13   31     -4.03      0.00
    5   13   31    -17.44      0.00
    7   13   31      0.94      0.00
    9   13   31     -7.15      0.00
   11   13   31      0.15      0.00
   13   13   31      3.52      0.00
    1   15   31      7.66      0.00
    3   15   31     18.45      0.00
    5   15   31    -10.07      0.00
    7   15   31      6.17      0.00
    9   15   31      9.39      0.00
   11   15   31      5.60      0.00
   13   15   31     -5.61      0.00
    1   17   31     -5.29      0.00
    3   17   31     -3.31      0.00
    5   17   31    -19.95      0.00
    7   17   31      1.98      0.00
    9   17   31     -2.20      0.00
   11   17   31      4.99      0.00
    1   19   31     -2.27      0.00
    3   19   31    -11.48      0.00
    5   19   31     -9.62      0.00
    7   19   31     -9.95      0.00
    9   19   31     -7.65      0.00
   11   19   31      0.23      0.00
    1   21   31     -3.23      0.00
    3   21   31     11.83      0.00
    5   21   31    -10.03      0.00
    7   21   31     15.70      0.00
    9   21   31      1.72      0.00
    1   23   31      7.17      0.00
    3   23   31     12.05      0.00
    5   23   31      5.17      0.00
    7   23   31     -8.65      0.00
    1   25   31     -9.71      0.00
    3   25   31    -16.32      0.00
    5   25   31     -9.42      0.00
    0    0   32      4.92      0.00
    2    0   32     -3.91      0.00
    4    0   32     -5.59      0.00
    6    0   32     -7.13      0.00
    8    0   32      2.01      0.00
   10    0   32     -3.40      0.00
   12    0   32     -9.52      0.00
   14    0   32      3.30      0.00
   16    0   32     -0.05      0.00
    0    2   32     -7.87      0.00
    2    2   32     -4.29      0.00
    4    2   32      0.56      0.00
    6    2   32     -4.96      0.00
    8    2   32     12.85      0.00
   10    2   32     -8.56      0.00
   12    2   32      0.05      0.00
   14    2   32     -0.07      0.00
   16    2   32     -4.42      0.00
    0    4   32     12.10      0.00
    2    4   32    -19.23      0.00
    4    4   32     -8.01      0.00
    6    4   32     -6.01      0.00
    8    4   32      8.06      0.00
   10    4   32     -0.13      0.00
   12    4   32     -4.59      0.00
   14    4   32     -5.89      0.00
   16    4   32     -4.88      0.00
    0    6   32      2.09      0.00
    2    6   32     -4.93      0.00
    4    6   32      8.85      0.00
    6    6   32     -7.28      0.00
    8    6   32     -4.72      0.00
   10    6   32      3.96      0.00
   12    6   32     -1.31      0.00
   14    6   32      8.50      0.00
    0    8   32     -5.15      0.00
    2    8   32     -5.52      0.00
    4    8   32      2.61      0.00
    6    8   32     12.31      0.00
    8    8   32     -1.74      0.00
   10    8   32     -3.46      0.00
   12    8   32      0.50      0.00
   14    8   32      2.04      0.00
    0   10   32      6.07      0.00
    2   10   32    -10.36      0.00
    4   10   32      5.83      0.00
    6   10   32     14.04      0.00
    8   10   32      7.23      0.00
   10   10   32      7.22      0.00
   12   10   32     -5.04      0.00
   14   10   32     -5.68      0.00
    0   12   32     -0.85      0.00
    2   12   32     -7.41      0.00
    4   12   32      2.62      0.00
    6   12   32     20.56      0.00
    8   12   32     -5.48      0.00
   10   12   32      2.01      0.00
   12   12   32     -3.00      0.00
   14   12   32      4.41      0.00
    0   14   32      0.78      0.00
    2   14   32    -11.77      0.00
    4   14   32    -19.19      0.00
    6   14   32    -16.48      0.00
    8   14   32     -6.16      0.00
   10   14   32     16.92      0.00
   12   14   32      0.56      0.00
    0   16   32     -0.51      0.00
    2   16   32      0.04      0.00
    4   16   32     -2.32      0.00
    6   16   32      0.78      0.00
    8   16   32      1.89      0.00
   10   16   32     -5.27      0.00
   12   16   32      0.92      0.00
    0   18   32      7.10      0.00
    2   18   32     -7.96      0.00
    4   18   32     -7.24      0.00
    6   18   32     -3.17      0.00
    8   18   32      4.34      0.00
   10   18   32      6.64      0.00
    0   20   32      7.59      0.00
    2   20   32     10.09      0.00
    4   20   32    -12.94      0.00
    6   20   32    -10.73      0.00
    8   20   32      7.48      0.00
    0   22   32    -12.11      0.00
    2   22   32     -7.73      0.00
    4   22   32      8.68      0.00
    6   22   32    -12.23      0.00
    0   24   32      0.67      0.00
    2   24   32     10.17      0.00
    4   24   32     15.63      0.00
    1    1   33     -1.15      0.00
    3    1   33     -1.80      0.00
    5    1   33      1.19      0.00
    7    1   33      8.70      0.00
    9    1   33     -2.71      0.00
   11    1   33     -8.85      0.00
   13    1   33      6.09      0.00
   15    1   33     -8.79      0.00
    1    3   33     -0.34      0.00
    3    3   33     -6.81      0.00
    5    3   33    -10.03      0.00
    7    3   33     -2.63      0.00
    9    3   33     -3.59      0.00
   11    3   33      7.49      0.00
   13    3   33      7.02      0.00
   15    3   33     -3.90      0.00
    1    5   33     -0.37      0.00
    3    5   33      6.30      0.00
    5    5   33      4.46      0.00
    7    5   33     -2.61      0.00
    9    5   33    -14.27      0.00
   11    5   33    -11.01      0.00
   13    5   33     -2.31      0.00
   15    5   33     -3.71      0.00
    1    7   33      6.45      0.00
    3    7   33      3.77      0.00
    5    7   33     -8.86      0.00
    7    7   33      4.15      0.00
    9    7   33      0.14      0.00
   11    7   33      1.12      0.00
   13    7   33     -2.53      0.00
   15    7   33     -1.24      0.00
    1    9   33      6.74      0.00
    3    9   33     14.81      0.00
    5    9   33      4.38      0.00
    7    9   33     22.42      0.00
    9    9   33     -9.67      0.00
   11    9   33     -2.97      0.00
   13    9   33     10.07      0.00
    1   11   33      3.12      0.00
    3   11   33     10.48      0.00
    5   11   33     13.32      0.00
    7   11   33     -0.78      0.00
    9   11   33     -0.50      0.00
   11   11   33     -0.82      0.00
   13   11   33    -11.41      0.00
    1   13   33      1.96      0.00
    3   13   33    -14.36      0.00
    5   13   33      5.56      0.00
    7   13   33     14.23      0.00
    9   13   33     -0.80      0.00
   11   13   33      4.45      0.00
    1   15   33     -4.15      0.00
    3   15   33      6.90      0.00
    5   15   33     -2.70      0.00
    7   15   33      3.53      0.00
    9   15   33    -10.65      0.00
   11   15   33     -5.40      0.00
    1   17   33      3.09      0.00
    3   17   33     -5.66      0.00
    5   17   33     -1.51      0.00
    7   17   33      2.63      0.00
    9   17   33     -1.90      0.00
    1   19   33     -6.98      0.00
    3   19   33    -15.13      0.00
    5   19   33      4.13      0.00
    7   19   33     12.60      0.00
    1   21   33     15.30      0.00
    3   21   33     13.04      0.00
    5   21   33    -23.51      0.00
    7   21   33      3.45      0.00
    1   23   33    -20.42      0.00
    3   23   33     -1.56      0.00
    5   23   33     -4.23      0.00
    0    0   34     16.04      0.00
    2    0   34     -6.17      0.00
    4    0   34     -4.96      0.00
    6    0   34      3.08      0.00
    8    0   34      3.35      0.00
   10    0   34     -1.52      0.00
   12    0   34      7.18      0.00
   14    0   34      5.70      0.00
    0    2   34      0.86      0.00
    2    2   34      4.53      0.00
    4    2   34     -3.59      0.00
    6    2   34     -4.54      0.00
    8    2   34      1.04      0.00
   10    2   34    -10.45      0.00
   12    2   34      2.01      0.00
   14    2   34      5.29      0.00
    0    4   34     19.13      0.00
    2    4   34      7.54      0.00
    4    4   34      7.54      0.00
    6    4   34     -2.12      0.00
    8    4   34     11.90      0.00
   10    4   34      4.59      0.00
   12    4   34      2.12      0.00
   14    4   34      0.98      0.00
    0    6   34     -1.05      0.00
    2    6   34     13.38      0.00
    4    6   34     14.35      0.00
    6    6   34     -9.46      0.00
    8    6   34     -4.01      0.00
   10    6   34     -7.19      0.00
   12    6   34     -1.30      0.00
   14    6   34     18.76      0.00
    0    8   34     -4.47      0.00
    2    8   34     -4.92      0.00
    4    8   34    -24.83      0.00
    6    8   34    -15.51      0.00
    8    8   34     -2.73      0.00
   10    8   34     -1.72      0.00
   12    8   34     -4.94      0.00
    0   10   34     -8.51      0.00
    2   10   34      1.22      0.00
    4   10   34     -0.54      0.00
    6   10   34    -24.82      0.00
    8   10   34     10.91      0.00
   10   10   34     -2.88      0.00
   12   10   34     -5.11      0.00
    0   12   34      5.54      0.00
    2   12   34     -0.24      0.00
    4   12   34      5.71      0.00
    6   12   34      1.87      0.00
    8   12   34      8.44      0.00
   10   12   34     -3.25      0.00
   12   12   34     -6.37      0.00
    0   14   34    -11.52      0.00
    2   14   34     -9.04      0.00
    4   14   34     -2.78      0.00
    6   14   34     -3.97      0.00
    8   14   34     -6.30      0.00
   10   14   34     -1.19      0.00
    0   16   34    -13.99      0.00
    2   16   34      1.85      0.00
    4   16   34      3.72      0.00
    6   16   34     -4.23      0.00
    8   16   34      5.62      0.00
    0   18   34     -1.96      0.00
    2   18   34     -1.23      0.00
    4   18   34      3.78      0.00
    6   18   34      1.46      0.00
    8   18   34     -2.54      0.00
    0   20   34    -13.46      0.00
    2   20   34     -1.38      0.00
    4   20   34    -10.58      0.00
    6   20   34      4.11      0.00
    0   22   34     -2.20      0.00
    2   22   34     -2.08      0.00
    4   22   34     -8.98      0.00
    1    1   35      1.94      0.00
    3    1   35     -3.57      0.00
    5    1   35     -7.91      0.00
    7    1   35      3.18      0.00
    9    1   35    -12.26      0.00
   11    1   35     -0.20      0.00
   13    1   35      8.34      0.00
    1    3   35      3.26      0.00
    3    3   35      1.18      0.00
    5    3   35      6.12      0.00
    7    3   35      5.15      0.00
    9    3   35      0.59      0.00
   11    3   35     11.84      0.00
   13    3   35     -1.31      0.00
    1    5   35     -3.75      0.00
    3    5   35      2.45      0.00
    5    5   35     -3.99      0.00
    7    5   35     -9.22      0.00
    9    5   35     -6.11      0.00
   11    5   35      1.90      0.00
   13    5   35     10.03      0.00
    1    7   35     -8.28      0.00
    3    7   35      1.51      0.00
    5    7   35      1.87      0.00
    7    7   35     -4.94      0.00
    9    7   35     -0.65      0.00
   11    7   35      4.81      0.00
   13    7   35     -7.81      0.00
    1    9   35     -4.84      0.00
    3    9   35     -9.73      0.00
    5    9   35     -1.98      0.00
    7    9   35      4.83      0.00
    9    9   35      0.01      0.00
   11    9   35      5.89      0.00
    1   11   35     -4.61      0.00
    3   11   35     -8.08      0.00
    5   11   35      1.00      0.00
    7   11   35     -1.73      0.00
    9   11   35      9.74      0.00
   11   11   35     12.96      0.00
    1   13   35      5.46      0.00
    3   13   35    -15.37      0.00
    5   13   35      9.98      0.00
    7   13   35     -1.70      0.00
    9   13   35      0.80      0.00
    1   15   35    -15.47      0.00
    3   15   35     14.48      0.00
    5   15   35      0.90      0.00
    7   15   35      5.20      0.00
    9   15   35     -1.16      0.00
    1   17   35     -3.04      0.00
    3   17   35     -1.05      0.00
    5   17   35     -1.36      0.00
    7   17   35     -2.30      0.00
    1   19   35      7.23      0.00
    3   19   35     -1.75      0.00
    5   19   35      0.06      0.00
    1   21   35    -15.36      0.00
    3   21   35     -1.11      0.00
    0    0   36     17.37      0.00
    2    0   36      9.55      0.00
    4    0   36     12.92      0.00
    6    0   36     -4.14      0.00
    8    0   36     -0.72      0.00
   10    0   36    -18.93      0.00
   12    0   36      5.55      0.00
    0    2   36    -12.37      0.00
    2    2   36     -6.95      0.00
    4    2   36      0.86      0.00
    6    2   36     11.26      0.00
    8    2   36      3.33      0.00
   10    2   36     -4.85      0.00
   12    2   36     12.89      0.00
    0    4   36    -17.14      0.00
    2    4   36     -1.58      0.00
    4    4   36     -1.19      0.00
    6    4   36    -18.25      0.00
    8    4   36     -6.23      0.00
   10    4   36     -4.93      0.00
   12    4   36      8.77      0.00
    0    6   36    -10.12      0.00
    2    6   36      7.04      0.00
    4    6   36      8.83      0.00
    6    6   36      0.31      0.00
    8    6   36     11.57      0.00
   10    6   36     -2.63      0.00
   12    6   36      1.03      0.00
    0    8   36    -15.38      0.00
    2    8   36     -3.22      0.00
    4    8   36     15.58      0.00
    6    8   36     25.08      0.00
    8    8   36      2.67      0.00
   10    8   36     -3.85      0.00
   12    8   36      2.53      0.00
    0   10   36      7.86      0.00
    2   10   36      1.36      0.00
    4   10   36      4.09      0.00
    6   10   36     -5.25      0.00
    8   10   36     10.56      0.00
   10   10   36     -3.04      0.00
    0   12   36      0.76      0.00
    2   12   36    -11.68      0.00
    4   12   36     10.50      0.00
    6   12   36      6.26      0.00
    8   12   36     16.44      0.00
   10   12   36     -3.84      0.00
    0   14   36      3.40      0.00
    2   14   36      2.15      0.00
    4   14   36     -2.73      0.00
    6   14   36     -5.04      0.00
    8   14   36      6.54      0.00
    0   16   36     -8.73      0.00
    2   16   36      6.15      0.00
    4   16   36      4.74      0.00
    6   16   36      0.51      0.00
    0   18   36      7.76      0.00
    2   18   36      3.93      0.00
    4   18   36     -6.46      0.00
    1    1   37     -1.66      0.00
    3    1   37     -4.87      0.00
    5    1   37      7.07      0.00
    7    1   37      7.67      0.00
    9    1   37     -1.11      0.00
   11    1   37     -3.57      0.00
    1    3   37      6.57      0.00
    3    3   37     -0.16      0.00
    5    3   37     12.95      0.00
    7    3   37     -8.04      0.00
    9    3   37     -2.67      0.00
   11    3   37      9.98      0.00
    1    5   37     -1.97      0.00
    3    5   37     -3.92      0.00
    5    5   37     -3.43      0.00
    7    5   37     10.49      0.00
    9    5   37      6.33      0.00
   11    5   37      6.59      0.00
    1    7   37      6.75      0.00
    3    7   37      5.67      0.00
    5    7   37      3.26      0.00
    7    7   37      8.23      0.00
    9    7   37     -2.30      0.00
   11    7   37     -2.66      0.00
    1    9   37     -3.04      0.00
    3    9   37     -7.09      0.00
    5    9   37      9.54      0.00
    7    9   37      5.84      0.00
    9    9   37    -21.50      0.00
    1   11   37      6.64      0.00
    3   11   37    -14.66      0.00
    5   11   37     -9.40      0.00
    7   11   37      2.21      0.00
    9   11   37      2.41      0.00
    1   13   37      8.38      0.00
    3   13   37     -6.29      0.00
    5   13   37     -0.57      0.00
    7   13   37     -5.85      0.00
    1   15   37    -11.50      0.00
    3   15   37    -11.20      0.00
    5   15   37    -29.02      0.00
    1   17   37      5.07      0.00
    3   17   37     -7.75      0.00
    5   17   37     -7.83      0.00
    0    0   38     -3.05      0.00
    2    0   38     -3.98      0.00
    4    0   38      0.05      0.00
    6    0   38     -4.00      0.00
    8    0   38      0.51      0.00
   10    0   38      2.12      0.00
    0    2   38      1.57      0.00
    2    2   38     -4.89      0.00
    4    2   38     -5.94      0.00
    6    2   38     10.42      0.00
    8    2   38     -4.14      0.00
   10    2   38     16.26      0.00
    0    4   38    -15.16      0.00
    2    4   38     16.87      0.00
    4    4   38      0.16      0.00
    6    4   38      0.24      0.00
    8    4   38     -5.30      0.00
   10    4   38      9.65      0.00
    0    6   38      7.86      0.00
    2    6   38     13.01      0.00
    4    6   38     -7.03      0.00
    6    6   38      9.15      0.00
    8    6   38     -0.82      0.00
   10    6   38      0.24      0.00
    0    8   38      0.59      0.00
    2    8   38     11.49      0.00
    4    8   38    -10.08      0.00
    6    8   38      9.67      0.00
    8    8   38     -4.32      0.00
    0   10   38     -8.89      0.00
    2   10   38     -3.00      0.00
    4   10   38    -14.59      0.00
    6   10   38     -4.43      0.00
    8   10   38    -18.97      0.00
    0   12   38      5.35      0.00
    2   12   38      4.96      0.00
    4   12   38    -10.93      0.00
    6   12   38    -18.81      0.00
    0   14   38     -4.76      0.00
    2   14   38      4.36      0.00
    4   14   38     -6.15      0.00
    0   16   38     -9.84      0.00
    2   16   38      1.08      0.00
    1    1   39      3.02      0.00
    3    1   39      7.13      0.00
    5    1   39     -2.13      0.00
    7    1   39     -1.57      0.00
    9    1   39      9.28      0.00
    1    3   39      2.03      0.00
    3    3   39      2.04      0.00
    5    3   39      1.46      0.00
    7    3   39     -2.86      0.00
    9    3   39      7.08      0.00
    1    5   39      2.64      0.00
    3    5   39     13.09      0.00
    5    5   39     -1.13      0.00
    7    5   39      2.67      0.00
    9    5   39     -4.34      0.00
    1    7   39     -6.92      0.00
    3    7   39      7.55      0.00
    5    7   39     -9.52      0.00
    7    7   39      2.48      0.00
    1    9   39      0.83      0.00
    3    9   39      4.85      0.00
    5    9   39     -9.56      0.00
    7    9   39     -3.75      0.00
    1   11   39      3.87      0.00
    3   11   39      4.82      0.00
    5   11   39      2.93      0.00
    1   13   39     -8.04      0.00
    3   13   39      2.99      0.00
    4    0   40     10.03      0.00
    6    0   40      0.19      0.00
    4    2   40     11.75      0.00
    6    2   40      5.11      0.00
    0    4   40    -19.28      0.00
    2    4   40      1.72      0.00
    4    4   40     -5.16      0.00
    6    4   40     -4.35      0.00
    0    6   40      5.16      0.00
    2    6   40    -10.35      0.00
    4    6   40     -8.88      0.00
    6    6   40     -1.70      0.00
    0    8   40     -3.58      0.00
    2    8   40      5.69      0.00
    4    8   40      5.56      0.00
    6    8   40      0.85      0.00
    0   10   40      6.38      0.00
    2   10   40     -2.21      0.00
    4   10   40      0.65      0.00
    3    3   41     -1.83      0.00
    3    5   41      3.26      0.00
    1    7   41     -9.17      0.00
    3    7   41      1.86      0.00
    2    0    0    174.96      0.00
    8    0    0      9.21      0.00
    0    2    0    -69.57      0.00
    2    2    0   -226.37      0.00
    4    2    0     56.59      0.00
    0    4    0    135.80      0.00
    2    4    0   -103.97      0.00
    4    4    0     35.00      0.00
   10    4    0     28.59      0.00
    0    6    0    325.06      0.00
    2    6    0     90.14      0.00
    2    8    0    -88.17      0.00
    0   10    0     87.77      0.00
    4   10    0     56.65      0.00
    4   12    0     38.82      0.00
   24   12    0    -26.34      0.00
   12   16    0     18.25      0.00
   22   18    0    -11.25      0.00
   10   20    0      4.04      0.00
   22   20    0     -0.95      0.00
   20   24    0     -2.78      0.00
    0   26    0     63.43      0.00
    0   28    0     47.79      0.00
   18   28    0      2.24      0.00
    0   30    0     50.01      0.00
   16   30    0     10.49      0.00
   14   32    0      8.45      0.00
    8   34    0     13.52      0.00
   10   34    0      6.22      0.00
   12   34    0     -4.54      0.00
   10   36    0      5.32      0.00
    6   38    0     -3.02      0.00
    1    1    1    178.78      0.00
    3    1    1   -139.47      0.00
   19    1    1    -12.33      0.00
   25    1    1     29.91      0.00
    3    3    1     50.29      0.00
    5    3    1     37.85      0.00
   25    3    1     18.57      0.00
    1    5    1   -141.96      0.00
   25    5    1     12.49      0.00
   25    7    1      9.91      0.00
   23   15    1     -2.75      0.00
   23   17    1      2.66      0.00
   21   21    1      1.51      0.00
    1   25    1      5.97      0.00
   19   25    1     18.56      0.00
    1   27    1     20.27      0.00
   17   29    1      7.80      0.00
   15   31    1      3.62      0.00
    9   33    1      0.34      0.00
   13   33    1    -13.97      0.00
   11   35    1     -0.76      0.00
    1   39    1      4.15      0.00
    3   39    1      1.02      0.00
    0    0    2     65.97      0.00
    0    2    2   -196.70      0.00
    2    2    2     49.83      0.00
    4    2    2     27.43      0.00
    0    6    2   -128.76      0.00
    0    8    2    -17.59      0.00
    2    8    2    -11.20      0.00
    0   10    2    -30.90      0.00
    2   10    2    -27.97      0.00
    0   12    2    -64.81      0.00
   24   12    2     -3.92      0.00
   22   20    2      3.38      0.00
    0   24    2    -10.31      0.00
   20   24    2     -7.54      0.00
    0   26    2    -10.53      0.00
   16   30    2      0.56      0.00
   14   32    2    -11.79      0.00
   12   34    2     -5.93      0.00
   10   36    2     15.69      0.00
    6   38    2     -7.93      0.00
    1    1    3    -65.65      0.00
    5    3    3     -9.59      0.00
   25    3    3      8.43      0.00
    1    5    3      9.57      0.00
    3    5    3     82.99      0.00
    5    5    3     -3.68      0.00
   25    5    3    -19.92      0.00
    3    7    3    -16.12      0.00
    5    7    3      5.72      0.00
   25    7    3     -4.59      0.00
    3   13    3     -7.40      0.00
   23   17    3      2.45      0.00
   17   29    3     -1.77      0.00
   13   33    3     -4.12      0.00
   11   35    3      2.28      0.00
    1   39    3      3.35      0.00
    3   39    3    -12.29      0.00
    0    0    4    200.75      0.00
    4    0    4     41.62      0.00
    8    0    4    -21.69      0.00
    0    2    4     71.11      0.00
    2    2    4     71.83      0.00
    4    2    4    -33.92      0.00
    2    4    4    126.71      0.00
    4    4    4    -87.09      0.00
    4    6    4     33.40      0.00
    2    8    4     -1.94      0.00
    4    8    4     24.34      0.00
    0   12    4     43.14      0.00
   24   12    4     12.34      0.00
   20   24    4     11.30      0.00
   16   30    4     23.03      0.00
   12   34    4     -2.64      0.00
   10   36    4     -2.39      0.00
    6   38    4      3.20      0.00
    1    1    5     76.22      0.00
    1    3    5   -186.38      0.00
    3    3    5    -90.07      0.00
   25    3    5     12.02      0.00
    5    5    5     -0.28      0.00
   25    5    5     -6.75      0.00
   25    7    5     -8.58      0.00
   17   29    5     -0.12      0.00
   13   33    5      3.97      0.00
   11   35    5      1.99      0.00
    1   39    5     -3.68      0.00
    0    0    6   -112.38      0.00
    2    0    6   -125.78      0.00
    0    2    6     45.74      0.00
    2    2    6    -19.73      0.00
    0    4    6   -114.07      0.00
    2    4    6    141.64      0.00
    6    4    6     27.26      0.00
   24   12    6     10.77      0.00
   16   30    6    -11.07      0.00
   12   34    6     -7.57      0.00
   25    1    7    -19.21      0.00
    1    3    7     81.70      0.00
   25    3    7    -10.49      0.00
   25    5    7    -15.09      0.00
    5    7    7     36.67      0.00
   23   15    7     10.71      0.00
   21   21    7      5.64      0.00
   15   31    7     -8.93      0.00
   13   33    7      4.01      0.00
   11   35    7      7.14      0.00
    0    0    8     22.19      0.00
    4    0    8    -24.14      0.00
    2    2    8    -22.61      0.00
    0    4    8      4.27      0.00
    2    4    8     84.56      0.00
   22   18    8      2.11      0.00
   14   32    8     -3.34      0.00
   12   34    8     -5.20      0.00
    4   38    8     -6.79      0.00
   25    1    9     -1.06      0.00
    1    3    9    -65.23      0.00
    3    3    9    -58.89      0.00
    3    5    9    -17.71      0.00
    5    5    9      6.93      0.00
   23   15    9      0.30      0.00
   19   25    9     15.87      0.00
    7   37    9     -5.90      0.00
   24   10   10     23.45      0.00
    2   18   10     -1.38      0.00
    8   36   10      5.31      0.00
    0   38   10      2.31      0.00
    2   38   10     -1.73      0.00
    3    3   11     37.96      0.00
    5    3   11      5.87      0.00
    5   37   11     23.63      0.00
    8    4   12    -34.82      0.00
    6   14   12     12.03      0.00
   12   32   12     12.84      0.00
   10   34   12     11.64      0.00
    1    5   13    -14.45      0.00
   21   19   13     -6.22      0.00
   19   23   13     14.22      0.00
   15   29   13      2.44      0.00
   11   33   13      0.50      0.00
    3   37   13     -5.91      0.00
   24    0   14    -36.81      0.00
   24    2   14    -18.27      0.00
    2    4   14    -38.15      0.00
   24    4   14    -27.44      0.00
   14   30   14     -0.94      0.00
   12   32   14     -1.81      0.00
    6   36   14    -11.20      0.00
   23    9   15     11.59      0.00
   21   17   15      5.57      0.00
   13   31   15      1.47      0.00
    7   35   15    -11.87      0.00
    4    2   16    -18.02      0.00
   22   12   16    -13.95      0.00
   16   26   16     -7.89      0.00
    8   34   16    -14.20      0.00
    0   36   16      0.89      0.00
    2   36   16     -3.24      0.00
    4   36   16      4.51      0.00
   23    1   17    -13.43      0.00
   23    3   17     10.67      0.00
   23    5   17     -0.72      0.00
   23    7   17     -0.89      0.00
   21   15   17      7.31      0.00
   19   21   17     -6.52      0.00
   15   27   17     -7.91      0.00
   13   29   17    -14.01      0.00
   11   31   17     15.93      0.00
    9   33   17      2.73      0.00
    5   35   17     -7.78      0.00
    6    0   18    -34.39      0.00
   22    8   18      8.37      0.00
   22   10   18     -3.87      0.00
   10   14   18      1.41      0.00
   20   16   18      1.27      0.00
   20   18   18      7.67      0.00
   18   22   18     -4.01      0.00
   14   28   18     14.81      0.00
   12   30   18     -7.39      0.00
   10   32   18     -7.13      0.00
   21   11   19     -8.87      0.00
   21   13   19      1.51      0.00
   19   19   19    -27.99      0.00
   17   23   19     11.19      0.00
   15   25   19      5.51      0.00
   13   29   19      2.38      0.00
    1   35   19     -0.50      0.00
    3   35   19      1.41      0.00
   22    2   20     -1.53      0.00
   22    4   20     -1.31      0.00
   22    6   20     -5.61      0.00
    8   12   20      9.87      0.00
   20   14   20      5.83      0.00
   20   16   20     -1.28      0.00
   18   20   20     17.20      0.00
   16   24   20    -11.62      0.00
   14   26   20      0.39      0.00
    0   34   20    -23.92      0.00
    2   34   20     -2.47      0.00
    4   34   20     -4.81      0.00
   21    7   21     12.50      0.00
   21    9   21     -8.36      0.00
   21   11   21     -0.78      0.00
   19   17   21     -1.07      0.00
   17   21   21      5.41      0.00
   15   25   21     11.43      0.00
   13   27   21    -17.46      0.00
   11   29   21     -6.12      0.00
    9   31   21      5.80      0.00
    5   33   21      0.03      0.00
   20   10   22      0.57      0.00
   20   12   22      7.76      0.00
   18   18   22     12.55      0.00
   16   22   22     -9.04      0.00
   14   26   22      3.64      0.00
   12   28   22      1.99      0.00
   10   30   22      3.80      0.00
   21    7   23      3.73      0.00
   19   13   23      1.52      0.00
   19   15   23    -14.72      0.00
   17   19   23    -11.41      0.00
   15   23   23     19.36      0.00
    7   31   23    -20.00      0.00
    1   33   23     -9.09      0.00
   20   10   24      9.65      0.00
   18   16   24      8.21      0.00
   14   24   24    -18.05      0.00
    8   30   24     -0.41      0.00
    0   32   24    -10.37      0.00
    2   32   24     -0.30      0.00
    4   32   24    -13.37      0.00
   19   11   25     -8.61      0.00
   11   27   25     -4.90      0.00
    1   31   25      1.12      0.00
    3   31   25     12.40      0.00
    5   31   25    -15.24      0.00
   20    0   26      0.17      0.00
   20    2   26    -11.44      0.00
   20    4   26     -3.48      0.00
   18   14   26     -8.17      0.00
   14   22   26      5.25      0.00
    0   30   26    -21.24      0.00
   19    7   27     17.78      0.00
   17   15   27      6.05      0.00
   13   23   27     11.32      0.00
   11   25   27     -7.82      0.00
    9   27   27     -8.17      0.00
   18    8   28      5.41      0.00
   18   10   28     -7.07      0.00
   16   16   28     16.43      0.00
   14   20   28    -19.85      0.00
    6   28   28     -0.89      0.00
   17    9   29     -9.48      0.00
   17   11   29    -10.92      0.00
   15   17   29     -6.42      0.00
   11   23   29     -4.76      0.00
    9   25   29      6.57      0.00
    8    0   30      8.60      0.00
   18    0   30      8.21      0.00
   18    2   30     11.47      0.00
   16   12   30      4.91      0.00
    6   26   30     12.72      0.00
    0   28   30    -10.64      0.00
   17    5   31     -9.16      0.00
   15   13   31     -0.69      0.00
   13   17   31      5.22      0.00
   11   21   31      7.06      0.00
    9   23   31    -16.72      0.00
    1   27   31     -9.38      0.00
   16    6   32     -1.74      0.00
   16    8   32      5.04      0.00
   14   14   32      7.12      0.00
   12   18   32     -4.34      0.00
   10   20   32      4.84      0.00
    8   22   32      2.38      0.00
    6   24   32     -2.44      0.00
    0   26   32     -4.61      0.00
   15    9   33      0.53      0.00
   13   13   33     -0.69      0.00
   11   17   33      9.73      0.00
    9   19   33      6.26      0.00
   14    8   34     -6.95      0.00
   12   14   34     -8.26      0.00
   10   16   34     -3.35      0.00
   10   18   34     -3.65      0.00
    8   20   34      2.05      0.00
   13    9   35     -5.72      0.00
   11   13   35      3.55      0.00
    9   17   35      1.88      0.00
    7   19   35     -3.91      0.00
    5   21   35      2.50      0.00
   12   10   36      2.74      0.00
   10   14   36     16.45      0.00
    8   16   36     12.71      0.00
    6   18   36    -15.12      0.00
    0   20   36     -4.09      0.00
    2   20   36      0.07      0.00
    4   20   36      0.26      0.00
   11    9   37     -5.92      0.00
    9   13   37      3.46      0.00
    7   15   37      3.73      0.00
    1   19   37     15.52      0.00
    3   19   37     -0.94      0.00
   10    8   38      9.29      0.00
    8   12   38     -7.12      0.00
    6   14   38      8.40      0.00
    4   16   38    -19.20      0.00
    9    7   39      0.61      0.00
    7   11   39     -8.09      0.00
    5   13   39      6.78      0.00
    1   15   39     -0.29      0.00
    3   15   39     11.70      0.00
    0    0   40     23.01      0.00
    2    0   40      6.86      0.00
    8    0   40     13.81      0.00
    0    2   40     23.35      0.00
    2    2   40      3.61      0.00
    8    2   40     -3.55      0.00
    8    4   40     -0.69      0.00
    0   12   40     -7.09      0.00
    2   12   40    -12.55      0.00
    4   12   40      1.10      0.00
    1    1   41      3.27      0.00
    3    1   41      3.87      0.00
    5    1   41     -2.45      0.00
    1    3   41     -3.16      0.00
    5    3   41      1.06      0.00
    1    5   41      9.09      0.00
    5    5   41     -6.18      0.00
    5    7   41     -5.72      0.00
    1    9   41      9.33      0.00
    3    9   41      7.29      0.00
    0    0   42      4.53      0.00
    2    0   42     -0.25      0.00
    4    0   42      0.08      0.00
    0    2   42     -6.38      0.00
    2    2   42     -8.47      0.00
    4    2   42     -2.17      0.00
    0    4   42     -0.10      0.00
    2    4   42     14.33      0.00
    0    6   42      8.67      0.00
    0    0    0      0.00      0.00
# SQUEEZE RESULTS (Version =  80720)
# Note: Data are Listed for all Voids in the P1 Unit Cell
# i.e. Centre of Gravity, Solvent Accessible Volume,
# Recovered number of Electrons in the Void and
# Details about the Squeezed Material
loop_
  _platon_squeeze_void_nr
  _platon_squeeze_void_average_x
  _platon_squeeze_void_average_y
  _platon_squeeze_void_average_z
  _platon_squeeze_void_volume
  _platon_squeeze_void_count_electrons
  _platon_squeeze_void_content
   1 -0.011 -0.014 -0.004     16702      1842 ' '
# Missing Reflections Below sin(th)/lambda = 0.25
loop_
  _platon_missing_refln_index_h
  _platon_missing_refln_index_k
  _platon_missing_refln_index_l
  _platon_missing_refln_theta
    2    0    0     4.268
    8    0    0    17.319
    0    2    0     2.765
    2    2    0     5.088
    4    2    0     9.002
    0    4    0     5.537
    2    4    0     6.999
    4    4    0    10.218
   10    4    0    22.608
    0    6    0     8.322
    2    6    0     9.366
    2    8    0    11.937
    0   10    0    13.959
    4   10    0    16.466
    4   12    0    18.996
    1    1    1     2.846
    3    1    1     6.683
    3    3    1     7.753
    5    3    1    11.589
    1    5    1     7.365
    0    0    2     2.561
    0    2    2     3.770
    2    2    2     5.700
    4    2    2     9.365
    0    6    2     8.712
    0    8    2    11.425
    2    8    2    12.216
    0   10    2    14.201
    2   10    2    14.855
    0   12    2    17.031
    1    1    3     4.610
    5    3    3    12.157
    1    5    3     8.216
    3    5    3    10.223
    5    5    3    13.394
    3    7    3    12.312
    5    7    3    15.073
    3   13    3    19.849
    0    0    4     5.127
    4    0    4     9.998
    8    0    4    18.109
    0    2    4     5.829
    2    2    4     7.233
    4    2    4    10.381
    2    4    4     8.692
    4    4    4    11.457
    4    6    4    13.064
    2    8    4    13.021
    4    8    4    15.045
    0   12    4    17.635
    1    1    5     6.903
    1    3    5     7.944
    3    3    5    10.004
    5    5    5    14.376
    0    0    6     7.704
    2    0    6     8.820
    0    2    6     8.191
    2    2    6     9.250
    0    4    6     9.507
    2    4    6    10.437
    6    4    6    16.124
    1    3    7    10.154
    5    7    7    17.215
    0    0    8    10.296
    4    0    8    13.450
    2    2    8    11.510
    0    4    8    11.719
    2    4    8    12.493
    1    3    9    12.528
    3    3    9    13.952
    3    5    9    15.052
    5    5    9    17.417
    3    3   11    16.228
    5    3   11    18.459
    1    5   13    18.463
    2    4   14    19.614
_platon_squeeze_void_probe_radius                  1.20
_platon_squeeze_details
)
TITL zxr-zr-1         F m m m      R = 0.11
CELL   20.7170   31.9589   34.5056     90.00     90.00     90.00
SPGR Fmmm
# Solvent Accessible Volume =     16704
# Electrons Found in S.A.V. =      1780
# Note: Atoms in Void are Labelled as Cxxx and Qxxx for all Others
C101 0.011 0.499 0.203 !       1.75 eA-3
Q102 0.177 0.502 0.070 !       1.52 eA-3
C103 1.000 0.352 0.082 !       1.27 eA-3
Q104 0.866 0.461 0.001 !       1.25 eA-3
Q105 1.000 0.141 0.444 !       1.24 eA-3
C106 0.058 0.501 0.211 !       1.14 eA-3
Q107 0.721 0.024 0.070 !       1.14 eA-3
C108 1.000 0.155 0.242 !       1.10 eA-3
C109 0.905 0.498 0.219 !       1.10 eA-3
C110 0.583 0.211-0.001 !       1.05 eA-3
Q111 0.046 0.422 0.003 !       1.05 eA-3
C112 0.500 0.501 0.164 !       1.02 eA-3
Q113 1.000 0.024 0.445 !       0.97 eA-3
C114 0.018 0.308 0.112 !       0.95 eA-3
Q115 0.751 0.125 0.001 !       0.95 eA-3
Q116 0.629 0.070 0.009 !       0.95 eA-3
Q117 0.048 0.498 0.078 !       0.94 eA-3
C118 0.225 0.504 0.148 !       0.90 eA-3
C119 0.566 0.324 0.208 !       0.88 eA-3
C120 0.215 0.502 0.187 !       0.88 eA-3
Q121 0.753 0.062-0.003 !       0.87 eA-3
Q122 0.223 0.367-0.001 !       0.85 eA-3
C123 0.576 0.501 0.242 !       0.85 eA-3
C124 0.235 0.502 0.086 !       0.82 eA-3
C125 0.811 0.094 0.002 !       0.82 eA-3
C126 0.500 0.037 0.399 !       0.81 eA-3
C127 0.970 0.177 0.240 !       0.80 eA-3
C128 0.241 0.498 0.383 !       0.79 eA-3
Q129 0.500 0.070-0.001 !       0.78 eA-3
C130 0.756 0.499 0.172 !       0.78 eA-3
C131 0.500 0.220 0.123 !       0.77 eA-3
C132 0.971 0.307 0.868 !       0.77 eA-3
C133 0.471 0.307 0.368 !       0.77 eA-3
Q134 0.710 0.424 0.022 !       0.76 eA-3
C135 0.308 0.238 0.060 !       0.76 eA-3
Q136 0.779 0.500 0.055 !       0.74 eA-3
C137 0.436 0.359 0.208 !       0.74 eA-3
Q138 0.500 0.045 0.016 !       0.73 eA-3
Q139 0.764 0.452 0.024 !       0.72 eA-3
Q140 0.088 0.408 0.026 !       0.71 eA-3
Q141 0.243 0.498 0.031 !       0.71 eA-3
C142 0.107 0.109-0.002 !       0.71 eA-3
C143 0.500 0.173 0.069 !       0.71 eA-3
C144 0.901 0.250 0.001 !       0.70 eA-3
C145 1.000 0.469 0.178 !       0.70 eA-3
C146 0.175 0.499 0.242 !       0.70 eA-3
C147 0.393 0.390 0.180 !       0.70 eA-3
C148 0.778 0.164-0.002 !       0.69 eA-3
C149 0.733 0.502 0.141 !       0.68 eA-3
C150 0.710 0.501 0.281 !       0.68 eA-3
Q151 0.071 0.344 0.025 !       0.68 eA-3
C152 0.266 0.344 0.489 !       0.68 eA-3
C153 0.612 0.352 0.178 !       0.67 eA-3
C154 0.305 0.166 0.017 !       0.66 eA-3
C155 0.434 0.229 0.244 !       0.65 eA-3
C156 0.127 0.496 0.258 !       0.65 eA-3
C157 0.151 0.117-0.002 !       0.65 eA-3
C158 0.500 0.297 0.097 !       0.65 eA-3
C159 0.578 0.212 0.108 !       0.65 eA-3
Q160 1.000 0.337 0.030 !       0.64 eA-3
Q161 0.670 0.132 0.055 !       0.63 eA-3
Q162 0.451 0.038 0.007 !       0.63 eA-3
C163 0.500 0.097 0.257 !       0.62 eA-3
Q164 0.583 0.110 0.069 !       0.61 eA-3
Q165 0.156 0.328-0.002 !       0.61 eA-3
Q166 0.197 0.063 0.001 !       0.61 eA-3
C167 0.040 0.204 0.194 !       0.61 eA-3
C168 0.335 0.069 0.446 !       0.60 eA-3
C169 0.410 0.296 0.197 !       0.60 eA-3
C170 0.309 0.015 0.368 !       0.60 eA-3
C171 0.135 0.102 0.033 !       0.60 eA-3
C172 0.418 0.033 0.353 !       0.60 eA-3
C173 0.706 0.500 0.016 !       0.60 eA-3
C174 1.000 0.312 0.320 !       0.58 eA-3
Q175 0.592 0.501 0.445 !       0.58 eA-3
Q176 0.078 0.400 0.058 !       0.57 eA-3
C177 0.631 0.227 0.000 !       0.57 eA-3
C178 0.872 0.172 0.110 !       0.57 eA-3
C179 0.692 0.140 0.490 !       0.57 eA-3
C180 0.500 0.436 0.232 !       0.57 eA-3
C181 1.000 0.196 0.250 !       0.57 eA-3
C182 1.000 0.249 0.186 !       0.56 eA-3
C183 0.417 0.362 0.180 !       0.56 eA-3
C184 0.704 0.716 0.096 !       0.56 eA-3
C185 0.204 0.216 0.096 !       0.56 eA-3
C186 0.296 0.778 0.591 !       0.56 eA-3
Q187 0.092 0.437 0.003 !       0.56 eA-3
C188 0.530 0.501 0.211 !       0.55 eA-3
Q189 0.412 0.424 0.382 !       0.55 eA-3
C190 1.000 0.423 0.221 !       0.55 eA-3
Q191 0.903 0.487 0.013 !       0.55 eA-3
C192 0.259 0.218 0.438 !       0.55 eA-3
Q193 0.144 0.500 0.000 !       0.55 eA-3
C194 0.500 0.380 0.217 !       0.55 eA-3
C195 0.084 0.078 0.016 !       0.55 eA-3
C196 0.360 0.359 0.001 !       0.54 eA-3
C197 0.456 0.329 0.179 !       0.54 eA-3
C198 1.000 0.224 0.241 !       0.54 eA-3
C199 0.860 0.310 0.041 !       0.54 eA-3
)
;
_shelx_fab_checksum              46084
_platon_squeeze_void_probe_radius 1.20
_olex2_submission_special_instructions 'No special instructions were received'
_oxdiff_exptl_absorpt_empirical_details
;
Empirical correction (ABSPACK) includes:
- Absorption correction using spherical harmonics
- Frame scaling
;
_oxdiff_exptl_absorpt_empirical_full_max 1.847
_oxdiff_exptl_absorpt_empirical_full_min 0.619
loop_
_space_group_symop_operation_xyz
'x, y, z'
'-x, -y, z'
'x, -y, -z'
'-x, y, -z'
'x, y+1/2, z+1/2'
'-x, -y+1/2, z+1/2'
'x, -y+1/2, -z+1/2'
'-x, y+1/2, -z+1/2'
'x+1/2, y, z+1/2'
'-x+1/2, -y, z+1/2'
'x+1/2, -y, -z+1/2'
'-x+1/2, y, -z+1/2'
'x+1/2, y+1/2, z'
'-x+1/2, -y+1/2, z'
'x+1/2, -y+1/2, -z'
'-x+1/2, y+1/2, -z'
'-x, -y, -z'
'x, y, -z'
'-x, y, z'
'x, -y, z'
'-x, -y+1/2, -z+1/2'
'x, y+1/2, -z+1/2'
'-x, y+1/2, z+1/2'
'x, -y+1/2, z+1/2'
'-x+1/2, -y, -z+1/2'
'x+1/2, y, -z+1/2'
'-x+1/2, y, z+1/2'
'x+1/2, -y, z+1/2'
'-x+1/2, -y+1/2, -z'
'x+1/2, y+1/2, -z'
'-x+1/2, y+1/2, z'
'x+1/2, -y+1/2, z'
loop_
_atom_site_label
_atom_site_type_symbol
_atom_site_fract_x
_atom_site_fract_y
_atom_site_fract_z
_atom_site_U_iso_or_equiv
_atom_site_adp_type
_atom_site_occupancy
_atom_site_site_symmetry_order
_atom_site_calc_flag
_atom_site_refinement_flags_posn
_atom_site_refinement_flags_adp
_atom_site_refinement_flags_occupancy
_atom_site_disorder_assembly
_atom_site_disorder_group
Zr1 Zr 0.500000 0.000000 0.07080(2) 0.0761(4) Uani 1 4 d S T P . .
Zr2 Zr 0.41448(4) 0.05536(2) 0.000000 0.0807(3) Uani 1 2 d S T P . .
O1 O 0.4143(3) 0.000000 0.03488(16) 0.117(2) Uani 1 2 d S T P . .
H1 H 0.380240 0.000000 0.048582 0.175 Uiso 1 2 d R U P . .
O2 O 0.500000 0.0528(2) 0.03364(15) 0.110(2) Uani 1 2 d S T P . .
H2 H 0.500000 0.074830 0.047476 0.165 Uiso 1 2 d R U P . .
O3 O 0.4358(2) 0.04173(12) 0.10405(9) 0.0863(12) Uani 1 1 d . . . . .
O6 O 0.4235(4) 0.12381(16) 0.000000 0.114(2) Uani 1 2 d S T P . .
H6A H 0.460426 0.131248 -0.010043 0.171 Uiso 0.5 1 d R U P . .
H6B H 0.425682 0.133628 0.023650 0.171 Uiso 0.5 1 d R U P . .
O4 O 0.3809(2) 0.07899(12) 0.05858(10) 0.1016(14) Uani 1 1 d . . . . .
N1 N 0.250000 0.0951(2) 0.250000 0.143(4) Uani 1 2 d S T P . .
H1A H 0.219949 0.084630 0.265492 0.172 Uiso 0.5 1 d R U P . .
H1B H 0.242667 0.084630 0.226628 0.172 Uiso 0.5 1 d R U P . .
C11 C 0.250000 0.2264(2) 0.250000 0.075(2) Uani 1 2 d S T P B .
C2 C 0.3688(4) 0.09405(17) 0.12562(14) 0.094(2) Uani 1 1 d . . . . .
C8 C 0.2790(3) 0.16153(17) 0.21930(14) 0.093(2) Uani 1 1 d . . . . .
O5 O 0.3102(4) 0.05166(18) 0.000000 0.122(2) Uani 1 2 d S T P . .
H5A H 0.297721 0.027649 0.009110 0.183 Uiso 0.5 1 d R U P . .
H5B H 0.295301 0.051608 -0.023560 0.183 Uiso 0.5 1 d R U P . .
C5 C 0.3103(4) 0.13762(17) 0.18684(14) 0.0869(19) Uani 1 1 d . . . . .
C10 C 0.2798(3) 0.20431(16) 0.22000(14) 0.0863(19) Uani 1 1 d . . . . .
H10 H 0.300379 0.218895 0.200229 0.104 Uiso 0.5 1 calc R U P A 2
C9 C 0.250000 0.1389(2) 0.250000 0.098(3) Uani 1 2 d S T P . .
C3 C 0.3908(4) 0.0900(2) 0.16228(15) 0.110(2) Uani 1 1 d . . . . .
H3 H 0.424678 0.071808 0.167646 0.132 Uiso 1 1 calc R U . . .
C4 C 0.3622(4) 0.1133(2) 0.19237(15) 0.109(2) Uani 1 1 d . . . . .
H4 H 0.380046 0.111726 0.217062 0.131 Uiso 1 1 calc R U . . .
C7 C 0.3160(4) 0.1198(2) 0.11909(15) 0.116(3) Uani 1 1 d . . . . .
H7 H 0.298812 0.121921 0.094267 0.139 Uiso 1 1 calc R U . . .
C6 C 0.2882(4) 0.1426(2) 0.14966(16) 0.112(2) Uani 1 1 d . . . . .
H6 H 0.254644 0.161167 0.144636 0.134 Uiso 1 1 calc R U . . .
C1 C 0.3982(3) 0.0688(2) 0.09404(15) 0.089(2) Uani 1 1 d . . . . .
C12 C 0.3216(8) 0.2270(4) 0.1868(3) 0.129(6) Uani 0.5 1 d . . P B 1
H12A H 0.299584 0.224584 0.162390 0.193 Uiso 0.5 1 calc R U P B 1
H12B H 0.363152 0.213855 0.184947 0.193 Uiso 0.5 1 calc R U P B 1
H12C H 0.326935 0.255998 0.193178 0.193 Uiso 0.5 1 calc R U P B 1
loop_
_atom_site_aniso_label
_atom_site_aniso_U_11
_atom_site_aniso_U_22
_atom_site_aniso_U_33
_atom_site_aniso_U_23
_atom_site_aniso_U_13
_atom_site_aniso_U_12
Zr1 0.1395(10) 0.0554(5) 0.0335(4) 0.000 0.000 0.000
Zr2 0.1452(8) 0.0611(4) 0.0359(3) 0.000 0.000 0.0079(4)
O1 0.198(7) 0.093(4) 0.060(3) 0.000 -0.039(4) 0.000
O2 0.116(5) 0.156(6) 0.058(3) 0.031(4) 0.000 0.000
O3 0.159(4) 0.0573(19) 0.0425(18) -0.0029(17) 0.004(2) 0.001(3)
O6 0.226(8) 0.066(3) 0.050(3) 0.000 0.000 0.012(4)
O4 0.171(4) 0.082(3) 0.052(2) -0.009(2) -0.001(2) 0.033(3)
N1 0.271(12) 0.060(4) 0.099(7) 0.000 0.056(8) 0.000
C11 0.140(7) 0.049(4) 0.037(3) 0.000 0.005(4) 0.000
C2 0.182(7) 0.062(3) 0.038(3) -0.002(3) 0.004(4) 0.012(4)
C8 0.173(6) 0.060(3) 0.046(3) -0.010(3) 0.017(3) 0.006(4)
O5 0.209(8) 0.098(5) 0.060(3) 0.000 0.000 0.005(5)
C5 0.154(6) 0.063(3) 0.044(3) -0.002(3) 0.015(3) 0.015(4)
C10 0.162(6) 0.052(3) 0.044(3) 0.003(2) 0.007(3) 0.009(4)
C9 0.181(10) 0.057(4) 0.058(4) 0.000 0.018(5) 0.000
C3 0.191(7) 0.093(5) 0.046(3) -0.012(3) -0.003(4) 0.036(5)
C4 0.184(7) 0.097(5) 0.046(3) -0.020(3) -0.006(4) 0.037(5)
C7 0.192(8) 0.112(5) 0.043(3) -0.003(3) 0.009(4) 0.038(6)
C6 0.185(7) 0.099(5) 0.053(3) -0.002(3) 0.009(4) 0.037(5)
C1 0.150(6) 0.075(4) 0.042(3) -0.008(3) 0.009(3) 0.002(4)
C12 0.252(18) 0.076(8) 0.058(6) 0.013(6) 0.048(9) 0.011(10)
loop_
_atom_type_symbol
_atom_type_description
_atom_type_scat_dispersion_real
_atom_type_scat_dispersion_imag
_atom_type_scat_source
C C 0.0181 0.0091 'International Tables Vol C Tables 4.2.6.8 and 6.1.1.4'
H H 0.0000 0.0000 'International Tables Vol C Tables 4.2.6.8 and 6.1.1.4'
N N 0.0311 0.0180 'International Tables Vol C Tables 4.2.6.8 and 6.1.1.4'
O O 0.0492 0.0322 'International Tables Vol C Tables 4.2.6.8 and 6.1.1.4'
Zr Zr -0.1862 2.2449 'International Tables Vol C Tables 4.2.6.8 and 6.1.1.4'
loop_
_geom_angle_atom_site_label_1
_geom_angle_atom_site_label_2
_geom_angle_atom_site_label_3
_geom_angle
_geom_angle_site_symmetry_1
_geom_angle_site_symmetry_3
_geom_angle_publ_flag
Zr2 Zr1 Zr2 60.85(3) 19_655 . ?
Zr2 Zr1 Zr2 60.76(2) 17_655 19_655 ?
Zr2 Zr1 Zr2 91.40(2) 3 19_655 ?
Zr2 Zr1 Zr2 60.76(2) 3 . ?
Zr2 Zr1 Zr2 91.40(2) 17_655 . ?
Zr2 Zr1 Zr2 60.85(3) 3 17_655 ?
O1 Zr1 Zr2 35.41(9) 2_655 19_655 ?
O1 Zr1 Zr2 90.88(16) 2_655 3 ?
O1 Zr1 Zr2 35.41(9) 2_655 17_655 ?
O1 Zr1 Zr2 90.88(16) . 17_655 ?
O1 Zr1 Zr2 90.88(16) 2_655 . ?
O1 Zr1 Zr2 35.40(9) . . ?
O1 Zr1 Zr2 90.88(16) . 19_655 ?
O1 Zr1 Zr2 35.40(9) . 3 ?
O1 Zr1 O1 110.1(4) 2_655 . ?
O1 Zr1 O3 142.39(10) 2_655 20 ?
O1 Zr1 O3 142.39(10) . 2_655 ?
O1 Zr1 O3 78.66(18) 2_655 2_655 ?
O1 Zr1 O3 78.67(18) . 20 ?
O1 Zr1 O3 78.66(18) 2_655 19_655 ?
O1 Zr1 O3 142.39(10) 2_655 . ?
O1 Zr1 O3 78.66(18) . . ?
O1 Zr1 O3 142.39(10) . 19_655 ?
O2 Zr1 Zr2 34.39(8) . 19_655 ?
O2 Zr1 Zr2 34.39(8) 2_655 17_655 ?
O2 Zr1 Zr2 88.87(15) 2_655 . ?
O2 Zr1 Zr2 88.88(15) . 3 ?
O2 Zr1 Zr2 88.88(15) . 17_655 ?
O2 Zr1 Zr2 88.87(15) 2_655 19_655 ?
O2 Zr1 Zr2 34.39(8) 2_655 3 ?
O2 Zr1 Zr2 34.40(8) . . ?
O2 Zr1 O1 69.74(13) 2_655 . ?
O2 Zr1 O1 69.74(13) 2_655 2_655 ?
O2 Zr1 O1 69.74(13) . 2_655 ?
O2 Zr1 O1 69.74(13) . . ?
O2 Zr1 O2 105.6(3) . 2_655 ?
O2 Zr1 O3 142.77(11) . 2_655 ?
O2 Zr1 O3 80.38(17) . . ?
O2 Zr1 O3 80.38(17) 2_655 20 ?
O2 Zr1 O3 80.38(17) 2_655 2_655 ?
O2 Zr1 O3 80.38(17) . 19_655 ?
O2 Zr1 O3 142.77(11) . 20 ?
O2 Zr1 O3 142.77(11) 2_655 19_655 ?
O2 Zr1 O3 142.77(11) 2_655 . ?
O3 Zr1 Zr2 75.64(10) 19_655 19_655 ?
O3 Zr1 Zr2 167.05(10) . 17_655 ?
O3 Zr1 Zr2 167.04(10) 20 19_655 ?
O3 Zr1 Zr2 167.04(10) 19_655 3 ?
O3 Zr1 Zr2 111.33(11) 19_655 17_655 ?
O3 Zr1 Zr2 167.04(10) 2_655 . ?
O3 Zr1 Zr2 111.27(10) . 19_655 ?
O3 Zr1 Zr2 111.33(11) . 3 ?
O3 Zr1 Zr2 111.33(11) 2_655 19_655 ?
O3 Zr1 Zr2 111.33(11) 20 . ?
O3 Zr1 Zr2 111.27(10) 20 17_655 ?
O3 Zr1 Zr2 75.64(10) . . ?
O3 Zr1 Zr2 111.27(10) 19_655 . ?
O3 Zr1 Zr2 75.64(10) 20 3 ?
O3 Zr1 Zr2 111.27(10) 2_655 3 ?
O3 Zr1 Zr2 75.64(10) 2_655 17_655 ?
O3 Zr1 O3 117.3(2) 19_655 20 ?
O3 Zr1 O3 74.2(2) . 19_655 ?
O3 Zr1 O3 117.3(2) . 2_655 ?
O3 Zr1 O3 74.43(19) 19_655 2_655 ?
O3 Zr1 O3 74.2(2) 20 2_655 ?
O3 Zr1 O3 74.43(19) . 20 ?
Zr1 Zr2 Zr1 88.59(2) 17_655 . ?
Zr1 Zr2 Zr2 59.618(12) . 3 ?
Zr1 Zr2 Zr2 59.573(14) . 19_655 ?
Zr1 Zr2 Zr2 59.618(12) 17_655 3 ?
Zr1 Zr2 Zr2 59.573(14) 17_655 19_655 ?
Zr2 Zr2 Zr2 90.0 3 19_655 ?
O1 Zr2 Zr1 35.88(16) 18 17_655 ?
O1 Zr2 Zr1 35.88(16) . . ?
O1 Zr2 Zr1 88.59(16) . 17_655 ?
O1 Zr2 Zr1 88.59(16) 18 . ?
O1 Zr2 Zr2 90.08(19) 18 19_655 ?
O1 Zr2 Zr2 34.23(12) . 3 ?
O1 Zr2 Zr2 34.23(12) 18 3 ?
O1 Zr2 Zr2 90.08(19) . 19_655 ?
O1 Zr2 O1 68.5(2) . 18 ?
O1 Zr2 O6 145.48(12) . . ?
O1 Zr2 O6 145.48(12) 18 . ?
O1 Zr2 O4 76.91(17) 18 18 ?
O1 Zr2 O4 140.93(17) . 18 ?
O1 Zr2 O4 140.94(17) 18 . ?
O1 Zr2 O4 76.91(17) . . ?
O1 Zr2 O5 87.3(2) 18 . ?
O1 Zr2 O5 87.3(2) . . ?
O2 Zr2 Zr1 86.55(15) 18 . ?
O2 Zr2 Zr1 86.55(15) . 17_655 ?
O2 Zr2 Zr1 34.41(15) . . ?
O2 Zr2 Zr1 34.42(15) 18 17_655 ?
O2 Zr2 Zr2 33.29(12) . 19_655 ?
O2 Zr2 Zr2 87.82(18) 18 3 ?
O2 Zr2 Zr2 33.29(12) 18 19_655 ?
O2 Zr2 Zr2 87.82(18) . 3 ?
O2 Zr2 O1 70.2(2) 18 18 ?
O2 Zr2 O1 106.1(3) 18 . ?
O2 Zr2 O1 70.2(2) . . ?
O2 Zr2 O1 106.1(3) . 18 ?
O2 Zr2 O2 66.4(2) 18 . ?
O2 Zr2 O6 88.1(3) . . ?
O2 Zr2 O6 88.1(3) 18 . ?
O2 Zr2 O4 77.35(17) 18 18 ?
O2 Zr2 O4 139.23(18) . 18 ?
O2 Zr2 O4 139.23(18) 18 . ?
O2 Zr2 O4 77.35(17) . . ?
O2 Zr2 O5 146.36(12) 18 . ?
O2 Zr2 O5 146.36(12) . . ?
O6 Zr2 Zr1 117.45(12) . . ?
O6 Zr2 Zr1 117.45(12) . 17_655 ?
O6 Zr2 Zr2 175.14(19) . 3 ?
O6 Zr2 Zr2 85.14(19) . 19_655 ?
O6 Zr2 O4 72.19(13) . 18 ?
O6 Zr2 O4 72.19(13) . . ?
O4 Zr2 Zr1 161.18(10) . 17_655 ?
O4 Zr2 Zr1 161.18(10) 18 . ?
O4 Zr2 Zr1 72.61(10) . . ?
O4 Zr2 Zr1 72.61(10) 18 17_655 ?
O4 Zr2 Zr2 107.87(12) . 19_655 ?
O4 Zr2 Zr2 109.46(10) . 3 ?
O4 Zr2 Zr2 109.46(10) 18 3 ?
O4 Zr2 Zr2 107.87(12) 18 19_655 ?
O4 Zr2 O4 126.1(2) 18 . ?
O5 Zr2 Zr1 118.55(10) . . ?
O5 Zr2 Zr1 118.56(10) . 17_655 ?
O5 Zr2 Zr2 86.86(16) . 3 ?
O5 Zr2 Zr2 176.86(16) . 19_655 ?
O5 Zr2 O6 98.0(3) . . ?
O5 Zr2 O4 73.25(14) . . ?
O5 Zr2 O4 73.25(14) . 18 ?
Zr1 O1 H1 111.3 . . ?
Zr2 O1 Zr1 108.7(2) . . ?
Zr2 O1 Zr1 108.7(2) 3 . ?
Zr2 O1 Zr2 111.5(2) 3 . ?
Zr2 O1 H1 108.3 3 . ?
Zr2 O1 H1 108.3 . . ?
Zr1 O2 H2 108.6 . . ?
Zr2 O2 Zr1 111.2(2) 19_655 . ?
Zr2 O2 Zr1 111.2(2) . . ?
Zr2 O2 Zr2 113.4(2) 19_655 . ?
Zr2 O2 H2 106.0 19_655 . ?
Zr2 O2 H2 106.0 . . ?
C1 O3 Zr1 132.1(3) . . ?
Zr2 O6 H6A 110.2 . . ?
Zr2 O6 H6A 110.2(17) . 18 ?
Zr2 O6 H6B 111.2 . . ?
Zr2 O6 H6B 111.20(10) . 18 ?
H6A O6 H6A 46.7 . 18 ?
H6A O6 H6B 59.1 . 18 ?
H6A O6 H6B 103.1 . . ?
H6A O6 H6B 103.1 18 18 ?
H6B O6 H6A 59.1 . 18 ?
H6B O6 H6B 137.5 . 18 ?
C1 O4 Zr2 131.5(4) . . ?
H1A N1 H1A 135.8 . 12 ?
H1A N1 H1B 106.7 12 12 ?
H1A N1 H1B 55.2 . 12 ?
H1A N1 H1B 106.7 . . ?
H1B N1 H1A 55.2 . 12 ?
H1B N1 H1B 135.8 . 12 ?
C9 N1 H1A 112.102(6) . 12 ?
C9 N1 H1A 112.1 . . ?
C9 N1 H1B 112.1 . . ?
C9 N1 H1B 112.10(3) . 12 ?
C10 C11 C11 120.4(3) . 14 ?
C10 C11 C11 120.4(3) 12 14 ?
C10 C11 C10 119.3(6) . 12 ?
C3 C2 C7 118.4(6) . . ?
C3 C2 C1 119.8(7) . . ?
C7 C2 C1 121.7(5) . . ?
C10 C8 C5 121.1(5) . . ?
C10 C8 C9 120.1(5) . . ?
C9 C8 C5 118.7(5) . . ?
Zr2 O5 H5A 110.2 . . ?
Zr2 O5 H5A 110.2(16) . 18 ?
Zr2 O5 H5B 110.79(9) . 18 ?
Zr2 O5 H5B 110.8 . . ?
H5A O5 H5A 42.4 . 18 ?
H5A O5 H5B 63.5 . 18 ?
H5A O5 H5B 103.3 18 18 ?
H5A O5 H5B 103.3 . . ?
H5B O5 H5A 63.5 . 18 ?
H5B O5 H5B 138.4 . 18 ?
C4 C5 C8 122.3(5) . . ?
C4 C5 C6 117.9(5) . . ?
C6 C5 C8 119.7(6) . . ?
C11 C10 H10 119.5 . . ?
C11 C10 C12 122.6(6) . . ?
C8 C10 C11 120.9(5) . . ?
C8 C10 H10 119.5 . . ?
C8 C10 C12 116.3(6) . . ?
N1 C9 C8 120.7(3) . . ?
N1 C9 C8 120.7(3) . 12 ?
C8 C9 C8 118.6(7) 12 . ?
C2 C3 H3 120.1 . . ?
C2 C3 C4 119.9(7) . . ?
C4 C3 H3 120.1 . . ?
C5 C4 C3 122.6(6) . . ?
C5 C4 H4 118.7 . . ?
C3 C4 H4 118.7 . . ?
C2 C7 H7 119.7 . . ?
C2 C7 C6 120.6(6) . . ?
C6 C7 H7 119.7 . . ?
C5 C6 C7 120.3(6) . . ?
C5 C6 H6 119.8 . . ?
C7 C6 H6 119.8 . . ?
O3 C1 O4 128.0(5) . . ?
O3 C1 C2 116.2(5) . . ?
O4 C1 C2 115.9(6) . . ?
C10 C12 H12A 109.5 . . ?
C10 C12 H12B 109.5 . . ?
C10 C12 H12C 109.5 . . ?
H12A C12 H12B 109.5 . . ?
H12A C12 H12C 109.5 . . ?
H12B C12 H12C 109.5 . . ?
loop_
_geom_bond_atom_site_label_1
_geom_bond_atom_site_label_2
_geom_bond_distance
_geom_bond_site_symmetry_2
_geom_bond_publ_flag
Zr1 Zr2 3.4983(8) 3 ?
Zr1 Zr2 3.4983(8) . ?
Zr1 Zr2 3.4983(8) 17_655 ?
Zr1 Zr2 3.4983(8) 19_655 ?
Zr1 O1 2.165(6) . ?
Zr1 O1 2.165(6) 2_655 ?
Zr1 O2 2.121(6) 2_655 ?
Zr1 O2 2.121(6) . ?
Zr1 O3 2.205(4) . ?
Zr1 O3 2.205(4) 2_655 ?
Zr1 O3 2.205(4) 20 ?
Zr1 O3 2.205(4) 19_655 ?
Zr2 Zr2 3.5386(13) 3 ?
Zr2 Zr2 3.5433(18) 19_655 ?
Zr2 O1 2.140(3) . ?
Zr2 O1 2.140(3) 18 ?
Zr2 O2 2.120(3) . ?
Zr2 O2 2.119(3) 18 ?
Zr2 O6 2.195(5) . ?
Zr2 O4 2.267(4) 18 ?
Zr2 O4 2.267(4) . ?
Zr2 O5 2.163(7) . ?
O1 H1 0.8498 . ?
O2 H2 0.8497 . ?
O3 C1 1.215(7) . ?
O6 H6A 0.8736 . ?
O6 H6A 0.87(7) 18 ?
O6 H6B 0.876(4) 18 ?
O6 H6B 0.8755 . ?
O4 C1 1.316(6) . ?
N1 H1A 0.8857 12 ?
N1 H1A 0.8857 . ?
N1 H1B 0.8857 12 ?
N1 H1B 0.8858 . ?
N1 C9 1.401(9) . ?
C11 C11 1.508(13) 14 ?
C11 C10 1.397(6) 12 ?
C11 C10 1.397(6) . ?
C2 C3 1.350(7) . ?
C2 C7 1.387(8) . ?
C2 C1 1.486(8) . ?
C8 C5 1.502(7) . ?
C8 C10 1.368(7) . ?
C8 C9 1.417(6) . ?
O5 H5A 0.87(6) 18 ?
O5 H5A 0.8687 . ?
O5 H5B 0.8697 . ?
O5 H5B 0.870(3) 18 ?
C5 C4 1.341(8) . ?
C5 C6 1.371(8) . ?
C10 H10 0.9300 . ?
C10 C12 1.609(12) . ?
C3 H3 0.9300 . ?
C3 C4 1.408(8) . ?
C4 H4 0.9300 . ?
C7 H7 0.9300 . ?
C7 C6 1.406(8) . ?
C6 H6 0.9300 . ?
C12 H12A 0.9600 . ?
C12 H12B 0.9600 . ?
C12 H12C 0.9600 . ?
loop_
_geom_torsion_atom_site_label_1
_geom_torsion_atom_site_label_2
_geom_torsion_atom_site_label_3
_geom_torsion_atom_site_label_4
_geom_torsion
_geom_torsion_site_symmetry_1
_geom_torsion_site_symmetry_2
_geom_torsion_site_symmetry_3
_geom_torsion_site_symmetry_4
_geom_torsion_publ_flag
Zr1 O3 C1 O4 6.1(11) . . . . ?
Zr1 O3 C1 C2 -172.9(4) . . . . ?
Zr2 O4 C1 O3 -4.0(11) . . . . ?
Zr2 O4 C1 C2 175.0(4) . . . . ?
C11 C11 C10 C8 -178.8(5) 14 . . . ?
C11 C11 C10 C12 6.7(9) 14 . . . ?
C2 C3 C4 C5 4.9(11) . . . . ?
C2 C7 C6 C5 -4.3(11) . . . . ?
C8 C5 C4 C3 178.4(6) . . . . ?
C8 C5 C6 C7 -178.6(6) . . . . ?
C5 C8 C10 C11 179.2(5) . . . . ?
C5 C8 C10 C12 -5.9(12) . . . . ?
C5 C8 C9 N1 -0.4(7) . . . . ?
C5 C8 C9 C8 179.6(7) . . . 12 ?
C10 C11 C10 C8 1.2(5) 12 . . . ?
C10 C11 C10 C12 -173.3(9) 12 . . . ?
C10 C8 C5 C4 113.8(7) . . . . ?
C10 C8 C5 C6 -61.8(10) . . . . ?
C10 C8 C9 N1 -178.8(5) . . . . ?
C10 C8 C9 C8 1.2(5) . . . 12 ?
C9 C8 C5 C4 -64.5(9) . . . . ?
C9 C8 C5 C6 119.8(6) . . . . ?
C9 C8 C10 C11 -2.5(9) . . . . ?
C9 C8 C10 C12 172.5(8) . . . . ?
C3 C2 C7 C6 3.2(11) . . . . ?
C3 C2 C1 O3 8.8(10) . . . . ?
C3 C2 C1 O4 -170.4(6) . . . . ?
C4 C5 C6 C7 5.6(11) . . . . ?
C7 C2 C3 C4 -3.3(11) . . . . ?
C7 C2 C1 O3 -166.5(6) . . . . ?
C7 C2 C1 O4 14.3(10) . . . . ?
C6 C5 C4 C3 -5.9(11) . . . . ?
C1 C2 C3 C4 -178.8(6) . . . . ?
C1 C2 C7 C6 178.6(6) . . . . ?
loop_
_platon_squeeze_void_nr
_platon_squeeze_void_average_x
_platon_squeeze_void_average_y
_platon_squeeze_void_average_z
_platon_squeeze_void_volume
_platon_squeeze_void_count_electrons
_platon_squeeze_void_content
1 -0.011 -0.014 -0.004 16702 1842 ' '
