#------------------------------------------------------------------------------
#$Date: 2020-08-06 15:53:07 +0300 (Thu, 06 Aug 2020) $
#$Revision: 254881 $
#$URL: file:///home/coder/svn-repositories/cod/cif/7/12/66/7126683.cif $
#------------------------------------------------------------------------------
#
# This file is available in the Crystallography Open Database (COD),
# http://www.crystallography.net/
#
# All data on this site have been placed in the public domain by the
# contributors.
#
data_7126683
loop_
_publ_author_name
'Delmas, Luke C.'
'White, Andrew J. P.'
'Pugh, David'
'Evans, Arwyn'
'Isbell, Mark Antonin'
'Heng, Jerry Y. Y.'
'Lickiss, Paul D.'
'Davies, Robert P.'
_publ_section_title
;
 Stable metal-organic frameworks with low water affinity built from
 methyl-siloxane linkers.
;
_journal_issue                   57
_journal_name_full
'Chemical communications (Cambridge, England)'
_journal_page_first              7905
_journal_page_last               7908
_journal_paper_doi               10.1039/d0cc01186j
_journal_volume                  56
_journal_year                    2020
_chemical_formula_moiety         'C21 H25 Hf1.5 N2 O8.5 Si, C3 H7 N O'
_chemical_formula_sum            'C24 H32 Hf1.5 N3 O9.5 Si'
_chemical_formula_weight         810.35
_space_group_crystal_system      orthorhombic
_space_group_IT_number           72
_space_group_name_Hall           '-I 2 2c'
_space_group_name_H-M_alt        'I b a m'
_atom_sites_solution_hydrogens   geom
_audit_creation_method           SHELXL-2018/3
_audit_update_record
;
2019-08-29 deposited with the CCDC.	2020-06-04 downloaded from the CCDC.
;
_cell_angle_alpha                90
_cell_angle_beta                 90
_cell_angle_gamma                90
_cell_formula_units_Z            16
_cell_length_a                   17.21910(16)
_cell_length_b                   30.6244(2)
_cell_length_c                   27.1584(3)
_cell_measurement_reflns_used    71522
_cell_measurement_temperature    100(2)
_cell_measurement_theta_max      70.3030
_cell_measurement_theta_min      5.1810
_cell_volume                     14321.3(2)
_computing_cell_refinement       'CrysAlisPro 1.171.38.46 (Rigaku OD, 2015)'
_computing_data_collection       'CrysAlisPro 1.171.38.46 (Rigaku OD, 2015)'
_computing_data_reduction        'CrysAlisPro 1.171.38.46 (Rigaku OD, 2015)'
_computing_molecular_graphics    'Bruker SHELXTL'
_computing_publication_material  'CIFTAB-2014 (Sheldrick, 2017)'
_computing_structure_refinement  'SHELXL-2018/3 (Sheldrick, 2018)'
_computing_structure_solution    'SHELXS-2014 (Sheldrick, 2017)'
_diffrn_ambient_temperature      100(2)
_diffrn_measured_fraction_theta_full 0.998
_diffrn_measured_fraction_theta_max 0.992
_diffrn_measurement_device_type  'XtaLAB AFC11 (RCD3): quarter-chi single'
_diffrn_measurement_method       'omega scans'
_diffrn_radiation_type           CuK\a
_diffrn_radiation_wavelength     1.54184
_diffrn_reflns_av_R_equivalents  0.0632
_diffrn_reflns_av_unetI/netI     0.0163
_diffrn_reflns_Laue_measured_fraction_full 0.998
_diffrn_reflns_Laue_measured_fraction_max 0.992
_diffrn_reflns_limit_h_max       20
_diffrn_reflns_limit_h_min       -20
_diffrn_reflns_limit_k_max       37
_diffrn_reflns_limit_k_min       -37
_diffrn_reflns_limit_l_max       33
_diffrn_reflns_limit_l_min       -33
_diffrn_reflns_number            129803
_diffrn_reflns_point_group_measured_fraction_full 0.998
_diffrn_reflns_point_group_measured_fraction_max 0.992
_diffrn_reflns_theta_full        67.684
_diffrn_reflns_theta_max         70.675
_diffrn_reflns_theta_min         4.193
_diffrn_source                   'fine-focus sealed X-ray tube'
_exptl_absorpt_coefficient_mu    8.665
_exptl_absorpt_correction_T_max  1.00000
_exptl_absorpt_correction_T_min  0.51073
_exptl_absorpt_correction_type   multi-scan
_exptl_absorpt_process_details
; 
CrysAlisPro 1.171.38.46 (Rigaku Oxford Diffraction, 2015) 
Empirical absorption correction using spherical harmonics, 
 implemented in SCALE3 ABSPACK scaling algorithm. 
;
_exptl_crystal_colour            colourless
_exptl_crystal_density_diffrn    1.503
_exptl_crystal_description       plate
_exptl_crystal_F_000             6320
_exptl_crystal_size_max          0.100
_exptl_crystal_size_mid          0.025
_exptl_crystal_size_min          0.010
_refine_diff_density_max         1.863
_refine_diff_density_min         -1.303
_refine_diff_density_rms         0.163
_refine_ls_extinction_method     none
_refine_ls_goodness_of_fit_ref   1.083
_refine_ls_hydrogen_treatment    constr
_refine_ls_matrix_type           full
_refine_ls_number_parameters     262
_refine_ls_number_reflns         6986
_refine_ls_number_restraints     18
_refine_ls_restrained_S_all      1.084
_refine_ls_R_factor_all          0.0502
_refine_ls_R_factor_gt           0.0495
_refine_ls_shift/su_max          0.001
_refine_ls_shift/su_mean         0.000
_refine_ls_structure_factor_coef Fsqd
_refine_ls_weighting_details
'w=1/[\s^2^(Fo^2^)+(0.0860P)^2^+93.3056P] where P=(Fo^2^+2Fc^2^)/3'
_refine_ls_weighting_scheme      calc
_refine_ls_wR_factor_gt          0.1438
_refine_ls_wR_factor_ref         0.1446
_reflns_Friedel_coverage         0.000
_reflns_number_gt                6809
_reflns_number_total             6986
_reflns_threshold_expression     'I > 2\s(I)'
_cod_data_source_file            d0cc01186j2.cif
_cod_data_source_block           IMP-32-Hf
_cod_depositor_comments
'Adding full bibliography for 7126681--7126683.cif.'
_cod_original_formula_sum        'C24 H32 Hf1.50 N3 O9.50 Si'
_cod_database_code               7126683
_shelx_shelxl_version_number     2018/3
_shelx_space_group_comment
; 
The symmetry employed for this shelxl refinement is uniquely defined 
by the following loop, which should always be used as a source of 
symmetry information in preference to the above space-group names. 
They are only intended as comments. 
;
_shelx_res_file
; 
TITL 2017ncs0665 in Ibam 
    2017ncs0665.res 
    created by SHELXL-2018/3 at 11:42:53 on 20-Aug-2019 
REM Ibam (#72, found as Icma in a-cb setting) 
CELL 1.54184  17.219102  30.624448  27.158431  90.0000  90.0000  90.0000 
ZERR   16.00   0.000163   0.000244   0.000250   0.0000   0.0000   0.0000 
LATT  2 
SYMM -x,-y, z 
SYMM -x+1/2, y+1/2,-z 
SYMM  x+1/2,-y+1/2,-z 
SFAC C H N O Si Hf 
UNIT 384 512 48 152 16 24 
TEMP -173 
  
L.S. 6 
OMIT     0  10   4 
OMIT     2   4   0 
OMIT     5   2   3 
FMAP 2 
PLAN 10 
  
ACTA 
  
ABIN 
  
REM 0.5(C30H22O9Si2) 2(O) 2(C3H7NO) Hf1.5, C3H7NO 
REM (C15 H11 O4.5 Si) (O2) (C6 H14 N2 O2) Hf1.5, C3 H7 N O 
REM 'C21 H25 Hf1.5 N2 O8.5 Si, C3 H7 N O' 
REM C24 H32 N3 O9.5 Si Hf1.5 
  
REM For charge balance, O50, O60 and O70 have all been presumed to be O(2-) 
  
REM SQUEEZE suggested 1708 e/cell = 106.8 e/asu 
  
REM The solvent used was dmf (C3H7NO, 40e) 
  
REM Before the use of SQUEEZE, electron density peaks were found bound to O30 
REM and O40, so they were presumed to be coordinated dmf solvent molecules. 
REM As SQUEEZE does not remove electron density that is within bonding 
REM distance of defined atoms, to remove all of this electron density, O30 
REM and O40 were removed from the atom list before SQUEEZE, than added back 
REM in afterwards. 
  
REM So, 2(C3H7N) = 64 e/asu of that removed by SQUEEZE would be due to the 
REM coordinated solvent, leaving 106.8 - 64 = 42.8 e/asu for the included 
REM solvent. 
  
REM 1(C3H7NO) = 40e, so this was used as the solvent present 
  
REM So, the atom list is low by 2(C3H7N) + (C3H7NO) = 
REM (C6 H14 N2) + (C3 H7 N O) = C9 H21 N3 O, and the UNIT is low 
REM by C144 H336 N48 O16, i.e. C240 H176 N0 O136 Si16 Hf24 
  
REM SQUEEZE suggested 120 variables 
  
SIMU 0.02 0.02 1 HF1 HF1' 
SIMU 0.02 0.02 1 HF2 HF2' 
SIMU 0.02 0.02 1 O60 O60' 
  
WGHT    0.086000   93.305603 
FVAR       0.60772   0.84812   0.89741   0.62097 
PART   1 
HF1   6    0.399251    0.491494    0.564961    21.00000    0.05799    0.01895 = 
         0.03351    0.00183    0.01001   -0.00272 
PART   2 
HF1'  6    0.397959    0.503245    0.564980   -21.00000    0.13346    0.05658 = 
         0.04128   -0.00407    0.01218    0.01024 
PART   1 
HF2   6    0.521573    0.421462    0.500000    30.50000    0.05396    0.01549 = 
         0.02397    0.00000    0.00000   -0.00305 
PART   2 
HF2'  6    0.479298    0.421173    0.500000   -30.50000    0.10059    0.01785 = 
         0.04113    0.00000    0.00000    0.00294 
PART   0 
O1    4    0.250000    0.250000    0.750000    10.50000    0.13732    0.06537 = 
         0.06577   -0.00228    0.02787   -0.05469 
SI2   5    0.313419    0.230675    0.712233    11.00000    0.09456    0.04651 = 
         0.04673    0.01130   -0.01140   -0.03532 
C3    1    0.342868    0.278394    0.672468    11.00000    0.09148    0.04142 = 
         0.04845    0.00806    0.00111   -0.02142 
C4    1    0.303473    0.317391    0.675852    11.00000    0.12336    0.05093 = 
         0.08847    0.01303    0.04080   -0.00741 
AFIX  43 
H4A   2    0.260579    0.319857    0.697676    11.00000   -1.20000 
AFIX   0 
C5    1    0.325816    0.353446    0.647552    11.00000    0.11429    0.05217 = 
         0.09010    0.02332    0.03776   -0.00777 
AFIX  43 
H5A   2    0.300221    0.380694    0.651573    11.00000   -1.20000 
AFIX   0 
C6    1    0.384444    0.349285    0.614207    11.00000    0.09507    0.03370 = 
         0.05426    0.00722    0.00886   -0.01403 
C7    1    0.424041    0.310262    0.610926    11.00000    0.11981    0.04173 = 
         0.09018    0.01760    0.04453   -0.00312 
AFIX  43 
H7A   2    0.466421    0.307877    0.588691    11.00000   -1.20000 
AFIX   0 
C8    1    0.403575    0.274464    0.639229    11.00000    0.12202    0.04439 = 
         0.09031    0.02180    0.03355   -0.00278 
AFIX  43 
H8A   2    0.430718    0.247616    0.635924    11.00000   -1.20000 
AFIX   0 
C9    1    0.407923    0.386876    0.582037    11.00000    0.08811    0.03123 = 
         0.05343    0.00082    0.01606   -0.01386 
O10   4    0.377304    0.423347    0.591943    11.00000    0.09933    0.02929 = 
         0.06683    0.01554    0.03386   -0.00435 
O11   4    0.455696    0.378854    0.548992    11.00000    0.08348    0.02557 = 
         0.04085   -0.00026    0.00717   -0.01043 
C12   1    0.265800    0.188081    0.672586    11.00000    0.10155    0.04822 = 
         0.04097    0.00920   -0.01595   -0.03175 
C13   1    0.210032    0.200576    0.638619    11.00000    0.12501    0.03667 = 
         0.08287    0.00956   -0.04520   -0.02156 
AFIX  43 
H13A  2    0.196571    0.230546    0.635674    11.00000   -1.20000 
AFIX   0 
C14   1    0.173312    0.169835    0.608658    11.00000    0.11491    0.04679 = 
         0.07054    0.00523   -0.04042   -0.01379 
AFIX  43 
H14A  2    0.137249    0.179094    0.584331    11.00000   -1.20000 
AFIX   0 
C15   1    0.189059    0.126952    0.614264    11.00000    0.08884    0.03630 = 
         0.05897    0.00020   -0.01356   -0.01654 
C16   1    0.242474    0.113559    0.649323    11.00000    0.13069    0.04426 = 
         0.07945    0.00192   -0.04868   -0.01354 
AFIX  43 
H16A  2    0.252839    0.083317    0.653511    11.00000   -1.20000 
AFIX   0 
C17   1    0.281053    0.143997    0.678441    11.00000    0.12367    0.05193 = 
         0.08790    0.01089   -0.05110   -0.02558 
AFIX  43 
H17A  2    0.317770    0.134556    0.702281    11.00000   -1.20000 
AFIX   0 
C18   1    0.148112    0.093340    0.582475    11.00000    0.07132    0.04197 = 
         0.04361   -0.00413   -0.01832   -0.00135 
O19   4    0.105957    0.109069    0.548771    11.00000    0.07624    0.03119 = 
         0.04203   -0.00319   -0.00674   -0.00816 
O20   4    0.158238    0.054301    0.591632    11.00000    0.10047    0.03326 = 
         0.07203    0.00389   -0.03288   -0.01445 
C21   1    0.394581    0.209069    0.747354    11.00000    0.13331    0.07498 = 
         0.07842    0.02618   -0.04175   -0.05355 
AFIX  33 
H21A  2    0.433593    0.197205    0.724743    11.00000   -1.50000 
H21B  2    0.417807    0.232506    0.767021    11.00000   -1.50000 
H21C  2    0.376122    0.185843    0.769244    11.00000   -1.50000 
AFIX   0 
O30   4    0.281466    0.483369    0.564059    11.00000    0.04504    0.12008 = 
         0.11966    0.00901    0.00059   -0.03808 
O40   4    0.408062    0.494344    0.641413    11.00000    0.18859    0.08589 = 
         0.01491    0.00139   -0.00954    0.00759 
O50   4    0.388634    0.529077    0.500000    10.50000    0.17804    0.05388 = 
         0.03187    0.00000    0.00000   -0.04734 
PART   1 
O60   4    0.419230    0.457732    0.500000    40.50000    0.08913    0.06103 = 
         0.03012    0.00000    0.00000    0.01069 
PART   2 
O60'  4    0.388605    0.445992    0.500000   -40.50000    0.04868 
PART   0 
O70   4    0.490395    0.538216    0.564464    11.00000    0.07304    0.05485 = 
         0.11578    0.05839   -0.00755    0.00150 
  
HKLF 4 
  
  
  
  
REM  2017ncs0665 in Ibam 
REM wR2 = 0.1446, GooF = S = 1.083, Restrained GooF = 1.084 for all data 
REM R1 = 0.0495 for 6809 Fo > 4sig(Fo) and 0.0502 for all 6986 data 
REM 262 parameters refined using 18 restraints 
  
END 
  
WGHT      0.0860     93.2626 
  
REM Highest difference peak  1.863,  deepest hole -1.303,  1-sigma level  0.163 
Q1    1   0.4534  0.4141  0.5000  10.50000  0.05    1.86 
Q2    1   0.3454  0.5115  0.5615  11.00000  0.05    1.46 
Q3    1   0.4479  0.5187  0.5630  11.00000  0.05    1.22 
Q4    1   0.4119  0.5277  0.5599  11.00000  0.05    1.12 
Q5    1   0.3246  0.2277  0.7912  11.00000  0.05    0.93 
Q6    1   0.2546  0.2495  0.7869  11.00000  0.05    0.91 
Q7    1   0.0386  0.1110  0.5408  11.00000  0.05    0.87 
Q8    1   0.4311  0.5442  0.5000  10.50000  0.05    0.85 
Q9    1   0.3920  0.3914  0.5464  11.00000  0.05    0.84 
Q10   1   0.5445  0.5391  0.5695  11.00000  0.05    0.71 
;
_shelx_res_checksum              90061
_shelx_fab_file
; 
    2    0    0    256.28      0.00 
    4    0    0    145.38      0.00 
    6    0    0      9.90      0.00 
    8    0    0     52.18      0.00 
   10    0    0    -36.58      0.00 
   12    0    0     23.50      0.00 
   14    0    0      3.55      0.00 
   16    0    0      3.87      0.00 
   18    0    0      5.52      0.00 
   20    0    0     -4.66      0.00 
    3    1    0    260.91      0.00 
    5    1    0      1.87      0.00 
    7    1    0      8.31      0.00 
    9    1    0      7.92      0.00 
   11    1    0      4.66      0.00 
   13    1    0     -9.19      0.00 
   15    1    0     -0.26      0.00 
   17    1    0     10.44      0.00 
   19    1    0    -15.63      0.00 
    4    2    0   -107.11      0.00 
    6    2    0      0.35      0.00 
    8    2    0     29.73      0.00 
   10    2    0    -51.96      0.00 
   12    2    0     23.55      0.00 
   14    2    0      4.17      0.00 
   16    2    0      1.42      0.00 
   18    2    0     -4.72      0.00 
   20    2    0     -0.34      0.00 
    3    3    0    -93.93      0.00 
    5    3    0      5.79      0.00 
    7    3    0    -37.00      0.00 
    9    3    0     24.53      0.00 
   11    3    0     14.42      0.00 
   13    3    0     -7.09      0.00 
   15    3    0     -0.07      0.00 
   17    3    0      8.77      0.00 
   19    3    0    -13.15      0.00 
    2    4    0    -91.54      0.00 
    4    4    0   -142.45      0.00 
    6    4    0    -66.83      0.00 
    8    4    0     10.04      0.00 
   10    4    0    -55.13      0.00 
   12    4    0     23.08      0.00 
   14    4    0      1.54      0.00 
   16    4    0     10.88      0.00 
   18    4    0     -9.26      0.00 
   20    4    0      6.27      0.00 
    1    5    0     30.64      0.00 
    3    5    0   -104.94      0.00 
    5    5    0    -56.27      0.00 
    7    5    0    -75.76      0.00 
    9    5    0     -1.03      0.00 
   11    5    0     -7.31      0.00 
   13    5    0     -1.54      0.00 
   15    5    0     -3.40      0.00 
   17    5    0     15.54      0.00 
   19    5    0     -7.90      0.00 
    0    6    0    134.79      0.00 
    2    6    0    -70.81      0.00 
    4    6    0    -74.04      0.00 
    6    6    0    -41.06      0.00 
    8    6    0      0.42      0.00 
   10    6    0    -36.35      0.00 
   12    6    0     12.21      0.00 
   14    6    0      6.45      0.00 
   16    6    0      7.35      0.00 
   18    6    0     -4.01      0.00 
   20    6    0      9.96      0.00 
    1    7    0     26.10      0.00 
    3    7    0      6.17      0.00 
    5    7    0    -35.80      0.00 
    7    7    0    -32.68      0.00 
    9    7    0    -17.93      0.00 
   11    7    0     11.12      0.00 
   13    7    0      1.94      0.00 
   15    7    0      9.62      0.00 
   17    7    0      9.37      0.00 
   19    7    0     -5.08      0.00 
    0    8    0    204.93      0.00 
    2    8    0    115.16      0.00 
    4    8    0     24.16      0.00 
    6    8    0    -20.37      0.00 
    8    8    0     38.24      0.00 
   10    8    0    -12.14      0.00 
   12    8    0     11.85      0.00 
   14    8    0     10.02      0.00 
   16    8    0      7.88      0.00 
   18    8    0     -1.60      0.00 
   20    8    0      3.49      0.00 
    1    9    0    149.34      0.00 
    3    9    0     37.59      0.00 
    5    9    0      5.25      0.00 
    7    9    0     -2.61      0.00 
    9    9    0      6.63      0.00 
   11    9    0      9.69      0.00 
   13    9    0      2.04      0.00 
   15    9    0      6.30      0.00 
   17    9    0      3.88      0.00 
   19    9    0      4.05      0.00 
    0   10    0     99.28      0.00 
    2   10    0    -36.57      0.00 
    4   10    0     36.83      0.00 
    6   10    0     10.38      0.00 
    8   10    0     35.45      0.00 
   10   10    0    -15.17      0.00 
   12   10    0     11.16      0.00 
   14   10    0     -2.53      0.00 
   16   10    0      4.87      0.00 
   18   10    0     -6.94      0.00 
    1   11    0    -18.61      0.00 
    3   11    0     20.80      0.00 
    5   11    0    -15.76      0.00 
    7   11    0     19.17      0.00 
    9   11    0      2.53      0.00 
   11   11    0     -2.14      0.00 
   13   11    0     -8.59      0.00 
   15   11    0     -5.71      0.00 
   17   11    0     -1.81      0.00 
   19   11    0      0.91      0.00 
    0   12    0    118.91      0.00 
    2   12    0     75.80      0.00 
    4   12    0     29.48      0.00 
    6   12    0     14.71      0.00 
    8   12    0     -8.25      0.00 
   10   12    0    -12.42      0.00 
   12   12    0     -3.82      0.00 
   14   12    0     -4.57      0.00 
   16   12    0      1.70      0.00 
   18   12    0     -5.89      0.00 
    1   13    0     20.37      0.00 
    3   13    0     31.11      0.00 
    5   13    0    -54.75      0.00 
    7   13    0     11.19      0.00 
    9   13    0    -17.88      0.00 
   11   13    0      1.61      0.00 
   13   13    0     -8.44      0.00 
   15   13    0      3.20      0.00 
   17   13    0     -6.78      0.00 
   19   13    0      3.48      0.00 
    0   14    0    -39.23      0.00 
    2   14    0     -0.36      0.00 
    4   14    0    -44.72      0.00 
    6   14    0    -16.75      0.00 
    8   14    0    -34.34      0.00 
   10   14    0     10.11      0.00 
   12   14    0     -3.90      0.00 
   14   14    0      6.77      0.00 
   16   14    0      3.32      0.00 
   18   14    0      5.56      0.00 
    1   15    0     -4.89      0.00 
    3   15    0     -1.07      0.00 
    5   15    0    -16.98      0.00 
    7   15    0     14.43      0.00 
    9   15    0    -10.39      0.00 
   11   15    0     10.15      0.00 
   13   15    0     -0.44      0.00 
   15   15    0     11.79      0.00 
   17   15    0    -11.21      0.00 
   19   15    0      8.66      0.00 
    0   16    0    -13.00      0.00 
    2   16    0      3.61      0.00 
    4   16    0     -7.05      0.00 
    6   16    0     -4.45      0.00 
    8   16    0     -0.90      0.00 
   10   16    0      8.56      0.00 
   12   16    0     -3.12      0.00 
   14   16    0     11.14      0.00 
   16   16    0     -5.45      0.00 
   18   16    0      5.42      0.00 
    1   17    0      4.82      0.00 
    3   17    0    -30.99      0.00 
    5   17    0    -18.86      0.00 
    7   17    0     -1.50      0.00 
    9   17    0    -12.23      0.00 
   11   17    0      4.85      0.00 
   13   17    0     -8.26      0.00 
   15   17    0     10.55      0.00 
   17   17    0      2.53      0.00 
    0   18    0    -18.63      0.00 
    2   18    0      3.14      0.00 
    4   18    0     -5.82      0.00 
    6   18    0     -4.43      0.00 
    8   18    0    -11.86      0.00 
   10   18    0      1.73      0.00 
   12   18    0     -7.33      0.00 
   14   18    0      7.71      0.00 
   16   18    0    -12.19      0.00 
   18   18    0     -3.73      0.00 
    1   19    0     -8.05      0.00 
    3   19    0     -3.52      0.00 
    5   19    0    -10.15      0.00 
    7   19    0     18.81      0.00 
    9   19    0     -6.62      0.00 
   11   19    0      7.97      0.00 
   13   19    0    -10.47      0.00 
   15   19    0      5.39      0.00 
   17   19    0     -6.98      0.00 
    0   20    0      5.90      0.00 
    2   20    0      9.11      0.00 
    4   20    0      6.46      0.00 
    6   20    0     22.65      0.00 
    8   20    0     -1.09      0.00 
   10   20    0      7.17      0.00 
   12   20    0     -5.12      0.00 
   14   20    0      3.71      0.00 
   16   20    0     -2.33      0.00 
    1   21    0     20.88      0.00 
    3   21    0     22.73      0.00 
    5   21    0      8.10      0.00 
    7   21    0     13.70      0.00 
    9   21    0     -3.93      0.00 
   11   21    0     -3.29      0.00 
   13   21    0    -19.15      0.00 
   15   21    0      5.88      0.00 
   17   21    0     -9.86      0.00 
    0   22    0     15.20      0.00 
    2   22    0      2.66      0.00 
    4   22    0      1.48      0.00 
    6   22    0      9.11      0.00 
    8   22    0    -12.55      0.00 
   10   22    0      8.23      0.00 
   12   22    0     12.50      0.00 
   14   22    0      3.08      0.00 
   16   22    0     -3.03      0.00 
    1   23    0     10.02      0.00 
    3   23    0     25.59      0.00 
    5   23    0     16.08      0.00 
    7   23    0     31.26      0.00 
    9   23    0     -1.09      0.00 
   11   23    0      9.83      0.00 
   13   23    0    -12.74      0.00 
   15   23    0      8.91      0.00 
    0   24    0      7.09      0.00 
    2   24    0     17.24      0.00 
    4   24    0      9.11      0.00 
    6   24    0     26.95      0.00 
    8   24    0      0.23      0.00 
   10   24    0      9.07      0.00 
   12   24    0    -14.17      0.00 
   14   24    0      7.19      0.00 
   16   24    0     -6.07      0.00 
    1   25    0      5.39      0.00 
    3   25    0      2.52      0.00 
    5   25    0     -0.36      0.00 
    7   25    0      5.23      0.00 
    9   25    0     -8.17      0.00 
   11   25    0     11.91      0.00 
   13   25    0     -7.28      0.00 
   15   25    0      9.25      0.00 
    0   26    0    -14.18      0.00 
    2   26    0     -9.53      0.00 
    4   26    0    -13.59      0.00 
    6   26    0      3.38      0.00 
    8   26    0    -10.62      0.00 
   10   26    0      8.44      0.00 
   12   26    0    -13.74      0.00 
   14   26    0     11.79      0.00 
    1   27    0    -21.57      0.00 
    3   27    0    -13.09      0.00 
    5   27    0     -9.71      0.00 
    7   27    0      8.35      0.00 
    9   27    0     -7.21      0.00 
   11   27    0     -1.51      0.00 
   13   27    0     -1.40      0.00 
    0   28    0     -5.32      0.00 
    2   28    0     -1.66      0.00 
    4   28    0    -13.71      0.00 
    6   28    0     -0.16      0.00 
    8   28    0     -7.67      0.00 
   10   28    0      1.40      0.00 
   12   28    0    -10.09      0.00 
    1   29    0    -15.25      0.00 
    3   29    0     -5.62      0.00 
    5   29    0      2.34      0.00 
    7   29    0      9.86      0.00 
    9   29    0      7.02      0.00 
   11   29    0      7.52      0.00 
   13   29    0      2.41      0.00 
    0   30    0     15.04      0.00 
    2   30    0     17.73      0.00 
    4   30    0      6.21      0.00 
    6   30    0     -0.86      0.00 
    8   30    0     -4.76      0.00 
   10   30    0      6.00      0.00 
   12   30    0      2.01      0.00 
    1   31    0     19.21      0.00 
    3   31    0     14.06      0.00 
    5   31    0     17.32      0.00 
    7   31    0     10.40      0.00 
    9   31    0     -4.27      0.00 
   11   31    0      1.28      0.00 
    0   32    0      4.27      0.00 
    2   32    0      6.83      0.00 
    4   32    0     15.16      0.00 
    6   32    0      8.06      0.00 
    8   32    0     -3.95      0.00 
   10   32    0      8.04      0.00 
    1   33    0      2.63      0.00 
    3   33    0      5.16      0.00 
    5   33    0     -1.25      0.00 
    7   33    0      7.20      0.00 
    9   33    0      8.00      0.00 
    0   34    0      6.35      0.00 
    2   34    0     -5.07      0.00 
    4   34    0     -3.45      0.00 
    6   34    0    -11.99      0.00 
    8   34    0     -1.11      0.00 
    1   35    0     -8.42      0.00 
    3   35    0      3.22      0.00 
    5   35    0      6.98      0.00 
    7   35    0      0.02      0.00 
    0   36    0     11.48      0.00 
    2   36    0     -3.16      0.00 
    4   36    0      7.04      0.00 
    1   37    0    -11.82      0.00 
    3   37    0    -10.59      0.00 
    2    1    1     69.54      0.00 
    4    1    1     56.50      0.00 
    6    1    1     -6.01      0.00 
    8    1    1      2.29      0.00 
   10    1    1      3.81      0.00 
   12    1    1      0.22      0.00 
   14    1    1     -4.13      0.00 
   16    1    1      3.28      0.00 
   18    1    1     -1.06      0.00 
   20    1    1     -0.18      0.00 
    1    2    1    -94.71      0.00 
    3    2    1     66.92      0.00 
    5    2    1    -13.79      0.00 
    7    2    1     19.49      0.00 
    9    2    1     -3.24      0.00 
   11    2    1      5.49      0.00 
   13    2    1      0.60      0.00 
   15    2    1     -1.15      0.00 
   17    2    1     -3.42      0.00 
   19    2    1      5.14      0.00 
    2    3    1    -25.68      0.00 
    4    3    1    -19.14      0.00 
    6    3    1    -11.56      0.00 
    8    3    1     14.36      0.00 
   10    3    1     -5.57      0.00 
   12    3    1      6.26      0.00 
   14    3    1     -3.17      0.00 
   16    3    1      6.21      0.00 
   18    3    1     -6.79      0.00 
   20    3    1      4.50      0.00 
    1    4    1     26.44      0.00 
    3    4    1    -15.52      0.00 
    5    4    1     -0.14      0.00 
    7    4    1      6.66      0.00 
    9    4    1     -3.96      0.00 
   11    4    1     16.40      0.00 
   13    4    1     -7.31      0.00 
   15    4    1      9.87      0.00 
   17    4    1     -2.30      0.00 
   19    4    1     -4.43      0.00 
    2    5    1     27.28      0.00 
    4    5    1      3.80      0.00 
    6    5    1     -1.92      0.00 
    8    5    1     16.26      0.00 
   10    5    1     -5.24      0.00 
   12    5    1     10.02      0.00 
   14    5    1     -8.58      0.00 
   16    5    1      7.81      0.00 
   18    5    1     -7.33      0.00 
   20    5    1     11.62      0.00 
    1    6    1    -22.52      0.00 
    3    6    1     37.79      0.00 
    5    6    1     10.67      0.00 
    7    6    1     17.06      0.00 
    9    6    1    -23.57      0.00 
   11    6    1     14.01      0.00 
   13    6    1    -14.95      0.00 
   15    6    1      7.86      0.00 
   17    6    1     -3.14      0.00 
   19    6    1      9.19      0.00 
    2    7    1    -17.27      0.00 
    4    7    1    -21.33      0.00 
    6    7    1     -4.61      0.00 
    8    7    1      4.15      0.00 
   10    7    1      0.92      0.00 
   12    7    1      0.97      0.00 
   14    7    1     -3.01      0.00 
   16    7    1     12.10      0.00 
   18    7    1    -10.46      0.00 
   20    7    1     -4.49      0.00 
    1    8    1    -27.38      0.00 
    3    8    1     25.80      0.00 
    5    8    1    -50.52      0.00 
    7    8    1      6.67      0.00 
    9    8    1    -29.60      0.00 
   11    8    1      8.34      0.00 
   13    8    1     -6.51      0.00 
   15    8    1      1.13      0.00 
   17    8    1     -3.94      0.00 
   19    8    1     15.20      0.00 
    2    9    1     -8.20      0.00 
    4    9    1     -2.63      0.00 
    6    9    1      1.33      0.00 
    8    9    1     -6.39      0.00 
   10    9    1      4.35      0.00 
   12    9    1    -11.39      0.00 
   14    9    1     -2.57      0.00 
   16    9    1      6.23      0.00 
   18    9    1    -12.97      0.00 
   20    9    1      3.45      0.00 
    1   10    1     -6.07      0.00 
    3   10    1     72.47      0.00 
    5   10    1    -20.48      0.00 
    7   10    1     25.65      0.00 
    9   10    1    -17.87      0.00 
   11   10    1     11.80      0.00 
   13   10    1     -5.02      0.00 
   15   10    1      4.93      0.00 
   17   10    1      0.77      0.00 
   19   10    1      1.55      0.00 
    2   11    1    -17.53      0.00 
    4   11    1    -16.50      0.00 
    6   11    1    -14.38      0.00 
    8   11    1    -18.38      0.00 
   10   11    1    -11.31      0.00 
   12   11    1      4.00      0.00 
   14   11    1    -10.68      0.00 
   16   11    1      2.37      0.00 
   18   11    1    -10.40      0.00 
   20   11    1     19.73      0.00 
    1   12    1    -69.90      0.00 
    3   12    1     27.86      0.00 
    5   12    1    -36.98      0.00 
    7   12    1     25.50      0.00 
    9   12    1     -6.30      0.00 
   11   12    1      6.85      0.00 
   13   12    1     -8.37      0.00 
   15   12    1     11.06      0.00 
   17   12    1     -0.19      0.00 
   19   12    1     -1.12      0.00 
    2   13    1     20.99      0.00 
    4   13    1      2.85      0.00 
    6   13    1     13.32      0.00 
    8   13    1      9.68      0.00 
   10   13    1      8.42      0.00 
   12   13    1     14.30      0.00 
   14   13    1     -9.51      0.00 
   16   13    1     12.44      0.00 
   18   13    1     -9.78      0.00 
    1   14    1      3.17      0.00 
    3   14    1     35.73      0.00 
    5   14    1      1.70      0.00 
    7   14    1      7.81      0.00 
    9   14    1     -8.34      0.00 
   11   14    1      4.35      0.00 
   13   14    1     -8.72      0.00 
   15   14    1      7.82      0.00 
   17   14    1     -6.17      0.00 
   19   14    1      2.10      0.00 
    2   15    1      4.40      0.00 
    4   15    1     -1.01      0.00 
    6   15    1      5.20      0.00 
    8   15    1      8.48      0.00 
   10   15    1     -1.04      0.00 
   12   15    1      5.07      0.00 
   14   15    1     -2.08      0.00 
   16   15    1      9.51      0.00 
   18   15    1    -10.75      0.00 
    1   16    1      3.38      0.00 
    3   16    1    -13.79      0.00 
    5   16    1     -8.50      0.00 
    7   16    1      7.31      0.00 
    9   16    1     -4.64      0.00 
   11   16    1     13.10      0.00 
   13   16    1     -7.28      0.00 
   15   16    1      4.65      0.00 
   17   16    1     -2.29      0.00 
    2   17    1     -2.20      0.00 
    4   17    1      0.36      0.00 
    6   17    1    -17.08      0.00 
    8   17    1      8.21      0.00 
   10   17    1     -6.40      0.00 
   12   17    1      5.80      0.00 
   14   17    1      1.41      0.00 
   16   17    1      6.65      0.00 
   18   17    1     -7.58      0.00 
    1   18    1    -10.16      0.00 
    3   18    1      6.30      0.00 
    5   18    1      0.59      0.00 
    7   18    1      1.49      0.00 
    9   18    1    -11.40      0.00 
   11   18    1      3.64      0.00 
   13   18    1    -11.06      0.00 
   15   18    1      2.83      0.00 
   17   18    1     -3.49      0.00 
    2   19    1      6.44      0.00 
    4   19    1     -1.21      0.00 
    6   19    1    -10.25      0.00 
    8   19    1     -3.36      0.00 
   10   19    1     -6.48      0.00 
   12   19    1     -3.54      0.00 
   14   19    1     -0.69      0.00 
   16   19    1     -1.19      0.00 
   18   19    1     -3.19      0.00 
    1   20    1    -12.07      0.00 
    3   20    1     -3.33      0.00 
    5   20    1    -19.38      0.00 
    7   20    1      7.15      0.00 
    9   20    1    -10.30      0.00 
   11   20    1      5.54      0.00 
   13   20    1     -2.14      0.00 
   15   20    1      1.00      0.00 
   17   20    1     -2.05      0.00 
    2   21    1     -5.23      0.00 
    4   21    1     -7.33      0.00 
    6   21    1     -2.52      0.00 
    8   21    1     -2.87      0.00 
   10   21    1      4.56      0.00 
   12   21    1     -4.73      0.00 
   14   21    1      2.23      0.00 
   16   21    1      0.20      0.00 
    1   22    1     -4.99      0.00 
    3   22    1     12.07      0.00 
    5   22    1     -5.65      0.00 
    7   22    1      0.22      0.00 
    9   22    1     -0.60      0.00 
   11   22    1      6.48      0.00 
   13   22    1     -5.02      0.00 
   15   22    1      4.25      0.00 
   17   22    1     -4.50      0.00 
    2   23    1      3.57      0.00 
    4   23    1     -6.90      0.00 
    6   23    1      3.32      0.00 
    8   23    1      2.02      0.00 
   10   23    1      1.44      0.00 
   12   23    1     -1.50      0.00 
   14   23    1      2.65      0.00 
   16   23    1     -5.23      0.00 
    1   24    1     -3.53      0.00 
    3   24    1     -8.53      0.00 
    5   24    1      1.54      0.00 
    7   24    1     -2.46      0.00 
    9   24    1      5.19      0.00 
   11   24    1      1.83      0.00 
   13   24    1     -2.27      0.00 
   15   24    1      5.60      0.00 
    2   25    1      0.71      0.00 
    4   25    1     -2.27      0.00 
    6   25    1      4.41      0.00 
    8   25    1     -1.99      0.00 
   10   25    1      8.43      0.00 
   12   25    1     -2.06      0.00 
   14   25    1      8.68      0.00 
    1   26    1      4.55      0.00 
    3   26    1     -7.02      0.00 
    5   26    1      7.29      0.00 
    7   26    1     -0.57      0.00 
    9   26    1      8.94      0.00 
   11   26    1     -3.11      0.00 
   13   26    1      3.72      0.00 
   15   26    1     -5.06      0.00 
    2   27    1      0.44      0.00 
    4   27    1     -1.37      0.00 
    6   27    1      0.54      0.00 
    8   27    1     -2.14      0.00 
   10   27    1      5.24      0.00 
   12   27    1     -0.57      0.00 
   14   27    1      4.68      0.00 
    1   28    1      4.51      0.00 
    3   28    1    -10.62      0.00 
    5   28    1      3.58      0.00 
    7   28    1     -3.63      0.00 
    9   28    1      6.55      0.00 
   11   28    1     -5.07      0.00 
   13   28    1      1.22      0.00 
    2   29    1      1.37      0.00 
    4   29    1     -7.11      0.00 
    6   29    1      4.61      0.00 
    8   29    1     -0.86      0.00 
   10   29    1      4.27      0.00 
   12   29    1     -4.43      0.00 
    1   30    1      2.60      0.00 
    3   30    1    -12.20      0.00 
    5   30    1      0.94      0.00 
    7   30    1     -8.07      0.00 
    9   30    1     -1.02      0.00 
   11   30    1     -0.66      0.00 
    2   31    1     -0.40      0.00 
    4   31    1     -8.38      0.00 
    6   31    1      0.57      0.00 
    8   31    1     -6.92      0.00 
   10   31    1     10.69      0.00 
    1   32    1      3.08      0.00 
    3   32    1     -4.36      0.00 
    5   32    1      3.18      0.00 
    7   32    1     -3.81      0.00 
    9   32    1      6.87      0.00 
    2   33    1     -4.46      0.00 
    4   33    1     -2.77      0.00 
    6   33    1      0.15      0.00 
    8   33    1     -2.65      0.00 
    1   34    1      2.30      0.00 
    3   34    1     -8.48      0.00 
    5   34    1      0.80      0.00 
    7   34    1     -3.35      0.00 
    2   35    1     -4.98      0.00 
    4   35    1     -3.51      0.00 
    6   35    1      1.43      0.00 
    1   36    1      4.20      0.00 
    3   36    1     -3.06      0.00 
    5   36    1     15.24      0.00 
    2   37    1      4.57      0.00 
    2    0    2   -352.01      0.00 
    4    0    2     51.03      0.00 
    6    0    2    -62.38      0.00 
    8    0    2     12.48      0.00 
   10    0    2    -26.95      0.00 
   12    0    2     23.48      0.00 
   14    0    2    -10.32      0.00 
   16    0    2     -1.96      0.00 
   18    0    2     -4.18      0.00 
   20    0    2     -2.95      0.00 
    3    1    2     32.93      0.00 
    5    1    2    -78.68      0.00 
    7    1    2     -8.47      0.00 
    9    1    2     -3.77      0.00 
   11    1    2      5.39      0.00 
   13    1    2    -12.40      0.00 
   15    1    2     -7.20      0.00 
   17    1    2      8.80      0.00 
   19    1    2    -12.56      0.00 
    2    2    2    -73.39      0.00 
    4    2    2     19.98      0.00 
    6    2    2    -10.29      0.00 
    8    2    2     19.85      0.00 
   10    2    2    -27.18      0.00 
   12    2    2      9.71      0.00 
   14    2    2     -8.21      0.00 
   16    2    2      0.06      0.00 
   18    2    2      1.24      0.00 
   20    2    2      2.57      0.00 
    1    3    2    202.33      0.00 
    3    3    2     48.07      0.00 
    5    3    2     41.10      0.00 
    7    3    2     -5.35      0.00 
    9    3    2      1.33      0.00 
   11    3    2      9.53      0.00 
   13    3    2     -6.27      0.00 
   15    3    2     -9.06      0.00 
   17    3    2     12.08      0.00 
   19    3    2     -5.18      0.00 
    0    4    2    108.70      0.00 
    2    4    2    290.82      0.00 
    4    4    2    127.66      0.00 
    6    4    2     19.36      0.00 
    8    4    2     35.69      0.00 
   10    4    2    -15.29      0.00 
   12    4    2     11.36      0.00 
   14    4    2     -5.34      0.00 
   16    4    2      5.92      0.00 
   18    4    2     -1.90      0.00 
   20    4    2      2.59      0.00 
    1    5    2    -22.67      0.00 
    3    5    2     73.13      0.00 
    5    5    2     52.05      0.00 
    7    5    2     -6.01      0.00 
    9    5    2     19.31      0.00 
   11    5    2      5.17      0.00 
   13    5    2      0.82      0.00 
   15    5    2     -8.40      0.00 
   17    5    2      6.74      0.00 
   19    5    2     -8.38      0.00 
    0    6    2     14.56      0.00 
    2    6    2   -103.98      0.00 
    4    6    2     21.79      0.00 
    6    6    2     31.14      0.00 
    8    6    2     26.92      0.00 
   10    6    2     -5.16      0.00 
   12    6    2      8.59      0.00 
   14    6    2     -9.80      0.00 
   16    6    2     -0.40      0.00 
   18    6    2     -6.87      0.00 
   20    6    2      5.33      0.00 
    1    7    2   -198.59      0.00 
    3    7    2     19.25      0.00 
    5    7    2     17.29      0.00 
    7    7    2     11.33      0.00 
    9    7    2     10.87      0.00 
   11    7    2      4.34      0.00 
   13    7    2    -12.70      0.00 
   15    7    2     -5.86      0.00 
   17    7    2     -0.37      0.00 
   19    7    2     -1.71      0.00 
    0    8    2    -14.88      0.00 
    2    8    2    -23.53      0.00 
    4    8    2     15.18      0.00 
    6    8    2    -19.03      0.00 
    8    8    2      8.82      0.00 
   10    8    2    -14.54      0.00 
   12    8    2      6.41      0.00 
   14    8    2     -8.78      0.00 
   16    8    2      1.64      0.00 
   18    8    2     -3.65      0.00 
   20    8    2      1.63      0.00 
    1    9    2    -19.79      0.00 
    3    9    2     -6.86      0.00 
    5    9    2     -8.18      0.00 
    7    9    2    -20.39      0.00 
    9    9    2    -14.24      0.00 
   11    9    2    -10.15      0.00 
   13    9    2    -10.76      0.00 
   15    9    2     -7.08      0.00 
   17    9    2      0.43      0.00 
   19    9    2     -1.44      0.00 
    0   10    2    -11.88      0.00 
    2   10    2   -104.27      0.00 
    4   10    2     13.47      0.00 
    6   10    2    -37.56      0.00 
    8   10    2     -3.68      0.00 
   10   10    2    -14.62      0.00 
   12   10    2     10.85      0.00 
   14   10    2     -5.99      0.00 
   16   10    2      5.21      0.00 
   18   10    2     -7.18      0.00 
   20   10    2     -4.40      0.00 
    1   11    2    -43.13      0.00 
    3   11    2      3.04      0.00 
    5   11    2      0.11      0.00 
    7   11    2      1.77      0.00 
    9   11    2     -7.13      0.00 
   11   11    2     11.86      0.00 
   13   11    2     -3.04      0.00 
   15   11    2     -0.93      0.00 
   17   11    2      2.85      0.00 
   19   11    2     -2.97      0.00 
    0   12    2     15.14      0.00 
    2   12    2      0.13      0.00 
    4   12    2     18.36      0.00 
    6   12    2     -2.20      0.00 
    8   12    2      8.35      0.00 
   10   12    2      9.46      0.00 
   12   12    2      6.89      0.00 
   14   12    2     -0.16      0.00 
   16   12    2      9.99      0.00 
   18   12    2      0.38      0.00 
    1   13    2     29.31      0.00 
    3   13    2     19.05      0.00 
    5   13    2     -0.40      0.00 
    7   13    2     20.56      0.00 
    9   13    2     -7.13      0.00 
   11   13    2      9.28      0.00 
   13   13    2     -6.87      0.00 
   15   13    2      7.59      0.00 
   17   13    2     -4.47      0.00 
   19   13    2      2.62      0.00 
    0   14    2    -35.97      0.00 
    2   14    2    -12.37      0.00 
    4   14    2    -10.68      0.00 
    6   14    2     10.81      0.00 
    8   14    2     -5.02      0.00 
   10   14    2     12.76      0.00 
   12   14    2     -6.18      0.00 
   14   14    2     -2.04      0.00 
   16   14    2      0.67      0.00 
   18   14    2     -1.36      0.00 
    1   15    2    -20.18      0.00 
    3   15    2     -7.67      0.00 
    5   15    2     15.12      0.00 
    7   15    2      3.92      0.00 
    9   15    2     -6.87      0.00 
   11   15    2      1.86      0.00 
   13   15    2    -11.39      0.00 
   15   15    2      4.97      0.00 
   17   15    2    -12.35      0.00 
   19   15    2      1.75      0.00 
    0   16    2     21.54      0.00 
    2   16    2     18.84      0.00 
    4   16    2     13.83      0.00 
    6   16    2      9.62      0.00 
    8   16    2      5.04      0.00 
   10   16    2      4.73      0.00 
   12   16    2    -11.37      0.00 
   14   16    2      3.61      0.00 
   16   16    2     -7.99      0.00 
   18   16    2      2.61      0.00 
    1   17    2     17.40      0.00 
    3   17    2     -9.31      0.00 
    5   17    2     -0.27      0.00 
    7   17    2     -5.20      0.00 
    9   17    2     -5.15      0.00 
   11   17    2      6.01      0.00 
   13   17    2    -10.44      0.00 
   15   17    2     10.09      0.00 
   17   17    2      4.21      0.00 
    0   18    2    -15.51      0.00 
    2   18    2      8.66      0.00 
    4   18    2     -1.70      0.00 
    6   18    2     -2.45      0.00 
    8   18    2    -14.49      0.00 
   10   18    2      9.61      0.00 
   12   18    2     -7.37      0.00 
   14   18    2     10.31      0.00 
   16   18    2     -9.99      0.00 
   18   18    2     -1.10      0.00 
    1   19    2     -3.45      0.00 
    3   19    2      8.17      0.00 
    5   19    2     -7.74      0.00 
    7   19    2     12.13      0.00 
    9   19    2     -7.20      0.00 
   11   19    2     13.82      0.00 
   13   19    2     -5.12      0.00 
   15   19    2      7.92      0.00 
   17   19    2     -5.43      0.00 
    0   20    2     -4.82      0.00 
    2   20    2     14.64      0.00 
    4   20    2     -0.17      0.00 
    6   20    2      6.54      0.00 
    8   20    2     -7.10      0.00 
   10   20    2     14.39      0.00 
   12   20    2     -0.98      0.00 
   14   20    2      4.18      0.00 
   16   20    2     -0.25      0.00 
    1   21    2      4.24      0.00 
    3   21    2      2.54      0.00 
    5   21    2    -13.51      0.00 
    7   21    2     -1.57      0.00 
    9   21    2     -7.21      0.00 
   11   21    2      1.16      0.00 
   13   21    2    -14.16      0.00 
   15   21    2      9.50      0.00 
   17   21    2     -6.54      0.00 
    0   22    2      0.34      0.00 
    2   22    2      6.07      0.00 
    4   22    2    -16.85      0.00 
    6   22    2     -9.78      0.00 
    8   22    2    -12.21      0.00 
   10   22    2      1.57      0.00 
   12   22    2      6.11      0.00 
   14   22    2      1.49      0.00 
   16   22    2      3.11      0.00 
    1   23    2    -20.61      0.00 
    3   23    2     -2.33      0.00 
    5   23    2    -20.40      0.00 
    7   23    2      5.65      0.00 
    9   23    2    -15.12      0.00 
   11   23    2      7.31      0.00 
   13   23    2    -12.21      0.00 
   15   23    2      8.87      0.00 
    0   24    2    -17.35      0.00 
    2   24    2      2.87      0.00 
    4   24    2    -15.93      0.00 
    6   24    2     -1.24      0.00 
    8   24    2     -9.75      0.00 
   10   24    2      3.35      0.00 
   12   24    2    -15.47      0.00 
   14   24    2      4.15      0.00 
   16   24    2     -6.27      0.00 
    1   25    2     -7.52      0.00 
    3   25    2      1.09      0.00 
    5   25    2    -16.34      0.00 
    7   25    2     -1.58      0.00 
    9   25    2     -6.49      0.00 
   11   25    2     13.05      0.00 
   13   25    2     -3.74      0.00 
   15   25    2      5.06      0.00 
    0   26    2      7.78      0.00 
    2   26    2     11.51      0.00 
    4   26    2     -1.95      0.00 
    6   26    2      0.28      0.00 
    8   26    2     -6.27      0.00 
   10   26    2      8.17      0.00 
   12   26    2     -4.18      0.00 
   14   26    2     12.76      0.00 
    1   27    2     13.70      0.00 
    3   27    2     16.94      0.00 
    5   27    2      4.06      0.00 
    7   27    2     -0.77      0.00 
    9   27    2      0.35      0.00 
   11   27    2     -0.31      0.00 
   13   27    2      4.77      0.00 
    0   28    2      7.35      0.00 
    2   28    2     17.43      0.00 
    4   28    2      8.82      0.00 
    6   28    2     12.42      0.00 
    8   28    2      5.37      0.00 
   10   28    2     -3.03      0.00 
   12   28    2      1.89      0.00 
    1   29    2     -6.18      0.00 
    3   29    2     -0.04      0.00 
    5   29    2     -0.16      0.00 
    7   29    2    -18.12      0.00 
    9   29    2      0.69      0.00 
   11   29    2     -1.81      0.00 
   13   29    2     -2.13      0.00 
    0   30    2     -6.19      0.00 
    2   30    2     -5.88      0.00 
    4   30    2     -9.13      0.00 
    6   30    2     -2.62      0.00 
    8   30    2      4.79      0.00 
   10   30    2     -1.88      0.00 
   12   30    2     -1.35      0.00 
    1   31    2     -5.54      0.00 
    3   31    2    -11.65      0.00 
    5   31    2     -6.96      0.00 
    7   31    2     -5.70      0.00 
    9   31    2     -5.55      0.00 
   11   31    2     -1.01      0.00 
    0   32    2     -4.89      0.00 
    2   32    2     -8.29      0.00 
    4   32    2     -6.85      0.00 
    6   32    2      1.08      0.00 
    8   32    2     -3.87      0.00 
   10   32    2      1.04      0.00 
    1   33    2     -3.04      0.00 
    3   33    2     -2.56      0.00 
    5   33    2     -3.29      0.00 
    7   33    2      2.26      0.00 
    9   33    2     -2.31      0.00 
    0   34    2      2.10      0.00 
    2   34    2      2.16      0.00 
    4   34    2     -1.68      0.00 
    6   34    2      0.82      0.00 
    8   34    2      0.40      0.00 
    1   35    2      6.18      0.00 
    3   35    2      3.64      0.00 
    5   35    2      7.95      0.00 
    7   35    2     -2.10      0.00 
    0   36    2      9.44      0.00 
    2   36    2     -0.44      0.00 
    4   36    2      2.60      0.00 
    1   37    2     -5.50      0.00 
    3   37    2     -6.75      0.00 
    2    1    3   -107.54      0.00 
    4    1    3      2.33      0.00 
    6    1    3    -31.34      0.00 
    8    1    3      3.33      0.00 
   10    1    3     -6.04      0.00 
   12    1    3     -2.90      0.00 
   14    1    3     -1.13      0.00 
   16    1    3      1.74      0.00 
   18    1    3      2.99      0.00 
   20    1    3     -2.22      0.00 
    1    2    3     36.87      0.00 
    3    2    3     38.39      0.00 
    5    2    3      3.00      0.00 
    7    2    3     19.61      0.00 
    9    2    3    -13.34      0.00 
   11    2    3      0.12      0.00 
   13    2    3     -0.02      0.00 
   15    2    3      2.79      0.00 
   17    2    3      0.10      0.00 
   19    2    3      2.02      0.00 
    2    3    3   -102.88      0.00 
    4    3    3     10.54      0.00 
    6    3    3    -31.31      0.00 
    8    3    3      5.46      0.00 
   10    3    3     -5.01      0.00 
   12    3    3      5.43      0.00 
   14    3    3     -1.37      0.00 
   16    3    3      5.16      0.00 
   18    3    3     -1.61      0.00 
   20    3    3      3.03      0.00 
    1    4    3     66.07      0.00 
    3    4    3    -86.65      0.00 
    5    4    3    -19.88      0.00 
    7    4    3     -6.65      0.00 
    9    4    3    -11.28      0.00 
   11    4    3      0.72      0.00 
   13    4    3     -3.32      0.00 
   15    4    3      0.31      0.00 
   17    4    3     -4.33      0.00 
   19    4    3      0.67      0.00 
    2    5    3     76.50      0.00 
    4    5    3     49.07      0.00 
    6    5    3     -5.05      0.00 
    8    5    3     -3.67      0.00 
   10    5    3     -9.48      0.00 
   12    5    3     -4.61      0.00 
   14    5    3     -6.64      0.00 
   16    5    3      2.98      0.00 
   18    5    3     -8.25      0.00 
   20    5    3      7.77      0.00 
    1    6    3    -21.31      0.00 
    3    6    3    -34.60      0.00 
    5    6    3     11.48      0.00 
    7    6    3     16.22      0.00 
    9    6    3    -16.07      0.00 
   11    6    3      9.22      0.00 
   13    6    3     -6.60      0.00 
   15    6    3     -0.47      0.00 
   17    6    3     -4.64      0.00 
   19    6    3      4.50      0.00 
    2    7    3     16.46      0.00 
    4    7    3     -3.97      0.00 
    6    7    3    -11.99      0.00 
    8    7    3     -2.09      0.00 
   10    7    3     -1.05      0.00 
   12    7    3     -1.06      0.00 
   14    7    3      2.99      0.00 
   16    7    3     -0.20      0.00 
   18    7    3     -2.64      0.00 
   20    7    3     -3.02      0.00 
    1    8    3    -33.71      0.00 
    3    8    3    -47.92      0.00 
    5    8    3    -13.39      0.00 
    7    8    3     19.96      0.00 
    9    8    3     -3.39      0.00 
   11    8    3     16.88      0.00 
   13    8    3      5.06      0.00 
   15    8    3      2.82      0.00 
   17    8    3     -8.68      0.00 
   19    8    3     -0.05      0.00 
    2    9    3      8.62      0.00 
    4    9    3      4.86      0.00 
    6    9    3     16.41      0.00 
    8    9    3     11.83      0.00 
   10    9    3     11.74      0.00 
   12    9    3      2.77      0.00 
   14    9    3      1.21      0.00 
   16    9    3      1.01      0.00 
   18    9    3     -0.35      0.00 
   20    9    3      1.34      0.00 
    1   10    3     -5.95      0.00 
    3   10    3     29.84      0.00 
    5   10    3      9.98      0.00 
    7   10    3     28.47      0.00 
    9   10    3      1.66      0.00 
   11   10    3      5.82      0.00 
   13   10    3     -1.31      0.00 
   15   10    3      1.77      0.00 
   17   10    3     -3.96      0.00 
   19   10    3      0.49      0.00 
    2   11    3    -11.79      0.00 
    4   11    3     -6.31      0.00 
    6   11    3     12.40      0.00 
    8   11    3      3.44      0.00 
   10   11    3      1.70      0.00 
   12   11    3     12.76      0.00 
   14   11    3     -7.60      0.00 
   16   11    3      6.30      0.00 
   18   11    3     -2.95      0.00 
   20   11    3      8.16      0.00 
    1   12    3    -57.71      0.00 
    3   12    3     16.53      0.00 
    5   12    3    -15.37      0.00 
    7   12    3     12.88      0.00 
    9   12    3     -8.06      0.00 
   11   12    3      2.86      0.00 
   13   12    3     -0.45      0.00 
   15   12    3      1.90      0.00 
   17   12    3     -0.64      0.00 
   19   12    3      1.10      0.00 
    2   13    3     -7.64      0.00 
    4   13    3    -23.24      0.00 
    6   13    3     -2.37      0.00 
    8   13    3     -6.94      0.00 
   10   13    3     -2.65      0.00 
   12   13    3      6.62      0.00 
   14   13    3     -7.62      0.00 
   16   13    3      6.27      0.00 
   18   13    3     -8.48      0.00 
    1   14    3    -12.34      0.00 
    3   14    3     -4.92      0.00 
    5   14    3    -11.86      0.00 
    7   14    3    -15.68      0.00 
    9   14    3    -16.56      0.00 
   11   14    3     -2.46      0.00 
   13   14    3     -7.24      0.00 
   15   14    3     -0.31      0.00 
   17   14    3     -4.07      0.00 
   19   14    3     -0.97      0.00 
    2   15    3     -5.15      0.00 
    4   15    3     -4.97      0.00 
    6   15    3     -1.62      0.00 
    8   15    3     -1.19      0.00 
   10   15    3     -6.71      0.00 
   12   15    3     -2.10      0.00 
   14   15    3     -5.73      0.00 
   16   15    3      0.80      0.00 
   18   15    3     -7.68      0.00 
    1   16    3     -0.40      0.00 
    3   16    3    -25.73      0.00 
    5   16    3     -4.17      0.00 
    7   16    3      1.47      0.00 
    9   16    3    -11.17      0.00 
   11   16    3      6.34      0.00 
   13   16    3     -3.01      0.00 
   15   16    3      0.51      0.00 
   17   16    3     -6.14      0.00 
    2   17    3     -9.05      0.00 
    4   17    3     13.32      0.00 
    6   17    3     -2.67      0.00 
    8   17    3     10.62      0.00 
   10   17    3     -7.05      0.00 
   12   17    3      3.36      0.00 
   14   17    3     -2.37      0.00 
   16   17    3      2.42      0.00 
   18   17    3     -4.97      0.00 
    1   18    3     -0.61      0.00 
    3   18    3     14.61      0.00 
    5   18    3     16.47      0.00 
    7   18    3      9.36      0.00 
    9   18    3      1.09      0.00 
   11   18    3     11.18      0.00 
   13   18    3     -1.69      0.00 
   15   18    3      2.18      0.00 
   17   18    3     -4.63      0.00 
    2   19    3      2.47      0.00 
    4   19    3      9.98      0.00 
    6   19    3     11.59      0.00 
    8   19    3      9.41      0.00 
   10   19    3      2.50      0.00 
   12   19    3      5.84      0.00 
   14   19    3      3.63      0.00 
   16   19    3     -3.75      0.00 
   18   19    3     -0.03      0.00 
    1   20    3    -10.99      0.00 
    3   20    3      3.78      0.00 
    5   20    3     -2.35      0.00 
    7   20    3     12.97      0.00 
    9   20    3     -2.56      0.00 
   11   20    3      4.22      0.00 
   13   20    3      2.66      0.00 
   15   20    3      3.61      0.00 
   17   20    3      0.60      0.00 
    2   21    3     -5.10      0.00 
    4   21    3      3.33      0.00 
    6   21    3      7.61      0.00 
    8   21    3     -6.17      0.00 
   10   21    3      4.67      0.00 
   12   21    3      0.45      0.00 
   14   21    3      1.44      0.00 
   16   21    3     -1.64      0.00 
    1   22    3     -2.39      0.00 
    3   22    3     16.77      0.00 
    5   22    3      3.07      0.00 
    7   22    3      9.27      0.00 
    9   22    3     -3.51      0.00 
   11   22    3     -0.16      0.00 
   13   22    3     -2.21      0.00 
   15   22    3      4.18      0.00 
    2   23    3      5.62      0.00 
    4   23    3      4.51      0.00 
    6   23    3      2.93      0.00 
    8   23    3     -4.36      0.00 
   10   23    3     -2.41      0.00 
   12   23    3     -4.07      0.00 
   14   23    3     -1.95      0.00 
   16   23    3     -1.13      0.00 
    1   24    3      3.16      0.00 
    3   24    3     -0.60      0.00 
    5   24    3     10.43      0.00 
    7   24    3     -3.38      0.00 
    9   24    3     -6.07      0.00 
   11   24    3     -3.25      0.00 
   13   24    3     -3.93      0.00 
   15   24    3      0.76      0.00 
    2   25    3      4.78      0.00 
    4   25    3     -2.19      0.00 
    6   25    3      0.62      0.00 
    8   25    3     -6.82      0.00 
   10   25    3     -4.07      0.00 
   12   25    3     -4.79      0.00 
   14   25    3      6.17      0.00 
    1   26    3      1.82      0.00 
    3   26    3     -5.71      0.00 
    5   26    3      5.43      0.00 
    7   26    3    -17.12      0.00 
    9   26    3     -2.22      0.00 
   11   26    3     -3.42      0.00 
   13   26    3      2.41      0.00 
   15   26    3     -5.48      0.00 
    2   27    3      5.90      0.00 
    4   27    3     -1.33      0.00 
    6   27    3     -0.29      0.00 
    8   27    3     -5.63      0.00 
   10   27    3     -3.71      0.00 
   12   27    3     -2.56      0.00 
   14   27    3     -1.21      0.00 
    1   28    3      6.02      0.00 
    3   28    3      0.81      0.00 
    5   28    3      5.33      0.00 
    7   28    3     -3.94      0.00 
    9   28    3     -0.15      0.00 
   11   28    3     -3.81      0.00 
   13   28    3     -1.00      0.00 
    2   29    3      5.47      0.00 
    4   29    3      4.54      0.00 
    6   29    3      4.27      0.00 
    8   29    3     -5.72      0.00 
   10   29    3     -3.02      0.00 
   12   29    3     -2.15      0.00 
    1   30    3      7.18      0.00 
    3   30    3      5.10      0.00 
    5   30    3     12.35      0.00 
    7   30    3      4.95      0.00 
    9   30    3     -3.09      0.00 
   11   30    3      0.70      0.00 
    2   31    3      6.61      0.00 
    4   31    3      5.36      0.00 
    6   31    3      3.53      0.00 
    8   31    3     -1.45      0.00 
   10   31    3      4.80      0.00 
    1   32    3      3.80      0.00 
    3   32    3      7.71      0.00 
    5   32    3      5.91      0.00 
    7   32    3     -2.94      0.00 
    9   32    3      2.12      0.00 
    2   33    3      8.36      0.00 
    4   33    3      3.85      0.00 
    6   33    3     -2.34      0.00 
    8   33    3     -1.16      0.00 
    1   34    3      2.38      0.00 
    3   34    3      2.85      0.00 
    5   34    3      4.58      0.00 
    7   34    3      2.34      0.00 
    2   35    3      2.01      0.00 
    4   35    3      6.85      0.00 
    6   35    3      9.64      0.00 
    1   36    3      8.87      0.00 
    3   36    3      4.01      0.00 
    5   36    3     12.01      0.00 
    2   37    3     11.36      0.00 
    0    0    4    486.33      0.00 
    2    0    4   -165.02      0.00 
    4    0    4    104.34      0.00 
    6    0    4     15.85      0.00 
    8    0    4     -3.71      0.00 
   10    0    4      4.61      0.00 
   12    0    4      3.12      0.00 
   14    0    4      7.57      0.00 
   16    0    4      0.93      0.00 
   18    0    4      1.66      0.00 
   20    0    4      4.23      0.00 
    1    1    4    115.12      0.00 
    3    1    4     55.24      0.00 
    5    1    4    -12.83      0.00 
    7    1    4     17.51      0.00 
    9    1    4     -5.60      0.00 
   11    1    4      5.59      0.00 
   13    1    4      6.84      0.00 
   15    1    4      4.19      0.00 
   17    1    4      3.30      0.00 
   19    1    4      1.10      0.00 
    0    2    4   -118.15      0.00 
    2    2    4    -61.00      0.00 
    4    2    4    -51.40      0.00 
    6    2    4     11.12      0.00 
    8    2    4     16.93      0.00 
   10    2    4     17.31      0.00 
   12    2    4     -0.93      0.00 
   14    2    4      2.79      0.00 
   16    2    4     -0.41      0.00 
   18    2    4     -2.72      0.00 
   20    2    4     -0.93      0.00 
    1    3    4   -197.72      0.00 
    3    3    4   -201.34      0.00 
    5    3    4     22.09      0.00 
    7    3    4     10.88      0.00 
    9    3    4    -14.34      0.00 
   11    3    4     -1.54      0.00 
   13    3    4      3.27      0.00 
   15    3    4     -7.01      0.00 
   17    3    4     -3.05      0.00 
   19    3    4     -1.51      0.00 
    0    4    4    -39.15      0.00 
    2    4    4     83.61      0.00 
    4    4    4    -28.31      0.00 
    6    4    4     -3.62      0.00 
    8    4    4     22.04      0.00 
   10    4    4      7.36      0.00 
   12    4    4      3.42      0.00 
   14    4    4     -5.34      0.00 
   16    4    4      0.03      0.00 
   18    4    4     -3.90      0.00 
   20    4    4     -1.03      0.00 
    1    5    4     66.16      0.00 
    3    5    4    -59.86      0.00 
    5    5    4     32.28      0.00 
    7    5    4     -1.04      0.00 
    9    5    4     -0.95      0.00 
   11    5    4    -15.87      0.00 
   13    5    4      1.60      0.00 
   15    5    4     -7.06      0.00 
   17    5    4     -3.19      0.00 
   19    5    4     -0.90      0.00 
    0    6    4   -109.03      0.00 
    2    6    4    -65.31      0.00 
    4    6    4    -13.26      0.00 
    6    6    4     10.18      0.00 
    8    6    4     -4.69      0.00 
   10    6    4     -4.88      0.00 
   12    6    4     -1.96      0.00 
   14    6    4     -5.60      0.00 
   16    6    4     -1.75      0.00 
   18    6    4     -5.42      0.00 
   20    6    4      0.65      0.00 
    1    7    4    116.13      0.00 
    3    7    4     35.24      0.00 
    5    7    4     36.80      0.00 
    7    7    4     16.16      0.00 
    9    7    4      7.69      0.00 
   11    7    4     -0.10      0.00 
   13    7    4      2.59      0.00 
   15    7    4     -1.31      0.00 
   17    7    4     -3.55      0.00 
   19    7    4     -1.58      0.00 
    0    8    4     22.92      0.00 
    2    8    4     59.53      0.00 
    4    8    4     31.86      0.00 
    6    8    4      8.93      0.00 
    8    8    4     13.17      0.00 
   10    8    4      4.25      0.00 
   12    8    4      8.46      0.00 
   14    8    4      3.52      0.00 
   16    8    4      2.36      0.00 
   18    8    4     -1.15      0.00 
   20    8    4      1.85      0.00 
    1    9    4    -11.86      0.00 
    3    9    4    -28.74      0.00 
    5    9    4      3.08      0.00 
    7    9    4      2.94      0.00 
    9    9    4     12.19      0.00 
   11    9    4     -1.18      0.00 
   13    9    4      9.71      0.00 
   15    9    4      1.84      0.00 
   17    9    4      4.24      0.00 
   19    9    4      0.90      0.00 
    0   10    4     60.81      0.00 
    2   10    4    -57.24      0.00 
    4   10    4     -6.36      0.00 
    6   10    4     -8.25      0.00 
    8   10    4     24.14      0.00 
   10   10    4     -6.10      0.00 
   12   10    4      6.56      0.00 
   14   10    4     -2.51      0.00 
   16   10    4     -1.53      0.00 
   18   10    4     -4.36      0.00 
   20   10    4     -0.87      0.00 
    1   11    4   -133.29      0.00 
    3   11    4    -28.62      0.00 
    5   11    4     -1.68      0.00 
    7   11    4     10.49      0.00 
    9   11    4     -2.82      0.00 
   11   11    4      2.40      0.00 
   13   11    4      2.35      0.00 
   15   11    4     -4.82      0.00 
   17   11    4     -1.71      0.00 
   19   11    4      2.31      0.00 
    0   12    4    -33.53      0.00 
    2   12    4    -25.73      0.00 
    4   12    4    -23.19      0.00 
    6   12    4    -15.24      0.00 
    8   12    4     -4.46      0.00 
   10   12    4     -1.82      0.00 
   12   12    4      0.75      0.00 
   14   12    4     -1.36      0.00 
   16   12    4     -1.09      0.00 
   18   12    4      0.30      0.00 
    1   13    4    -20.34      0.00 
    3   13    4     12.77      0.00 
    5   13    4    -23.61      0.00 
    7   13    4     15.78      0.00 
    9   13    4    -19.62      0.00 
   11   13    4     -5.44      0.00 
   13   13    4     -3.13      0.00 
   15   13    4      0.94      0.00 
   17   13    4     -2.18      0.00 
   19   13    4      2.85      0.00 
    0   14    4    -28.58      0.00 
    2   14    4      9.55      0.00 
    4   14    4     -4.32      0.00 
    6   14    4      3.59      0.00 
    8   14    4     -6.88      0.00 
   10   14    4     11.77      0.00 
   12   14    4      1.33      0.00 
   14   14    4      4.63      0.00 
   16   14    4     -3.35      0.00 
   18   14    4     -0.77      0.00 
    1   15    4     -9.85      0.00 
    3   15    4      9.95      0.00 
    5   15    4      6.88      0.00 
    7   15    4     11.22      0.00 
    9   15    4     -4.96      0.00 
   11   15    4      6.06      0.00 
   13   15    4      4.66      0.00 
   15   15    4     -0.36      0.00 
   17   15    4     -4.14      0.00 
   19   15    4      0.71      0.00 
    0   16    4     13.46      0.00 
    2   16    4     24.71      0.00 
    4   16    4     29.66      0.00 
    6   16    4     14.09      0.00 
    8   16    4     21.08      0.00 
   10   16    4      0.79      0.00 
   12   16    4      1.55      0.00 
   14   16    4      5.48      0.00 
   16   16    4     -5.84      0.00 
   18   16    4      1.41      0.00 
    1   17    4     26.94      0.00 
    3   17    4      2.11      0.00 
    5   17    4     21.03      0.00 
    7   17    4      5.67      0.00 
    9   17    4     -2.23      0.00 
   11   17    4      3.26      0.00 
   13   17    4      1.49      0.00 
   15   17    4     -3.09      0.00 
   17   17    4     -0.52      0.00 
    0   18    4    -17.81      0.00 
    2   18    4     -7.66      0.00 
    4   18    4      1.28      0.00 
    6   18    4      1.72      0.00 
    8   18    4      5.44      0.00 
   10   18    4     -5.64      0.00 
   12   18    4     -9.37      0.00 
   14   18    4      2.16      0.00 
   16   18    4     -3.12      0.00 
   18   18    4     -1.69      0.00 
    1   19    4    -21.00      0.00 
    3   19    4     -6.76      0.00 
    5   19    4     -0.17      0.00 
    7   19    4      4.22      0.00 
    9   19    4     -6.77      0.00 
   11   19    4     -3.30      0.00 
   13   19    4      1.48      0.00 
   15   19    4     -2.97      0.00 
   17   19    4     -0.83      0.00 
    0   20    4    -12.45      0.00 
    2   20    4    -20.77      0.00 
    4   20    4     -7.52      0.00 
    6   20    4      0.55      0.00 
    8   20    4     -1.40      0.00 
   10   20    4     -1.56      0.00 
   12   20    4      2.84      0.00 
   14   20    4     -1.25      0.00 
   16   20    4     -1.18      0.00 
    1   21    4    -29.91      0.00 
    3   21    4    -22.70      0.00 
    5   21    4     -5.61      0.00 
    7   21    4     -7.75      0.00 
    9   21    4      2.81      0.00 
   11   21    4     -5.92      0.00 
   13   21    4      2.94      0.00 
   15   21    4     -0.86      0.00 
   17   21    4     -0.22      0.00 
    0   22    4     -7.75      0.00 
    2   22    4    -13.99      0.00 
    4   22    4     -6.58      0.00 
    6   22    4      0.65      0.00 
    8   22    4     -2.49      0.00 
   10   22    4     -9.34      0.00 
   12   22    4      9.80      0.00 
   14   22    4      0.02      0.00 
   16   22    4      1.55      0.00 
    1   23    4     -0.95      0.00 
    3   23    4     -5.58      0.00 
    5   23    4      0.55      0.00 
    7   23    4      4.03      0.00 
    9   23    4      0.51      0.00 
   11   23    4      7.31      0.00 
   13   23    4      1.77      0.00 
   15   23    4      1.83      0.00 
    0   24    4      0.58      0.00 
    2   24    4      0.74      0.00 
    4   24    4      2.33      0.00 
    6   24    4     10.04      0.00 
    8   24    4      5.10      0.00 
   10   24    4      3.14      0.00 
   12   24    4     -4.91      0.00 
   14   24    4      5.54      0.00 
    1   25    4      9.35      0.00 
    3   25    4      2.49      0.00 
    5   25    4      9.57      0.00 
    7   25    4      9.41      0.00 
    9   25    4      1.14      0.00 
   11   25    4      5.74      0.00 
   13   25    4     -0.18      0.00 
   15   25    4      2.10      0.00 
    0   26    4      6.84      0.00 
    2   26    4     -5.91      0.00 
    4   26    4      2.86      0.00 
    6   26    4      1.17      0.00 
    8   26    4     -1.75      0.00 
   10   26    4     -1.71      0.00 
   12   26    4     -8.44      0.00 
   14   26    4      1.24      0.00 
    1   27    4     -3.50      0.00 
    3   27    4     -7.54      0.00 
    5   27    4     -1.40      0.00 
    7   27    4      2.67      0.00 
    9   27    4      1.17      0.00 
   11   27    4     -8.51      0.00 
   13   27    4     -0.63      0.00 
    0   28    4     -8.25      0.00 
    2   28    4     -2.44      0.00 
    4   28    4     -7.08      0.00 
    6   28    4      2.43      0.00 
    8   28    4      3.13      0.00 
   10   28    4      2.57      0.00 
   12   28    4      6.63      0.00 
    1   29    4     -3.37      0.00 
    3   29    4     -7.62      0.00 
    5   29    4     -0.09      0.00 
    7   29    4     -4.29      0.00 
    9   29    4      3.45      0.00 
   11   29    4     -1.52      0.00 
    0   30    4     -1.99      0.00 
    2   30    4      1.70      0.00 
    4   30    4     -0.16      0.00 
    6   30    4      1.73      0.00 
    8   30    4     -0.73      0.00 
   10   30    4      1.09      0.00 
   12   30    4      2.82      0.00 
    1   31    4      7.46      0.00 
    3   31    4     -0.05      0.00 
    5   31    4      0.98      0.00 
    7   31    4     -0.33      0.00 
    9   31    4     -0.32      0.00 
   11   31    4      4.14      0.00 
    0   32    4     -1.13      0.00 
    2   32    4     -2.12      0.00 
    4   32    4     -1.09      0.00 
    6   32    4     -1.80      0.00 
    8   32    4     -2.14      0.00 
   10   32    4     -0.86      0.00 
    1   33    4     -3.15      0.00 
    3   33    4     -1.15      0.00 
    5   33    4     -4.39      0.00 
    7   33    4      2.77      0.00 
    9   33    4      2.26      0.00 
    0   34    4     -7.77      0.00 
    2   34    4     -2.55      0.00 
    4   34    4     -1.05      0.00 
    6   34    4      2.02      0.00 
    8   34    4      4.77      0.00 
    1   35    4     -1.55      0.00 
    3   35    4      2.31      0.00 
    5   35    4     -6.28      0.00 
    7   35    4     -6.74      0.00 
    0   36    4      0.64      0.00 
    2   36    4     -3.72      0.00 
    4   36    4     -0.84      0.00 
    1   37    4     -5.68      0.00 
    2    1    5    -13.15      0.00 
    4    1    5     33.28      0.00 
    6    1    5     -7.79      0.00 
    8    1    5      9.12      0.00 
   10    1    5     -6.51      0.00 
   12    1    5     -9.32      0.00 
   14    1    5     -6.73      0.00 
   16    1    5     -4.26      0.00 
   18    1    5      3.51      0.00 
   20    1    5      1.34      0.00 
    1    2    5      9.95      0.00 
    3    2    5     76.88      0.00 
    5    2    5     -6.81      0.00 
    7    2    5    -31.64      0.00 
    9    2    5     -6.32      0.00 
   11    2    5    -14.51      0.00 
   13    2    5     -1.72      0.00 
   15    2    5     -6.06      0.00 
   17    2    5     -7.39      0.00 
   19    2    5      3.54      0.00 
    2    3    5     25.34      0.00 
    4    3    5     15.83      0.00 
    6    3    5     -9.28      0.00 
    8    3    5      6.57      0.00 
   10    3    5    -10.05      0.00 
   12    3    5     -1.76      0.00 
   14    3    5     -5.67      0.00 
   16    3    5      0.03      0.00 
   18    3    5      1.40      0.00 
   20    3    5      0.37      0.00 
    1    4    5    -30.06      0.00 
    3    4    5    -62.75      0.00 
    5    4    5     -8.62      0.00 
    7    4    5    -16.63      0.00 
    9    4    5      5.26      0.00 
   11    4    5     -1.01      0.00 
   13    4    5     -1.61      0.00 
   15    4    5      1.65      0.00 
   17    4    5     -3.94      0.00 
   19    4    5     -3.56      0.00 
    2    5    5     12.79      0.00 
    4    5    5    -18.29      0.00 
    6    5    5     -0.11      0.00 
    8    5    5      5.28      0.00 
   10    5    5     -3.97      0.00 
   12    5    5      5.42      0.00 
   14    5    5      1.57      0.00 
   16    5    5      1.88      0.00 
   18    5    5      1.48      0.00 
   20    5    5     -5.30      0.00 
    1    6    5     12.87      0.00 
    3    6    5     57.79      0.00 
    5    6    5     21.46      0.00 
    7    6    5      7.38      0.00 
    9    6    5      8.59      0.00 
   11    6    5     11.26      0.00 
   13    6    5     -8.09      0.00 
   15    6    5      3.52      0.00 
   17    6    5      4.43      0.00 
   19    6    5      2.72      0.00 
    2    7    5    -27.61      0.00 
    4    7    5      8.36      0.00 
    6    7    5     18.01      0.00 
    8    7    5      9.33      0.00 
   10    7    5      6.20      0.00 
   12    7    5      1.05      0.00 
   14    7    5      3.56      0.00 
   16    7    5     -3.36      0.00 
   18    7    5     10.24      0.00 
   20    7    5     -5.37      0.00 
    1    8    5     23.29      0.00 
    3    8    5     28.30      0.00 
    5    8    5      0.16      0.00 
    7    8    5     -1.61      0.00 
    9    8    5     16.79      0.00 
   11    8    5     -8.53      0.00 
   13    8    5      1.85      0.00 
   15    8    5     -0.73      0.00 
   17    8    5      4.35      0.00 
   19    8    5     -1.73      0.00 
    2    9    5     14.20      0.00 
    4    9    5     20.82      0.00 
    6    9    5     12.64      0.00 
    8    9    5     -9.50      0.00 
   10    9    5      6.62      0.00 
   12    9    5     -8.06      0.00 
   14    9    5      1.37      0.00 
   16    9    5     -4.54      0.00 
   18    9    5      4.18      0.00 
   20    9    5     -2.58      0.00 
    1   10    5     17.60      0.00 
    3   10    5     26.96      0.00 
    5   10    5     -5.54      0.00 
    7   10    5    -19.87      0.00 
    9   10    5     -4.87      0.00 
   11   10    5    -14.97      0.00 
   13   10    5      1.39      0.00 
   15   10    5     -1.85      0.00 
   17   10    5      0.98      0.00 
   19   10    5      1.60      0.00 
    2   11    5      5.19      0.00 
    4   11    5     12.11      0.00 
    6   11    5    -16.74      0.00 
    8   11    5     -7.09      0.00 
   10   11    5     -7.17      0.00 
   12   11    5     -0.60      0.00 
   14   11    5      0.79      0.00 
   16   11    5     -2.28      0.00 
   18   11    5      1.95      0.00 
    1   12    5    -17.51      0.00 
    3   12    5     -4.50      0.00 
    5   12    5    -15.66      0.00 
    7   12    5     -7.09      0.00 
    9   12    5      3.28      0.00 
   11   12    5      0.54      0.00 
   13   12    5     -4.71      0.00 
   15   12    5     -0.30      0.00 
   17   12    5      0.52      0.00 
   19   12    5     -0.42      0.00 
    2   13    5     23.71      0.00 
    4   13    5     11.01      0.00 
    6   13    5     -5.44      0.00 
    8   13    5     -2.36      0.00 
   10   13    5    -18.02      0.00 
   12   13    5     -6.64      0.00 
   14   13    5      3.15      0.00 
   16   13    5     -1.02      0.00 
   18   13    5      2.17      0.00 
    1   14    5     27.99      0.00 
    3   14    5      1.76      0.00 
    5   14    5     22.59      0.00 
    7   14    5     -3.92      0.00 
    9   14    5     20.75      0.00 
   11   14    5     -2.83      0.00 
   13   14    5     -4.20      0.00 
   15   14    5     -3.84      0.00 
   17   14    5      6.11      0.00 
   19   14    5     -8.31      0.00 
    2   15    5     28.97      0.00 
    4   15    5     13.45      0.00 
    6   15    5      1.01      0.00 
    8   15    5     -4.40      0.00 
   10   15    5      3.15      0.00 
   12   15    5     -2.93      0.00 
   14   15    5      1.28      0.00 
   16   15    5     -2.94      0.00 
   18   15    5      1.99      0.00 
    1   16    5     30.32      0.00 
    3   16    5    -12.70      0.00 
    5   16    5      8.86      0.00 
    7   16    5      3.60      0.00 
    9   16    5      6.56      0.00 
   11   16    5     -7.88      0.00 
   13   16    5      6.58      0.00 
   15   16    5     -1.85      0.00 
   17   16    5      4.94      0.00 
    2   17    5     -8.04      0.00 
    4   17    5     -1.79      0.00 
    6   17    5    -12.28      0.00 
    8   17    5     -3.55      0.00 
   10   17    5      4.30      0.00 
   12   17    5     -1.81      0.00 
   14   17    5     -2.05      0.00 
   16   17    5      3.87      0.00 
   18   17    5      0.53      0.00 
    1   18    5     14.85      0.00 
    3   18    5     11.08      0.00 
    5   18    5      4.17      0.00 
    7   18    5     -3.17      0.00 
    9   18    5     -1.91      0.00 
   11   18    5     -5.52      0.00 
   13   18    5     -0.51      0.00 
   15   18    5     -0.10      0.00 
   17   18    5     -0.61      0.00 
    2   19    5     13.32      0.00 
    4   19    5      8.23      0.00 
    6   19    5      1.32      0.00 
    8   19    5      4.51      0.00 
   10   19    5      2.67      0.00 
   12   19    5     -2.02      0.00 
   14   19    5      0.12      0.00 
   16   19    5     -4.18      0.00 
    1   20    5      1.92      0.00 
    3   20    5      8.68      0.00 
    5   20    5     -3.40      0.00 
    7   20    5      0.14      0.00 
    9   20    5     -0.19      0.00 
   11   20    5      1.35      0.00 
   13   20    5     -2.13      0.00 
   15   20    5     -4.37      0.00 
   17   20    5      6.55      0.00 
    2   21    5      3.13      0.00 
    4   21    5     -1.55      0.00 
    6   21    5     -4.58      0.00 
    8   21    5     -0.33      0.00 
   10   21    5      1.99      0.00 
   12   21    5     -2.54      0.00 
   14   21    5     -1.67      0.00 
   16   21    5      2.16      0.00 
    1   22    5     -0.16      0.00 
    3   22    5     10.56      0.00 
    5   22    5    -11.56      0.00 
    7   22    5      1.42      0.00 
    9   22    5      0.73      0.00 
   11   22    5     -1.03      0.00 
   13   22    5      0.96      0.00 
   15   22    5      1.24      0.00 
    2   23    5     -5.66      0.00 
    4   23    5     -5.87      0.00 
    6   23    5     -6.23      0.00 
    8   23    5      0.72      0.00 
   10   23    5     -2.78      0.00 
   12   23    5      1.45      0.00 
   14   23    5     -7.41      0.00 
   16   23    5      6.15      0.00 
    1   24    5      4.96      0.00 
    3   24    5     -0.67      0.00 
    5   24    5     -7.56      0.00 
    7   24    5     -3.05      0.00 
    9   24    5      1.05      0.00 
   11   24    5      1.84      0.00 
   13   24    5     -2.17      0.00 
   15   24    5      3.36      0.00 
    2   25    5     -4.72      0.00 
    4   25    5      1.47      0.00 
    6   25    5     -7.62      0.00 
    8   25    5      3.00      0.00 
   10   25    5     -4.86      0.00 
   12   25    5      3.34      0.00 
   14   25    5     -4.54      0.00 
    1   26    5      0.59      0.00 
    3   26    5      3.04      0.00 
    5   26    5      2.53      0.00 
    7   26    5      5.23      0.00 
    9   26    5      1.50      0.00 
   11   26    5      2.52      0.00 
   13   26    5     -3.03      0.00 
    2   27    5      0.55      0.00 
    4   27    5      5.69      0.00 
    6   27    5     -5.09      0.00 
    8   27    5     10.65      0.00 
   10   27    5      2.12      0.00 
   12   27    5      5.28      0.00 
   14   27    5     -1.72      0.00 
    1   28    5     -3.91      0.00 
    3   28    5      5.01      0.00 
    5   28    5     -1.49      0.00 
    7   28    5     15.96      0.00 
    9   28    5      1.05      0.00 
   11   28    5      3.84      0.00 
   13   28    5     -3.57      0.00 
    2   29    5      2.57      0.00 
    4   29    5     -0.01      0.00 
    6   29    5     -3.00      0.00 
    8   29    5      2.07      0.00 
   10   29    5      2.59      0.00 
   12   29    5      1.38      0.00 
    1   30    5     -4.30      0.00 
    3   30    5     -1.44      0.00 
    5   30    5     -6.53      0.00 
    7   30    5      2.86      0.00 
    9   30    5      1.08      0.00 
   11   30    5     -0.53      0.00 
    2   31    5     -3.23      0.00 
    4   31    5     -0.31      0.00 
    6   31    5     -0.93      0.00 
    8   31    5      4.29      0.00 
   10   31    5     -0.63      0.00 
    1   32    5     -3.35      0.00 
    3   32    5      0.63      0.00 
    5   32    5     -3.02      0.00 
    7   32    5     -0.34      0.00 
    9   32    5      5.05      0.00 
    2   33    5     -5.35      0.00 
    4   33    5     -2.60      0.00 
    6   33    5    -13.07      0.00 
    8   33    5      7.54      0.00 
    1   34    5     -5.68      0.00 
    3   34    5      3.42      0.00 
    5   34    5     -8.99      0.00 
    7   34    5      5.92      0.00 
    2   35    5     -8.36      0.00 
    4   35    5      2.03      0.00 
    6   35    5      3.75      0.00 
    1   36    5     -7.53      0.00 
    3   36    5     -5.94      0.00 
    0    0    6    156.65      0.00 
    2    0    6    -20.25      0.00 
    4    0    6    108.74      0.00 
    6    0    6      2.10      0.00 
    8    0    6    -13.87      0.00 
   10    0    6     22.70      0.00 
   12    0    6    -20.42      0.00 
   14    0    6      0.43      0.00 
   16    0    6     -2.88      0.00 
   18    0    6      0.79      0.00 
   20    0    6     -7.61      0.00 
    1    1    6     49.25      0.00 
    3    1    6     48.15      0.00 
    5    1    6    -48.08      0.00 
    7    1    6     27.57      0.00 
    9    1    6    -10.27      0.00 
   11    1    6     -6.87      0.00 
   13    1    6      1.78      0.00 
   15    1    6      1.04      0.00 
   17    1    6    -10.92      0.00 
   19    1    6      7.12      0.00 
    0    2    6    -97.34      0.00 
    2    2    6    126.48      0.00 
    4    2    6    -14.65      0.00 
    6    2    6    -16.46      0.00 
    8    2    6    -28.71      0.00 
   10    2    6     18.92      0.00 
   12    2    6    -17.52      0.00 
   14    2    6      2.45      0.00 
   16    2    6      1.63      0.00 
   18    2    6      4.50      0.00 
   20    2    6     -4.46      0.00 
    1    3    6     58.09      0.00 
    3    3    6     31.80      0.00 
    5    3    6     21.72      0.00 
    7    3    6     13.06      0.00 
    9    3    6     -7.41      0.00 
   11    3    6     -5.85      0.00 
   13    3    6      9.89      0.00 
   15    3    6      6.97      0.00 
   17    3    6     -4.82      0.00 
   19    3    6      6.97      0.00 
    0    4    6    -17.05      0.00 
    2    4    6    155.29      0.00 
    4    4    6     -1.06      0.00 
    6    4    6    -35.54      0.00 
    8    4    6    -38.94      0.00 
   10    4    6     18.41      0.00 
   12    4    6     -3.79      0.00 
   14    4    6      2.03      0.00 
   16    4    6      5.19      0.00 
   18    4    6      4.65      0.00 
   20    4    6     -1.37      0.00 
    1    5    6     90.60      0.00 
    3    5    6    -49.48      0.00 
    5    5    6    -42.16      0.00 
    7    5    6    -11.94      0.00 
    9    5    6      9.00      0.00 
   11    5    6    -10.87      0.00 
   13    5    6     14.27      0.00 
   15    5    6      9.23      0.00 
   17    5    6     -0.31      0.00 
   19    5    6      6.58      0.00 
    0    6    6   -131.06      0.00 
    2    6    6    -50.71      0.00 
    4    6    6    -31.05      0.00 
    6    6    6    -16.61      0.00 
    8    6    6    -41.07      0.00 
   10    6    6     22.24      0.00 
   12    6    6     -8.78      0.00 
   14    6    6      6.62      0.00 
   16    6    6      4.39      0.00 
   18    6    6      2.35      0.00 
   20    6    6      0.33      0.00 
    1    7    6    -76.79      0.00 
    3    7    6    -59.80      0.00 
    5    7    6    -39.87      0.00 
    7    7    6     -7.24      0.00 
    9    7    6     -3.84      0.00 
   11    7    6     -5.83      0.00 
   13    7    6      7.59      0.00 
   15    7    6      3.31      0.00 
   17    7    6     -3.71      0.00 
   19    7    6      5.75      0.00 
    0    8    6     22.34      0.00 
    2    8    6     43.31      0.00 
    4    8    6    -26.28      0.00 
    6    8    6     -4.60      0.00 
    8    8    6    -12.28      0.00 
   10    8    6      6.92      0.00 
   12    8    6     -8.61      0.00 
   14    8    6      2.23      0.00 
   16    8    6      0.10      0.00 
   18    8    6      3.18      0.00 
   20    8    6     -2.09      0.00 
    1    9    6     51.27      0.00 
    3    9    6     19.41      0.00 
    5    9    6     10.11      0.00 
    7    9    6    -25.81      0.00 
    9    9    6      2.16      0.00 
   11    9    6     -6.57      0.00 
   13    9    6      0.10      0.00 
   15    9    6     -0.43      0.00 
   17    9    6      2.06      0.00 
   19    9    6      2.07      0.00 
    0   10    6     95.21      0.00 
    2   10    6     35.06      0.00 
    4   10    6     14.78      0.00 
    6   10    6     -2.06      0.00 
    8   10    6      4.86      0.00 
   10   10    6    -13.06      0.00 
   12   10    6      3.33      0.00 
   14   10    6     -4.47      0.00 
   16   10    6      3.65      0.00 
   18   10    6      0.68      0.00 
    1   11    6     69.56      0.00 
    3   11    6     32.82      0.00 
    5   11    6     34.92      0.00 
    7   11    6     -4.83      0.00 
    9   11    6      9.91      0.00 
   11   11    6      2.06      0.00 
   13   11    6     -0.60      0.00 
   15   11    6      1.25      0.00 
   17   11    6      0.33      0.00 
   19   11    6     -1.72      0.00 
    0   12    6     47.25      0.00 
    2   12    6     62.60      0.00 
    4   12    6     30.16      0.00 
    6   12    6     18.02      0.00 
    8   12    6      4.80      0.00 
   10   12    6      5.16      0.00 
   12   12    6      3.41      0.00 
   14   12    6     -0.31      0.00 
   16   12    6      4.64      0.00 
   18   12    6      3.40      0.00 
    1   13    6     72.06      0.00 
    3   13    6      8.11      0.00 
    5   13    6    -17.70      0.00 
    7   13    6      1.09      0.00 
    9   13    6      7.87      0.00 
   11   13    6      2.49      0.00 
   13   13    6      4.62      0.00 
   15   13    6      1.24      0.00 
   17   13    6      3.84      0.00 
   19   13    6     -4.41      0.00 
    0   14    6      3.24      0.00 
    2   14    6    -11.19      0.00 
    4   14    6    -12.52      0.00 
    6   14    6      3.28      0.00 
    8   14    6    -11.93      0.00 
   10   14    6      1.73      0.00 
   12   14    6     -8.20      0.00 
   14   14    6     -2.99      0.00 
   16   14    6     -2.40      0.00 
   18   14    6      6.91      0.00 
    1   15    6    -22.28      0.00 
    3   15    6    -24.72      0.00 
    5   15    6    -13.59      0.00 
    7   15    6    -14.96      0.00 
    9   15    6      9.49      0.00 
   11   15    6     -6.50      0.00 
   13   15    6      4.29      0.00 
   15   15    6     -2.58      0.00 
   17   15    6      7.60      0.00 
    0   16    6     -4.64      0.00 
    2   16    6    -37.55      0.00 
    4   16    6    -18.77      0.00 
    6   16    6    -23.35      0.00 
    8   16    6     -3.11      0.00 
   10   16    6     -8.78      0.00 
   12   16    6     -1.57      0.00 
   14   16    6     -3.01      0.00 
   16   16    6      2.51      0.00 
   18   16    6      5.47      0.00 
    1   17    6    -12.68      0.00 
    3   17    6    -26.43      0.00 
    5   17    6     -6.74      0.00 
    7   17    6    -24.83      0.00 
    9   17    6      7.08      0.00 
   11   17    6     -6.59      0.00 
   13   17    6      9.36      0.00 
   15   17    6     -7.22      0.00 
   17   17    6      6.70      0.00 
    0   18    6     20.27      0.00 
    2   18    6     -3.79      0.00 
    4   18    6    -15.50      0.00 
    6   18    6    -13.84      0.00 
    8   18    6     -1.00      0.00 
   10   18    6      2.34      0.00 
   12   18    6     -1.26      0.00 
   14   18    6     -1.21      0.00 
   16   18    6      4.56      0.00 
    1   19    6      3.37      0.00 
    3   19    6     18.58      0.00 
    5   19    6      8.18      0.00 
    7   19    6     -8.82      0.00 
    9   19    6     12.50      0.00 
   11   19    6      0.05      0.00 
   13   19    6     11.27      0.00 
   15   19    6     -9.85      0.00 
   17   19    6      9.10      0.00 
    0   20    6     33.30      0.00 
    2   20    6     14.10      0.00 
    4   20    6     11.89      0.00 
    6   20    6      6.06      0.00 
    8   20    6     10.15      0.00 
   10   20    6      5.61      0.00 
   12   20    6      9.18      0.00 
   14   20    6     -5.79      0.00 
   16   20    6      4.56      0.00 
    1   21    6     30.80      0.00 
    3   21    6     28.19      0.00 
    5   21    6     17.34      0.00 
    7   21    6     -3.28      0.00 
    9   21    6     17.66      0.00 
   11   21    6     -5.95      0.00 
   13   21    6      2.65      0.00 
   15   21    6     -7.75      0.00 
   17   21    6     10.36      0.00 
    0   22    6     20.07      0.00 
    2   22    6     17.01      0.00 
    4   22    6     19.58      0.00 
    6   22    6      1.00      0.00 
    8   22    6     11.99      0.00 
   10   22    6     -7.13      0.00 
   12   22    6      6.66      0.00 
   14   22    6    -10.43      0.00 
   16   22    6      8.63      0.00 
    1   23    6      4.86      0.00 
    3   23    6      7.96      0.00 
    5   23    6      4.98      0.00 
    7   23    6      3.05      0.00 
    9   23    6     -1.02      0.00 
   11   23    6     -1.88      0.00 
   13   23    6     -4.10      0.00 
   15   23    6     -8.72      0.00 
    0   24    6     -7.96      0.00 
    2   24    6     -2.73      0.00 
    4   24    6      9.41      0.00 
    6   24    6     -9.86      0.00 
    8   24    6      8.07      0.00 
   10   24    6      1.15      0.00 
   12   24    6      0.87      0.00 
   14   24    6     -3.81      0.00 
    1   25    6    -12.11      0.00 
    3   25    6     -3.09      0.00 
    5   25    6     -2.89      0.00 
    7   25    6     -8.12      0.00 
    9   25    6     -7.03      0.00 
   11   25    6      3.53      0.00 
   13   25    6      5.82      0.00 
   15   25    6     -4.01      0.00 
    0   26    6      3.90      0.00 
    2   26    6    -12.23      0.00 
    4   26    6      2.76      0.00 
    6   26    6    -12.90      0.00 
    8   26    6      7.87      0.00 
   10   26    6      1.56      0.00 
   12   26    6      4.23      0.00 
   14   26    6     -0.44      0.00 
    1   27    6      1.17      0.00 
    3   27    6      4.29      0.00 
    5   27    6      0.68      0.00 
    7   27    6     -7.84      0.00 
    9   27    6     -0.60      0.00 
   11   27    6    -11.31      0.00 
   13   27    6      2.64      0.00 
    0   28    6     -0.24      0.00 
    2   28    6      5.07      0.00 
    4   28    6      2.22      0.00 
    6   28    6     -3.77      0.00 
    8   28    6      0.37      0.00 
   10   28    6      1.49      0.00 
   12   28    6     13.57      0.00 
    1   29    6     -3.41      0.00 
    3   29    6      4.98      0.00 
    5   29    6     13.25      0.00 
    7   29    6      0.88      0.00 
    9   29    6      7.78      0.00 
   11   29    6     -9.27      0.00 
    0   30    6      0.79      0.00 
    2   30    6      4.33      0.00 
    4   30    6      3.45      0.00 
    6   30    6     -0.01      0.00 
    8   30    6     -1.35      0.00 
   10   30    6     -1.84      0.00 
    1   31    6      3.48      0.00 
    3   31    6      2.45      0.00 
    5   31    6      5.03      0.00 
    7   31    6      0.93      0.00 
    9   31    6      2.93      0.00 
   11   31    6     12.80      0.00 
    0   32    6      0.34      0.00 
    2   32    6      4.41      0.00 
    4   32    6      5.35      0.00 
    6   32    6      4.45      0.00 
    8   32    6      4.95      0.00 
   10   32    6     -7.45      0.00 
    1   33    6      3.50      0.00 
    3   33    6      2.61      0.00 
    5   33    6      1.12      0.00 
    7   33    6      7.74      0.00 
    9   33    6     -7.39      0.00 
    0   34    6     -1.55      0.00 
    2   34    6      7.21      0.00 
    4   34    6      5.04      0.00 
    6   34    6      1.73      0.00 
    8   34    6     -4.93      0.00 
    1   35    6      2.77      0.00 
    3   35    6     -2.20      0.00 
    5   35    6     -6.96      0.00 
    0   36    6     -0.64      0.00 
    2   36    6     -0.66      0.00 
    4   36    6     -5.39      0.00 
    2    1    7    -55.95      0.00 
    4    1    7     54.74      0.00 
    6    1    7     -0.76      0.00 
    8    1    7     15.40      0.00 
   10    1    7     16.51      0.00 
   12    1    7      9.15      0.00 
   14    1    7      7.23      0.00 
   16    1    7      0.85      0.00 
   18    1    7      5.45      0.00 
   20    1    7     -9.49      0.00 
    1    2    7     32.31      0.00 
    3    2    7    -54.64      0.00 
    5    2    7    -12.97      0.00 
    7    2    7     20.98      0.00 
    9    2    7     16.17      0.00 
   11    2    7      9.83      0.00 
   13    2    7     16.15      0.00 
   15    2    7      5.39      0.00 
   17    2    7      0.73      0.00 
   19    2    7      1.16      0.00 
    2    3    7    -17.54      0.00 
    4    3    7     53.08      0.00 
    6    3    7     -2.27      0.00 
    8    3    7     15.76      0.00 
   10    3    7     17.21      0.00 
   12    3    7      9.25      0.00 
   14    3    7      7.27      0.00 
   16    3    7      1.21      0.00 
   18    3    7      4.35      0.00 
   20    3    7     -7.78      0.00 
    1    4    7     70.68      0.00 
    3    4    7    -57.03      0.00 
    5    4    7     47.39      0.00 
    7    4    7     20.77      0.00 
    9    4    7     26.92      0.00 
   11    4    7      1.01      0.00 
   13    4    7      3.42      0.00 
   15    4    7     -0.37      0.00 
   17    4    7     -1.71      0.00 
   19    4    7     -2.47      0.00 
    2    5    7      9.77      0.00 
    4    5    7      1.07      0.00 
    6    5    7      1.05      0.00 
    8    5    7      1.44      0.00 
   10    5    7     -2.08      0.00 
   12    5    7     -2.66      0.00 
   14    5    7      2.64      0.00 
   16    5    7     -4.18      0.00 
   18    5    7      6.22      0.00 
   20    5    7     -4.56      0.00 
    1    6    7     58.01      0.00 
    3    6    7     -0.34      0.00 
    5    6    7     18.42      0.00 
    7    6    7    -33.32      0.00 
    9    6    7    -12.57      0.00 
   11    6    7    -14.68      0.00 
   13    6    7     -5.02      0.00 
   15    6    7     -1.12      0.00 
   17    6    7     -1.94      0.00 
   19    6    7      2.31      0.00 
    2    7    7    -24.05      0.00 
    4    7    7    -32.82      0.00 
    6    7    7     -3.53      0.00 
    8    7    7    -19.55      0.00 
   10    7    7    -12.21      0.00 
   12    7    7      0.49      0.00 
   14    7    7      7.43      0.00 
   16    7    7    -10.60      0.00 
   18    7    7      7.33      0.00 
   20    7    7    -10.15      0.00 
    1    8    7    -18.02      0.00 
    3    8    7    -82.68      0.00 
    5    8    7    -21.02      0.00 
    7    8    7    -43.28      0.00 
    9    8    7     12.20      0.00 
   11    8    7    -22.24      0.00 
   13    8    7     10.32      0.00 
   15    8    7     -4.62      0.00 
   17    8    7      4.11      0.00 
   19    8    7     -2.44      0.00 
    2    9    7     18.29      0.00 
    4    9    7    -52.86      0.00 
    6    9    7     -6.45      0.00 
    8    9    7    -24.59      0.00 
   10    9    7      5.08      0.00 
   12    9    7     -3.26      0.00 
   14    9    7      8.47      0.00 
   16    9    7     -8.02      0.00 
   18    9    7      6.76      0.00 
    1   10    7     -1.13      0.00 
    3   10    7    -23.31      0.00 
    5   10    7     19.96      0.00 
    7   10    7    -10.21      0.00 
    9   10    7     22.19      0.00 
   11   10    7    -13.93      0.00 
   13   10    7     14.63      0.00 
   15   10    7     -4.77      0.00 
   17   10    7      6.24      0.00 
   19   10    7     -5.06      0.00 
    2   11    7    -11.53      0.00 
    4   11    7     -0.40      0.00 
    6   11    7     26.23      0.00 
    8   11    7      5.69      0.00 
   10   11    7      9.40      0.00 
   12   11    7     -0.82      0.00 
   14   11    7     -0.05      0.00 
   16   11    7    -10.16      0.00 
   18   11    7      9.54      0.00 
    1   12    7     -5.18      0.00 
    3   12    7    -17.00      0.00 
    5   12    7      2.22      0.00 
    7   12    7      4.67      0.00 
    9   12    7     18.42      0.00 
   11   12    7      0.40      0.00 
   13   12    7      9.13      0.00 
   15   12    7     -2.92      0.00 
   17   12    7      5.39      0.00 
   19   12    7     -4.98      0.00 
    2   13    7    -18.58      0.00 
    4   13    7     -0.03      0.00 
    6   13    7     14.17      0.00 
    8   13    7      3.92      0.00 
   10   13    7     11.59      0.00 
   12   13    7      2.42      0.00 
   14   13    7      8.03      0.00 
   16   13    7     -1.64      0.00 
   18   13    7      9.99      0.00 
    1   14    7     23.75      0.00 
    3   14    7    -16.17      0.00 
    5   14    7     21.67      0.00 
    7   14    7    -12.41      0.00 
    9   14    7     13.71      0.00 
   11   14    7     -1.77      0.00 
   13   14    7     11.48      0.00 
   15   14    7     -3.72      0.00 
   17   14    7      2.26      0.00 
   19   14    7    -12.46      0.00 
    2   15    7    -12.14      0.00 
    4   15    7     -4.39      0.00 
    6   15    7     -1.77      0.00 
    8   15    7      5.25      0.00 
   10   15    7      8.34      0.00 
   12   15    7     -4.62      0.00 
   14   15    7      8.74      0.00 
   16   15    7     -2.31      0.00 
   18   15    7      7.48      0.00 
    1   16    7     14.46      0.00 
    3   16    7    -38.32      0.00 
    5   16    7     12.72      0.00 
    7   16    7     -2.78      0.00 
    9   16    7      3.69      0.00 
   11   16    7     -1.02      0.00 
   13   16    7      9.51      0.00 
   15   16    7     -6.58      0.00 
   17   16    7      1.44      0.00 
    2   17    7    -19.56      0.00 
    4   17    7      0.08      0.00 
    6   17    7     -6.79      0.00 
    8   17    7      8.18      0.00 
   10   17    7      1.16      0.00 
   12   17    7     -0.97      0.00 
   14   17    7      0.24      0.00 
   16   17    7      0.66      0.00 
   18   17    7      7.71      0.00 
    1   18    7     -3.65      0.00 
    3   18    7    -18.05      0.00 
    5   18    7     -5.21      0.00 
    7   18    7    -15.73      0.00 
    9   18    7     -2.42      0.00 
   11   18    7     -5.48      0.00 
   13   18    7      1.81      0.00 
   15   18    7     -2.83      0.00 
   17   18    7      1.35      0.00 
    2   19    7    -13.45      0.00 
    4   19    7     -9.35      0.00 
    6   19    7     -4.71      0.00 
    8   19    7     -8.07      0.00 
   10   19    7    -12.83      0.00 
   12   19    7      0.31      0.00 
   14   19    7      2.85      0.00 
   16   19    7     -1.39      0.00 
    1   20    7    -13.57      0.00 
    3   20    7    -18.69      0.00 
    5   20    7    -12.10      0.00 
    7   20    7     -5.43      0.00 
    9   20    7      4.04      0.00 
   11   20    7     -3.64      0.00 
   13   20    7      2.12      0.00 
   15   20    7     -3.34      0.00 
   17   20    7      5.06      0.00 
    2   21    7    -19.11      0.00 
    4   21    7    -11.06      0.00 
    6   21    7     -5.45      0.00 
    8   21    7     -7.75      0.00 
   10   21    7     -8.64      0.00 
   12   21    7      0.81      0.00 
   14   21    7      0.42      0.00 
   16   21    7      3.35      0.00 
    1   22    7     -4.91      0.00 
    3   22    7      3.55      0.00 
    5   22    7     -5.41      0.00 
    7   22    7      5.50      0.00 
    9   22    7      2.15      0.00 
   11   22    7      3.27      0.00 
   13   22    7      1.73      0.00 
   15   22    7     -0.91      0.00 
    2   23    7     -0.86      0.00 
    4   23    7      7.86      0.00 
    6   23    7      8.01      0.00 
    8   23    7      9.91      0.00 
   10   23    7      2.01      0.00 
   12   23    7      8.88      0.00 
   14   23    7     -2.87      0.00 
    1   24    7     -0.03      0.00 
    3   24    7     -1.74      0.00 
    5   24    7      5.73      0.00 
    7   24    7      9.11      0.00 
    9   24    7      6.22      0.00 
   11   24    7      8.21      0.00 
   13   24    7     -0.79      0.00 
   15   24    7      5.43      0.00 
    2   25    7     -7.45      0.00 
    4   25    7      1.51      0.00 
    6   25    7      6.35      0.00 
    8   25    7     10.01      0.00 
   10   25    7     -7.94      0.00 
   12   25    7      9.36      0.00 
   14   25    7     -4.70      0.00 
    1   26    7     -7.21      0.00 
    3   26    7     -5.35      0.00 
    5   26    7      5.11      0.00 
    7   26    7      0.60      0.00 
    9   26    7      1.55      0.00 
   11   26    7      4.71      0.00 
   13   26    7     -2.10      0.00 
    2   27    7     -2.62      0.00 
    4   27    7     -4.38      0.00 
    6   27    7     -9.35      0.00 
    8   27    7      1.35      0.00 
   10   27    7     -7.02      0.00 
   12   27    7      6.16      0.00 
    1   28    7     -8.57      0.00 
    3   28    7     -3.40      0.00 
    5   28    7     -8.74      0.00 
    7   28    7      2.80      0.00 
    9   28    7     -6.20      0.00 
   11   28    7      5.79      0.00 
   13   28    7      1.89      0.00 
    2   29    7     -7.33      0.00 
    4   29    7     -5.00      0.00 
    6   29    7     -2.79      0.00 
    8   29    7     -2.35      0.00 
   10   29    7     -7.57      0.00 
   12   29    7     -2.40      0.00 
    1   30    7     -7.71      0.00 
    3   30    7     -0.17      0.00 
    5   30    7     -8.93      0.00 
    7   30    7      1.68      0.00 
    9   30    7     -7.89      0.00 
   11   30    7      1.94      0.00 
    2   31    7     -7.17      0.00 
    4   31    7      0.55      0.00 
    6   31    7     -5.65      0.00 
    8   31    7     -2.75      0.00 
   10   31    7     -7.13      0.00 
    1   32    7     -3.64      0.00 
    3   32    7      2.25      0.00 
    5   32    7     -9.97      0.00 
    7   32    7      0.63      0.00 
    9   32    7     -2.19      0.00 
    2   33    7     -5.81      0.00 
    4   33    7     -3.04      0.00 
    6   33    7     -0.80      0.00 
    8   33    7     11.25      0.00 
    1   34    7     -5.37      0.00 
    3   34    7      7.36      0.00 
    5   34    7     -3.11      0.00 
    7   34    7     10.24      0.00 
    2   35    7     -1.00      0.00 
    4   35    7      7.12      0.00 
    6   35    7     28.03      0.00 
    1   36    7     -7.72      0.00 
    3   36    7     -0.07      0.00 
    0    0    8     47.59      0.00 
    2    0    8    -41.00      0.00 
    4    0    8     78.40      0.00 
    6    0    8    -27.83      0.00 
    8    0    8    -38.60      0.00 
   10    0    8     26.82      0.00 
   12    0    8    -16.17      0.00 
   14    0    8      7.50      0.00 
   16    0    8     -8.48      0.00 
   18    0    8      3.43      0.00 
   20    0    8     -6.82      0.00 
    1    1    8      9.41      0.00 
    3    1    8   -102.50      0.00 
    5    1    8      2.42      0.00 
    7    1    8     18.05      0.00 
    9    1    8    -13.51      0.00 
   11    1    8      4.10      0.00 
   13    1    8     -6.08      0.00 
   15    1    8     10.40      0.00 
   17    1    8     -9.93      0.00 
   19    1    8     12.14      0.00 
    0    2    8   -199.80      0.00 
    2    2    8      3.59      0.00 
    4    2    8    -50.99      0.00 
    6    2    8      3.40      0.00 
    8    2    8    -43.24      0.00 
   10    2    8     26.33      0.00 
   12    2    8    -21.48      0.00 
   14    2    8      4.91      0.00 
   16    2    8     -8.19      0.00 
   18    2    8      8.14      0.00 
   20    2    8     -5.48      0.00 
    1    3    8    -14.25      0.00 
    3    3    8    -48.50      0.00 
    5    3    8     23.99      0.00 
    7    3    8     20.28      0.00 
    9    3    8    -10.52      0.00 
   11    3    8     -5.39      0.00 
   13    3    8      3.71      0.00 
   15    3    8      2.95      0.00 
   17    3    8     -5.67      0.00 
   19    3    8      7.65      0.00 
    0    4    8    -65.22      0.00 
    2    4    8     80.86      0.00 
    4    4    8    -29.40      0.00 
    6    4    8     41.29      0.00 
    8    4    8    -17.40      0.00 
   10    4    8     27.24      0.00 
   12    4    8    -16.58      0.00 
   14    4    8     -0.33      0.00 
   16    4    8     -6.86      0.00 
   18    4    8      8.42      0.00 
   20    4    8     -4.48      0.00 
    1    5    8     59.77      0.00 
    3    5    8    -30.12      0.00 
    5    5    8     17.48      0.00 
    7    5    8     -1.32      0.00 
    9    5    8      5.80      0.00 
   11    5    8    -12.58      0.00 
   13    5    8      5.87      0.00 
   15    5    8     -1.00      0.00 
   17    5    8     -6.98      0.00 
   19    5    8      8.18      0.00 
    0    6    8    -24.61      0.00 
    2    6    8     57.90      0.00 
    4    6    8     22.38      0.00 
    6    6    8     40.35      0.00 
    8    6    8    -25.07      0.00 
   10    6    8     18.09      0.00 
   12    6    8    -11.50      0.00 
   14    6    8     -2.71      0.00 
   16    6    8     -5.36      0.00 
   18    6    8      5.31      0.00 
   20    6    8     -0.17      0.00 
    1    7    8     -8.39      0.00 
    3    7    8     13.54      0.00 
    5    7    8     13.98      0.00 
    7    7    8     -0.56      0.00 
    9    7    8      7.16      0.00 
   11    7    8     -5.62      0.00 
   13    7    8      1.91      0.00 
   15    7    8      3.48      0.00 
   17    7    8     -2.38      0.00 
   19    7    8      9.08      0.00 
    0    8    8     -5.23      0.00 
    2    8    8     29.06      0.00 
    4    8    8      2.67      0.00 
    6    8    8     18.60      0.00 
    8    8    8     -8.71      0.00 
   10    8    8     11.02      0.00 
   12    8    8     -6.85      0.00 
   14    8    8      4.04      0.00 
   16    8    8     -5.32      0.00 
   18    8    8      0.73      0.00 
    1    9    8     41.07      0.00 
    3    9    8     11.02      0.00 
    5    9    8      0.20      0.00 
    7    9    8     -4.12      0.00 
    9    9    8      7.01      0.00 
   11    9    8     -4.55      0.00 
   13    9    8      1.58      0.00 
   15    9    8      1.52      0.00 
   17    9    8      2.26      0.00 
   19    9    8      1.76      0.00 
    0   10    8    -56.52      0.00 
    2   10    8    -56.36      0.00 
    4   10    8    -12.05      0.00 
    6   10    8    -29.69      0.00 
    8   10    8    -11.47      0.00 
   10   10    8     -8.05      0.00 
   12   10    8      0.65      0.00 
   14   10    8     -1.78      0.00 
   16   10    8     -5.18      0.00 
   18   10    8      3.36      0.00 
    1   11    8    -52.30      0.00 
    3   11    8    -30.75      0.00 
    5   11    8     -3.23      0.00 
    7   11    8     -0.44      0.00 
    9   11    8     -4.59      0.00 
   11   11    8     -6.28      0.00 
   13   11    8     -2.63      0.00 
   15   11    8     -3.91      0.00 
   17   11    8     -6.23      0.00 
   19   11    8      0.65      0.00 
    0   12    8    -36.34      0.00 
    2   12    8      6.80      0.00 
    4   12    8     -2.48      0.00 
    6   12    8     -8.65      0.00 
    8   12    8      2.55      0.00 
   10   12    8     -2.59      0.00 
   12   12    8     -3.91      0.00 
   14   12    8     -7.47      0.00 
   16   12    8      0.95      0.00 
   18   12    8      4.26      0.00 
    1   13    8    -30.78      0.00 
    3   13    8      6.70      0.00 
    5   13    8    -11.87      0.00 
    7   13    8    -10.00      0.00 
    9   13    8     -4.89      0.00 
   11   13    8     -5.17      0.00 
   13   13    8      7.33      0.00 
   15   13    8     -4.71      0.00 
   17   13    8      0.94      0.00 
   19   13    8      2.96      0.00 
    0   14    8     14.91      0.00 
    2   14    8     20.83      0.00 
    4   14    8     -4.66      0.00 
    6   14    8     -2.21      0.00 
    8   14    8     -7.71      0.00 
   10   14    8     -9.97      0.00 
   12   14    8     -1.32      0.00 
   14   14    8     -2.60      0.00 
   16   14    8     -1.01      0.00 
   18   14    8      1.81      0.00 
    1   15    8     10.79      0.00 
    3   15    8     27.15      0.00 
    5   15    8     16.91      0.00 
    7   15    8     -4.31      0.00 
    9   15    8     12.89      0.00 
   11   15    8    -10.50      0.00 
   13   15    8      7.47      0.00 
   15   15    8     -5.61      0.00 
   17   15    8      7.77      0.00 
    0   16    8     18.87      0.00 
    2   16    8      7.34      0.00 
    4   16    8     23.39      0.00 
    6   16    8     -0.59      0.00 
    8   16    8     17.65      0.00 
   10   16    8     -3.20      0.00 
   12   16    8     16.42      0.00 
   14   16    8      2.53      0.00 
   16   16    8     -0.53      0.00 
   18   16    8      2.96      0.00 
    1   17    8     16.53      0.00 
    3   17    8      0.64      0.00 
    5   17    8     12.90      0.00 
    7   17    8     -3.34      0.00 
    9   17    8      9.52      0.00 
   11   17    8    -12.35      0.00 
   13   17    8      9.02      0.00 
   15   17    8     -6.43      0.00 
   17   17    8     11.28      0.00 
    0   18    8     23.96      0.00 
    2   18    8      6.12      0.00 
    4   18    8     14.46      0.00 
    6   18    8      0.37      0.00 
    8   18    8      4.81      0.00 
   10   18    8     -8.64      0.00 
   12   18    8     -3.15      0.00 
   14   18    8     -3.01      0.00 
   16   18    8      1.58      0.00 
    1   19    8     -6.15      0.00 
    3   19    8     -1.07      0.00 
    5   19    8      1.05      0.00 
    7   19    8     -8.24      0.00 
    9   19    8      3.08      0.00 
   11   19    8    -13.00      0.00 
   13   19    8     13.07      0.00 
   15   19    8     -9.56      0.00 
   17   19    8     12.16      0.00 
    0   20    8     -5.09      0.00 
    2   20    8    -16.89      0.00 
    4   20    8      2.71      0.00 
    6   20    8     -1.42      0.00 
    8   20    8      2.93      0.00 
   10   20    8    -14.97      0.00 
   12   20    8      2.51      0.00 
   14   20    8     -6.61      0.00 
   16   20    8      5.87      0.00 
    1   21    8     -0.92      0.00 
    3   21    8    -17.80      0.00 
    5   21    8     -8.09      0.00 
    7   21    8    -20.02      0.00 
    9   21    8      5.55      0.00 
   11   21    8    -13.56      0.00 
   13   21    8      7.50      0.00 
   15   21    8     -7.82      0.00 
    0   22    8      6.42      0.00 
    2   22    8     -6.10      0.00 
    4   22    8     -4.55      0.00 
    6   22    8    -13.10      0.00 
    8   22    8      0.91      0.00 
   10   22    8    -18.11      0.00 
   12   22    8      4.83      0.00 
   14   22    8     -4.46      0.00 
   16   22    8      7.40      0.00 
    1   23    8      2.23      0.00 
    3   23    8    -14.41      0.00 
    5   23    8     -2.38      0.00 
    7   23    8     -1.57      0.00 
    9   23    8     -0.59      0.00 
   11   23    8     -6.70      0.00 
   13   23    8      7.94      0.00 
   15   23    8     -4.89      0.00 
    0   24    8     20.67      0.00 
    2   24    8      0.72      0.00 
    4   24    8      4.35      0.00 
    6   24    8     -9.52      0.00 
    8   24    8     -3.66      0.00 
   10   24    8     -6.28      0.00 
   12   24    8     -1.82      0.00 
   14   24    8      2.03      0.00 
    1   25    8      4.97      0.00 
    3   25    8     -2.85      0.00 
    5   25    8      5.41      0.00 
    7   25    8      5.61      0.00 
    9   25    8      4.60      0.00 
   11   25    8     -1.30      0.00 
   13   25    8     14.23      0.00 
    0   26    8     18.34      0.00 
    2   26    8     -7.18      0.00 
    4   26    8      5.59      0.00 
    6   26    8     -5.56      0.00 
    8   26    8      8.68      0.00 
   10   26    8     -2.42      0.00 
   12   26    8     -8.89      0.00 
   14   26    8     -7.47      0.00 
    1   27    8     14.66      0.00 
    3   27    8     -3.43      0.00 
    5   27    8      2.91      0.00 
    7   27    8     -2.70      0.00 
    9   27    8     -4.70      0.00 
   11   27    8     -9.58      0.00 
   13   27    8      3.68      0.00 
    0   28    8    -15.04      0.00 
    2   28    8     -2.46      0.00 
    4   28    8      1.95      0.00 
    6   28    8     -3.14      0.00 
    8   28    8      6.05      0.00 
   10   28    8     -0.09      0.00 
   12   28    8     14.79      0.00 
    1   29    8      0.22      0.00 
    3   29    8    -10.63      0.00 
    5   29    8      1.33      0.00 
    7   29    8     -5.34      0.00 
    9   29    8     -0.11      0.00 
   11   29    8     -8.01      0.00 
    0   30    8      0.55      0.00 
    2   30    8      0.83      0.00 
    4   30    8     -7.05      0.00 
    6   30    8     -6.70      0.00 
    8   30    8     -2.67      0.00 
   10   30    8     -2.08      0.00 
    1   31    8      1.10      0.00 
    3   31    8     -5.84      0.00 
    5   31    8     -4.08      0.00 
    7   31    8     -5.89      0.00 
    9   31    8     -1.04      0.00 
    0   32    8     -0.54      0.00 
    2   32    8      4.88      0.00 
    4   32    8     -3.09      0.00 
    6   32    8     -1.12      0.00 
    8   32    8      0.47      0.00 
    1   33    8      0.94      0.00 
    3   33    8     -0.77      0.00 
    5   33    8     -0.62      0.00 
    7   33    8      4.71      0.00 
    0   34    8     -6.86      0.00 
    2   34    8      2.11      0.00 
    4   34    8     -1.71      0.00 
    6   34    8     -1.77      0.00 
    1   35    8      3.69      0.00 
    3   35    8     -0.27      0.00 
    5   35    8     -5.54      0.00 
    0   36    8     -8.43      0.00 
    2   36    8     -1.42      0.00 
    2    1    9    -11.93      0.00 
    4    1    9     49.01      0.00 
    6    1    9    -22.11      0.00 
    8    1    9     -2.46      0.00 
   10    1    9     -7.15      0.00 
   12    1    9     -8.70      0.00 
   14    1    9     -1.27      0.00 
   16    1    9     -5.50      0.00 
   18    1    9      9.37      0.00 
   20    1    9      3.57      0.00 
    1    2    9      6.70      0.00 
    3    2    9     27.35      0.00 
    5    2    9     -4.10      0.00 
    7    2    9      2.21      0.00 
    9    2    9    -17.61      0.00 
   11    2    9    -17.13      0.00 
   13    2    9     -8.87      0.00 
   15    2    9     -2.04      0.00 
   17    2    9     -2.17      0.00 
   19    2    9      3.25      0.00 
    2    3    9    -14.81      0.00 
    4    3    9      1.74      0.00 
    6    3    9    -23.33      0.00 
    8    3    9    -14.89      0.00 
   10    3    9    -17.08      0.00 
   12    3    9     -5.01      0.00 
   14    3    9      1.85      0.00 
   16    3    9     -5.88      0.00 
   18    3    9      2.80      0.00 
   20    3    9      2.06      0.00 
    1    4    9     -2.59      0.00 
    3    4    9    -23.42      0.00 
    5    4    9      0.20      0.00 
    7    4    9    -31.38      0.00 
    9    4    9      2.16      0.00 
   11    4    9     -8.55      0.00 
   13    4    9      5.34      0.00 
   15    4    9     -2.63      0.00 
   17    4    9     -1.01      0.00 
   19    4    9     -3.90      0.00 
    2    5    9     -9.89      0.00 
    4    5    9    -35.42      0.00 
    6    5    9     -8.08      0.00 
    8    5    9      1.18      0.00 
   10    5    9      6.04      0.00 
   12    5    9      1.80      0.00 
   14    5    9      1.77      0.00 
   16    5    9     -0.24      0.00 
   18    5    9      9.16      0.00 
   20    5    9     -2.38      0.00 
    1    6    9     15.97      0.00 
    3    6    9     -5.67      0.00 
    5    6    9      8.93      0.00 
    7    6    9    -13.17      0.00 
    9    6    9     11.76      0.00 
   11    6    9      2.77      0.00 
   13    6    9     12.25      0.00 
   15    6    9      7.43      0.00 
   17    6    9      5.46      0.00 
   19    6    9     -3.70      0.00 
    2    7    9     -3.50      0.00 
    4    7    9     37.36      0.00 
    6    7    9     20.20      0.00 
    8    7    9     17.76      0.00 
   10    7    9      6.89      0.00 
   12    7    9     -4.08      0.00 
   14    7    9     -7.31      0.00 
   16    7    9    -14.88      0.00 
   18    7    9      7.02      0.00 
    1    8    9     10.09      0.00 
    3    8    9     -2.25      0.00 
    5    8    9     32.82      0.00 
    7    8    9     11.24      0.00 
    9    8    9     26.16      0.00 
   11    8    9     -8.30      0.00 
   13    8    9      6.52      0.00 
   15    8    9     -5.49      0.00 
   17    8    9      5.61      0.00 
   19    8    9     -5.08      0.00 
    2    9    9     15.70      0.00 
    4    9    9     19.38      0.00 
    6    9    9      6.96      0.00 
    8    9    9     -8.80      0.00 
   10    9    9      4.84      0.00 
   12    9    9     -8.40      0.00 
   14    9    9      5.02      0.00 
   16    9    9    -11.24      0.00 
   18    9    9      9.52      0.00 
    1   10    9     20.97      0.00 
    3   10    9     15.12      0.00 
    5   10    9     19.99      0.00 
    7   10    9    -19.01      0.00 
    9   10    9     11.99      0.00 
   11   10    9    -14.43      0.00 
   13   10    9      6.86      0.00 
   15   10    9    -10.09      0.00 
   17   10    9      4.13      0.00 
   19   10    9     -5.61      0.00 
    2   11    9      0.75      0.00 
    4   11    9     19.28      0.00 
    6   11    9      2.07      0.00 
    8   11    9    -11.54      0.00 
   10   11    9     -8.45      0.00 
   12   11    9     -7.44      0.00 
   14   11    9     11.29      0.00 
   16   11    9     -9.14      0.00 
   18   11    9      7.59      0.00 
    1   12    9      4.28      0.00 
    3   12    9    -21.68      0.00 
    5   12    9    -14.50      0.00 
    7   12    9    -20.96      0.00 
    9   12    9      6.05      0.00 
   11   12    9    -10.63      0.00 
   13   12    9      8.30      0.00 
   15   12    9     -6.25      0.00 
   17   12    9      3.36      0.00 
   19   12    9     -6.55      0.00 
    2   13    9      4.10      0.00 
    4   13    9     -3.85      0.00 
    6   13    9     -9.61      0.00 
    8   13    9     -7.40      0.00 
   10   13    9      2.71      0.00 
   12   13    9     -2.92      0.00 
   14   13    9      8.28      0.00 
   16   13    9     -5.58      0.00 
   18   13    9      5.62      0.00 
    1   14    9     23.53      0.00 
    3   14    9    -19.20      0.00 
    5   14    9     24.14      0.00 
    7   14    9    -15.41      0.00 
    9   14    9     12.74      0.00 
   11   14    9     -6.75      0.00 
   13   14    9      8.41      0.00 
   15   14    9     -6.97      0.00 
   17   14    9      4.51      0.00 
    2   15    9     18.99      0.00 
    4   15    9      1.92      0.00 
    6   15    9     -1.12      0.00 
    8   15    9     -8.55      0.00 
   10   15    9     -0.94      0.00 
   12   15    9     -8.13      0.00 
   14   15    9      3.98      0.00 
   16   15    9     -6.89      0.00 
   18   15    9      7.23      0.00 
    1   16    9     24.04      0.00 
    3   16    9    -19.54      0.00 
    5   16    9     12.24      0.00 
    7   16    9    -11.47      0.00 
    9   16    9      4.19      0.00 
   11   16    9     -7.79      0.00 
   13   16    9      6.21      0.00 
   15   16    9     -5.38      0.00 
   17   16    9      4.16      0.00 
    2   17    9      1.68      0.00 
    4   17    9     -0.56      0.00 
    6   17    9     -0.99      0.00 
    8   17    9     -3.54      0.00 
   10   17    9     -0.43      0.00 
   12   17    9     -4.79      0.00 
   14   17    9      0.91      0.00 
   16   17    9     -6.14      0.00 
    1   18    9      9.04      0.00 
    3   18    9     10.09      0.00 
    5   18    9      4.44      0.00 
    7   18    9     -7.56      0.00 
    9   18    9      0.08      0.00 
   11   18    9     -3.56      0.00 
   13   18    9      8.35      0.00 
   15   18    9      0.22      0.00 
   17   18    9      4.92      0.00 
    2   19    9     10.74      0.00 
    4   19    9     12.12      0.00 
    6   19    9     12.30      0.00 
    8   19    9      4.46      0.00 
   10   19    9      9.76      0.00 
   12   19    9      4.57      0.00 
   14   19    9     -0.90      0.00 
   16   19    9     -3.73      0.00 
    1   20    9      6.35      0.00 
    3   20    9     16.82      0.00 
    5   20    9      9.53      0.00 
    7   20    9      7.88      0.00 
    9   20    9      9.10      0.00 
   11   20    9      0.12      0.00 
   13   20    9      4.95      0.00 
   15   20    9     -6.33      0.00 
    2   21    9      5.84      0.00 
    4   21    9      7.03      0.00 
    6   21    9      3.59      0.00 
    8   21    9      1.31      0.00 
   10   21    9      2.19      0.00 
   12   21    9      1.91      0.00 
   14   21    9     -8.01      0.00 
   16   21    9      5.09      0.00 
    1   22    9     -0.80      0.00 
    3   22    9      3.22      0.00 
    5   22    9     -5.97      0.00 
    7   22    9      3.84      0.00 
    9   22    9     -3.34      0.00 
   11   22    9     -4.48      0.00 
   13   22    9      2.46      0.00 
   15   22    9     -0.77      0.00 
    2   23    9      4.99      0.00 
    4   23    9      8.01      0.00 
    6   23    9     -5.05      0.00 
    8   23    9     -1.87      0.00 
   10   23    9     -1.64      0.00 
   12   23    9      4.08      0.00 
   14   23    9     -3.93      0.00 
    1   24    9      6.90      0.00 
    3   24    9      3.33      0.00 
    5   24    9     -8.87      0.00 
    7   24    9     -1.82      0.00 
    9   24    9     -9.76      0.00 
   11   24    9     -3.64      0.00 
   13   24    9     -4.42      0.00 
   15   24    9      7.47      0.00 
    2   25    9     -6.40      0.00 
    4   25    9      3.08      0.00 
    6   25    9    -13.93      0.00 
    8   25    9     -2.73      0.00 
   10   25    9     -9.31      0.00 
   12   25    9      6.64      0.00 
   14   25    9     -8.42      0.00 
    1   26    9      0.21      0.00 
    3   26    9      6.66      0.00 
    5   26    9     -6.66      0.00 
    7   26    9     -5.39      0.00 
    9   26    9     -7.06      0.00 
   11   26    9      1.84      0.00 
   13   26    9     -6.90      0.00 
    2   27    9      3.56      0.00 
    4   27    9      7.05      0.00 
    6   27    9     -7.34      0.00 
    8   27    9      4.82      0.00 
   10   27    9     -4.60      0.00 
   12   27    9      3.91      0.00 
    1   28    9     -0.94      0.00 
    3   28    9     11.38      0.00 
    5   28    9     -4.41      0.00 
    7   28    9      6.40      0.00 
    9   28    9     -4.08      0.00 
   11   28    9      7.92      0.00 
    2   29    9      1.82      0.00 
    4   29    9      6.96      0.00 
    6   29    9      4.79      0.00 
    8   29    9      3.43      0.00 
   10   29    9     -2.52      0.00 
   12   29    9    -11.50      0.00 
    1   30    9     -1.96      0.00 
    3   30    9     10.57      0.00 
    5   30    9     -3.28      0.00 
    7   30    9      5.89      0.00 
    9   30    9     -6.79      0.00 
   11   30    9     -1.56      0.00 
    2   31    9      3.66      0.00 
    4   31    9      8.82      0.00 
    6   31    9     -2.21      0.00 
    8   31    9      3.06      0.00 
   10   31    9      0.43      0.00 
    1   32    9      0.41      0.00 
    3   32    9     11.86      0.00 
    5   32    9     -0.78      0.00 
    7   32    9     -0.20      0.00 
    9   32    9      0.72      0.00 
    2   33    9      2.98      0.00 
    4   33    9      4.39      0.00 
    6   33    9     -0.58      0.00 
    8   33    9     19.20      0.00 
    1   34    9     -2.65      0.00 
    3   34    9     12.75      0.00 
    5   34    9     -3.28      0.00 
    2   35    9      0.60      0.00 
    4   35    9     -4.50      0.00 
    1   36    9     -9.35      0.00 
    0    0   10     78.47      0.00 
    2    0   10    -77.64      0.00 
    4    0   10     28.70      0.00 
    6    0   10     17.02      0.00 
    8    0   10      6.54      0.00 
   10    0   10      0.79      0.00 
   12    0   10      0.79      0.00 
   14    0   10     14.29      0.00 
   16    0   10     -5.38      0.00 
   18    0   10      5.63      0.00 
   20    0   10     -2.84      0.00 
    1    1   10     10.60      0.00 
    3    1   10     38.79      0.00 
    5    1   10    -13.81      0.00 
    7    1   10     18.54      0.00 
    9    1   10      8.28      0.00 
   11    1   10      7.68      0.00 
   13    1   10     -2.83      0.00 
   15    1   10     10.55      0.00 
   17    1   10     -5.40      0.00 
   19    1   10      5.39      0.00 
    0    2   10   -101.01      0.00 
    2    2   10     -2.70      0.00 
    4    2   10    -25.95      0.00 
    6    2   10     35.45      0.00 
    8    2   10     -3.81      0.00 
   10    2   10     16.29      0.00 
   12    2   10     -5.12      0.00 
   14    2   10      5.29      0.00 
   16    2   10    -12.37      0.00 
   18    2   10      4.11      0.00 
   20    2   10     -2.57      0.00 
    1    3   10    -69.19      0.00 
    3    3   10     10.74      0.00 
    5    3   10    -13.51      0.00 
    7    3   10     -1.05      0.00 
    9    3   10    -12.63      0.00 
   11    3   10      3.02      0.00 
   13    3   10     -3.16      0.00 
   15    3   10      5.60      0.00 
   17    3   10     -3.86      0.00 
   19    3   10      3.40      0.00 
    0    4   10    -40.37      0.00 
    2    4   10     57.28      0.00 
    4    4   10    -28.63      0.00 
    6    4   10     36.22      0.00 
    8    4   10      6.23      0.00 
   10    4   10     24.55      0.00 
   12    4   10     -8.83      0.00 
   14    4   10      8.38      0.00 
   16    4   10     -8.15      0.00 
   18    4   10      3.88      0.00 
    1    5   10      8.27      0.00 
    3    5   10    -17.50      0.00 
    5    5   10     32.81      0.00 
    7    5   10      2.96      0.00 
    9    5   10      0.26      0.00 
   11    5   10     -7.41      0.00 
   13    5   10     -3.07      0.00 
   15    5   10      3.21      0.00 
   17    5   10     -7.03      0.00 
   19    5   10     -0.19      0.00 
    0    6   10    -87.05      0.00 
    2    6   10     -8.20      0.00 
    4    6   10    -20.43      0.00 
    6    6   10     13.37      0.00 
    8    6   10    -25.21      0.00 
   10    6   10      1.46      0.00 
   12    6   10     -5.13      0.00 
   14    6   10      5.87      0.00 
   16    6   10     -7.59      0.00 
   18    6   10     -2.03      0.00 
    1    7   10    -26.62      0.00 
    3    7   10    -18.59      0.00 
    5    7   10     18.26      0.00 
    7    7   10     12.82      0.00 
    9    7   10     14.12      0.00 
   11    7   10     -4.48      0.00 
   13    7   10     -5.25      0.00 
   15    7   10      3.21      0.00 
   17    7   10     -5.67      0.00 
   19    7   10      5.25      0.00 
    0    8   10    -38.61      0.00 
    2    8   10     -3.02      0.00 
    4    8   10     -9.27      0.00 
    6    8   10     32.63      0.00 
    8    8   10     -1.02      0.00 
   10    8   10      7.61      0.00 
   12    8   10     -1.01      0.00 
   14    8   10      5.87      0.00 
   16    8   10     -7.50      0.00 
   18    8   10     -2.95      0.00 
    1    9   10    -11.17      0.00 
    3    9   10    -20.71      0.00 
    5    9   10      9.48      0.00 
    7    9   10      3.53      0.00 
    9    9   10      6.26      0.00 
   11    9   10     -1.83      0.00 
   13    9   10     -5.22      0.00 
   15    9   10      2.56      0.00 
   17    9   10      3.48      0.00 
   19    9   10      3.46      0.00 
    0   10   10     -7.26      0.00 
    2   10   10     -9.50      0.00 
    4   10   10    -11.40      0.00 
    6   10   10     15.38      0.00 
    8   10   10     -0.55      0.00 
   10   10   10      0.03      0.00 
   12   10   10      3.29      0.00 
   14   10   10      4.60      0.00 
   16   10   10     -1.55      0.00 
   18   10   10      2.07      0.00 
    1   11   10    -15.76      0.00 
    3   11   10    -15.95      0.00 
    5   11   10     14.57      0.00 
    7   11   10      2.14      0.00 
    9   11   10      0.23      0.00 
   11   11   10      5.62      0.00 
   13   11   10      1.16      0.00 
   15   11   10      1.61      0.00 
   17   11   10     -3.93      0.00 
   19   11   10     -3.96      0.00 
    0   12   10    -34.69      0.00 
    2   12   10    -16.26      0.00 
    4   12   10    -11.72      0.00 
    6   12   10     23.59      0.00 
    8   12   10      8.42      0.00 
   10   12   10      6.82      0.00 
   12   12   10      3.62      0.00 
   14   12   10      4.89      0.00 
   16   12   10      4.72      0.00 
   18   12   10      2.87      0.00 
    1   13   10     -3.54      0.00 
    3   13   10    -11.47      0.00 
    5   13   10     -0.10      0.00 
    7   13   10     10.47      0.00 
    9   13   10      4.13      0.00 
   11   13   10      2.49      0.00 
   13   13   10      7.37      0.00 
   15   13   10     -1.90      0.00 
   17   13   10      2.67      0.00 
    0   14   10    -22.76      0.00 
    2   14   10    -24.65      0.00 
    4   14   10     -0.57      0.00 
    6   14   10      8.29      0.00 
    8   14   10     -6.83      0.00 
   10   14   10      4.78      0.00 
   12   14   10     -6.29      0.00 
   14   14   10     -1.54      0.00 
   16   14   10     -3.77      0.00 
   18   14   10     -2.48      0.00 
    1   15   10     21.05      0.00 
    3   15   10     -9.60      0.00 
    5   15   10      5.54      0.00 
    7   15   10      4.02      0.00 
    9   15   10      4.44      0.00 
   11   15   10     -9.47      0.00 
   13   15   10      5.31      0.00 
   15   15   10     -6.95      0.00 
   17   15   10      5.06      0.00 
    0   16   10    -32.14      0.00 
    2   16   10    -30.58      0.00 
    4   16   10     18.01      0.00 
    6   16   10      6.18      0.00 
    8   16   10      9.20      0.00 
   10   16   10     -0.02      0.00 
   12   16   10      7.14      0.00 
   14   16   10     -2.18      0.00 
   16   16   10     -3.13      0.00 
    1   17   10      1.92      0.00 
    3   17   10    -13.04      0.00 
    5   17   10     16.61      0.00 
    7   17   10     -8.54      0.00 
    9   17   10      3.72      0.00 
   11   17   10    -16.71      0.00 
   13   17   10      1.71      0.00 
   15   17   10     -7.74      0.00 
   17   17   10      3.12      0.00 
    0   18   10      6.83      0.00 
    2   18   10     -2.34      0.00 
    4   18   10    -11.75      0.00 
    6   18   10     -5.36      0.00 
    8   18   10     -1.13      0.00 
   10   18   10     -5.69      0.00 
   12   18   10      1.04      0.00 
   14   18   10     -6.66      0.00 
   16   18   10      1.73      0.00 
    1   19   10    -15.73      0.00 
    3   19   10     -3.81      0.00 
    5   19   10      7.67      0.00 
    7   19   10    -14.53      0.00 
    9   19   10      8.06      0.00 
   11   19   10     -9.98      0.00 
   13   19   10      7.89      0.00 
   15   19   10     -8.89      0.00 
    0   20   10    -12.64      0.00 
    2   20   10    -10.57      0.00 
    4   20   10     -1.70      0.00 
    6   20   10      0.98      0.00 
    8   20   10      7.85      0.00 
   10   20   10      2.44      0.00 
   12   20   10     17.04      0.00 
   14   20   10     -3.52      0.00 
   16   20   10      6.21      0.00 
    1   21   10    -15.68      0.00 
    3   21   10     -7.72      0.00 
    5   21   10      6.82      0.00 
    7   21   10     -1.96      0.00 
    9   21   10     13.13      0.00 
   11   21   10     -1.26      0.00 
   13   21   10      4.65      0.00 
   15   21   10     -1.33      0.00 
    0   22   10    -16.03      0.00 
    2   22   10    -12.98      0.00 
    4   22   10      6.82      0.00 
    6   22   10     -5.39      0.00 
    8   22   10     10.98      0.00 
   10   22   10     -3.13      0.00 
   12   22   10     11.10      0.00 
   14   22   10     -7.40      0.00 
    1   23   10      4.57      0.00 
    3   23   10      1.25      0.00 
    5   23   10      5.21      0.00 
    7   23   10      3.83      0.00 
    9   23   10      1.26      0.00 
   11   23   10     -1.76      0.00 
   13   23   10     -2.41      0.00 
   15   23   10     -4.43      0.00 
    0   24   10    -17.77      0.00 
    2   24   10    -17.04      0.00 
    4   24   10      9.86      0.00 
    6   24   10     -5.78      0.00 
    8   24   10      7.37      0.00 
   10   24   10      0.66      0.00 
   12   24   10     10.48      0.00 
   14   24   10     -8.83      0.00 
    1   25   10     -9.14      0.00 
    3   25   10     -3.18      0.00 
    5   25   10      2.96      0.00 
    7   25   10     -0.44      0.00 
    9   25   10      3.84      0.00 
   11   25   10     -3.53      0.00 
   13   25   10      5.71      0.00 
    0   26   10      6.36      0.00 
    2   26   10     -6.73      0.00 
    4   26   10      8.23      0.00 
    6   26   10     -6.48      0.00 
    8   26   10      4.72      0.00 
   10   26   10     -0.71      0.00 
   12   26   10     -0.20      0.00 
    1   27   10      2.92      0.00 
    3   27   10     -1.95      0.00 
    5   27   10     -1.76      0.00 
    7   27   10     -3.11      0.00 
    9   27   10     -0.85      0.00 
   11   27   10     -1.20      0.00 
   13   27   10      2.71      0.00 
    0   28   10     -2.92      0.00 
    2   28   10      4.31      0.00 
    4   28   10      5.84      0.00 
    6   28   10      0.28      0.00 
    8   28   10      4.70      0.00 
   10   28   10     -1.38      0.00 
   12   28   10     -4.94      0.00 
    1   29   10     -3.42      0.00 
    3   29   10      0.51      0.00 
    5   29   10      3.15      0.00 
    7   29   10     -0.50      0.00 
    9   29   10      7.50      0.00 
   11   29   10      7.96      0.00 
    0   30   10      0.54      0.00 
    2   30   10      0.00      0.00 
    4   30   10      0.57      0.00 
    6   30   10      4.66      0.00 
    8   30   10      1.13      0.00 
   10   30   10      1.61      0.00 
    1   31   10     -1.22      0.00 
    3   31   10     -0.40      0.00 
    5   31   10     -0.39      0.00 
    7   31   10     -1.62      0.00 
    9   31   10      4.24      0.00 
    0   32   10     -6.98      0.00 
    2   32   10     -0.88      0.00 
    4   32   10     -3.10      0.00 
    6   32   10      1.41      0.00 
    8   32   10      1.53      0.00 
    1   33   10     -4.22      0.00 
    3   33   10     -3.32      0.00 
    5   33   10     -0.91      0.00 
    7   33   10      2.71      0.00 
    0   34   10     -4.58      0.00 
    2   34   10     -4.28      0.00 
    4   34   10     -3.70      0.00 
    6   34   10     -1.07      0.00 
    1   35   10      1.75      0.00 
    3   35   10     -1.30      0.00 
    2    1   11    -17.57      0.00 
    4    1   11     -6.11      0.00 
    6    1   11    -40.15      0.00 
    8    1   11      8.08      0.00 
   10    1   11     -1.28      0.00 
   12    1   11      1.60      0.00 
   14    1   11     -0.15      0.00 
   16    1   11     -3.97      0.00 
   18    1   11      4.66      0.00 
    1    2   11     -7.87      0.00 
    3    2   11    -23.95      0.00 
    5    2   11     -3.40      0.00 
    7    2   11     -8.97      0.00 
    9    2   11      0.49      0.00 
   11    2   11      6.34      0.00 
   13    2   11      0.40      0.00 
   15    2   11      2.92      0.00 
   17    2   11     -0.38      0.00 
   19    2   11     -1.86      0.00 
    2    3   11      3.39      0.00 
    4    3   11    -11.59      0.00 
    6    3   11     -7.55      0.00 
    8    3   11     13.39      0.00 
   10    3   11     -5.56      0.00 
   12    3   11     -2.16      0.00 
   14    3   11      1.38      0.00 
   16    3   11     -3.91      0.00 
   18    3   11     -2.05      0.00 
    1    4   11     17.76      0.00 
    3    4   11    -14.36      0.00 
    5    4   11     16.82      0.00 
    7    4   11    -14.52      0.00 
    9    4   11      3.17      0.00 
   11    4   11     -2.74      0.00 
   13    4   11     -7.74      0.00 
   15    4   11     -6.70      0.00 
   17    4   11     -0.51      0.00 
   19    4   11     -4.56      0.00 
    2    5   11     27.37      0.00 
    4    5   11     -2.95      0.00 
    6    5   11     26.53      0.00 
    8    5   11     -4.84      0.00 
   10    5   11      0.44      0.00 
   12    5   11    -11.19      0.00 
   14    5   11     -0.12      0.00 
   16    5   11     -4.28      0.00 
   18    5   11      2.30      0.00 
    1    6   11     24.80      0.00 
    3    6   11      6.42      0.00 
    5    6   11     24.91      0.00 
    7    6   11     -1.42      0.00 
    9    6   11      4.52      0.00 
   11    6   11     -1.20      0.00 
   13    6   11     -0.52      0.00 
   15    6   11     -2.20      0.00 
   17    6   11      3.05      0.00 
   19    6   11     -0.78      0.00 
    2    7   11     12.10      0.00 
    4    7   11      4.58      0.00 
    6    7   11     17.15      0.00 
    8    7   11     -8.89      0.00 
   10    7   11     -2.01      0.00 
   12    7   11      0.88      0.00 
   14    7   11      3.65      0.00 
   16    7   11     -1.87      0.00 
   18    7   11      3.75      0.00 
    1    8   11      0.72      0.00 
    3    8   11     -1.55      0.00 
    5    8   11     -7.33      0.00 
    7    8   11     -5.57      0.00 
    9    8   11     13.54      0.00 
   11    8   11     -1.31      0.00 
   13    8   11      9.84      0.00 
   15    8   11     -0.07      0.00 
   17    8   11      5.11      0.00 
   19    8   11     -3.12      0.00 
    2    9   11      1.43      0.00 
    4    9   11    -33.76      0.00 
    6    9   11      9.60      0.00 
    8    9   11      1.76      0.00 
   10    9   11     15.78      0.00 
   12    9   11      2.99      0.00 
   14    9   11     13.29      0.00 
   16    9   11     -1.49      0.00 
   18    9   11      5.23      0.00 
    1   10   11      0.67      0.00 
    3   10   11      9.31      0.00 
    5   10   11     10.13      0.00 
    7   10   11      1.48      0.00 
    9   10   11     16.23      0.00 
   11   10   11      2.03      0.00 
   13   10   11      9.56      0.00 
   15   10   11     -5.95      0.00 
   17   10   11      5.01      0.00 
   19   10   11     -6.12      0.00 
    2   11   11      5.97      0.00 
    4   11   11     -2.27      0.00 
    6   11   11     19.80      0.00 
    8   11   11      5.26      0.00 
   10   11   11      6.03      0.00 
   12   11   11     -7.02      0.00 
   14   11   11      0.94      0.00 
   16   11   11     -5.18      0.00 
   18   11   11      5.50      0.00 
    1   12   11      0.25      0.00 
    3   12   11      2.79      0.00 
    5   12   11     10.42      0.00 
    7   12   11     -6.92      0.00 
    9   12   11     -3.25      0.00 
   11   12   11     -8.49      0.00 
   13   12   11      2.68      0.00 
   15   12   11     -7.17      0.00 
   17   12   11      5.65      0.00 
    2   13   11     -6.13      0.00 
    4   13   11    -14.02      0.00 
    6   13   11     -9.02      0.00 
    8   13   11    -12.98      0.00 
   10   13   11     -6.06      0.00 
   12   13   11    -19.57      0.00 
   14   13   11    -13.44      0.00 
   16   13   11     -3.80      0.00 
   18   13   11      0.18      0.00 
    1   14   11     13.59      0.00 
    3   14   11     -6.62      0.00 
    5   14   11      5.82      0.00 
    7   14   11    -16.77      0.00 
    9   14   11     -3.42      0.00 
   11   14   11    -10.94      0.00 
   13   14   11     -0.68      0.00 
   15   14   11     -1.95      0.00 
   17   14   11      5.58      0.00 
    2   15   11      3.63      0.00 
    4   15   11      8.05      0.00 
    6   15   11      6.06      0.00 
    8   15   11     -2.44      0.00 
   10   15   11     -0.50      0.00 
   12   15   11     -6.93      0.00 
   14   15   11     -0.63      0.00 
   16   15   11     -3.99      0.00 
    1   16   11     12.83      0.00 
    3   16   11     -6.49      0.00 
    5   16   11      6.94      0.00 
    7   16   11     -4.01      0.00 
    9   16   11      7.02      0.00 
   11   16   11     -4.49      0.00 
   13   16   11      3.03      0.00 
   15   16   11     -3.00      0.00 
   17   16   11      2.84      0.00 
    2   17   11     -7.01      0.00 
    4   17   11      3.28      0.00 
    6   17   11      7.96      0.00 
    8   17   11     10.21      0.00 
   10   17   11      5.14      0.00 
   12   17   11      1.27      0.00 
   14   17   11      2.01      0.00 
   16   17   11     -1.18      0.00 
    1   18   11      2.34      0.00 
    3   18   11      5.01      0.00 
    5   18   11     12.89      0.00 
    7   18   11      3.45      0.00 
    9   18   11     12.43      0.00 
   11   18   11      2.74      0.00 
   13   18   11      3.36      0.00 
   15   18   11     -3.30      0.00 
   17   18   11      3.25      0.00 
    2   19   11      5.43      0.00 
    4   19   11     11.48      0.00 
    6   19   11      4.86      0.00 
    8   19   11      5.47      0.00 
   10   19   11      3.07      0.00 
   12   19   11     -1.10      0.00 
   14   19   11      4.84      0.00 
   16   19   11      2.51      0.00 
    1   20   11      2.14      0.00 
    3   20   11      0.70      0.00 
    5   20   11      4.97      0.00 
    7   20   11     -0.16      0.00 
    9   20   11     -1.28      0.00 
   11   20   11     -6.01      0.00 
   13   20   11     -0.10      0.00 
   15   20   11     -1.25      0.00 
    2   21   11     -1.20      0.00 
    4   21   11     -2.70      0.00 
    6   21   11     -5.30      0.00 
    8   21   11     -7.86      0.00 
   10   21   11     -3.66      0.00 
   12   21   11     -3.89      0.00 
   14   21   11     -0.83      0.00 
    1   22   11     -5.26      0.00 
    3   22   11     -4.09      0.00 
    5   22   11     -9.71      0.00 
    7   22   11     -4.53      0.00 
    9   22   11     -0.05      0.00 
   11   22   11     -5.56      0.00 
   13   22   11     -0.06      0.00 
   15   22   11     -2.85      0.00 
    2   23   11      5.81      0.00 
    4   23   11      0.94      0.00 
    6   23   11      3.33      0.00 
    8   23   11     -3.35      0.00 
   10   23   11      0.16      0.00 
   12   23   11     -3.14      0.00 
   14   23   11     -2.07      0.00 
    1   24   11      2.87      0.00 
    3   24   11      4.58      0.00 
    5   24   11      1.15      0.00 
    7   24   11      2.42      0.00 
    9   24   11      0.69      0.00 
   11   24   11     -3.09      0.00 
   13   24   11      0.94      0.00 
    2   25   11     -4.59      0.00 
    4   25   11      1.54      0.00 
    6   25   11      0.59      0.00 
    8   25   11      2.05      0.00 
   10   25   11     -5.24      0.00 
   12   25   11      1.17      0.00 
    1   26   11     -2.16      0.00 
    3   26   11     -1.02      0.00 
    5   26   11      8.96      0.00 
    7   26   11      7.86      0.00 
    9   26   11     -0.67      0.00 
   11   26   11      1.74      0.00 
   13   26   11     -6.60      0.00 
    2   27   11      0.95      0.00 
    4   27   11      2.17      0.00 
    6   27   11     -4.45      0.00 
    8   27   11      6.93      0.00 
   10   27   11     -0.48      0.00 
   12   27   11      1.73      0.00 
    1   28   11      3.21      0.00 
    3   28   11      4.68      0.00 
    5   28   11      6.31      0.00 
    7   28   11      4.40      0.00 
    9   28   11      0.57      0.00 
   11   28   11      5.84      0.00 
    2   29   11      1.81      0.00 
    4   29   11      5.88      0.00 
    6   29   11      4.81      0.00 
    8   29   11      3.20      0.00 
   10   29   11      1.69      0.00 
    1   30   11     -3.61      0.00 
    3   30   11      1.24      0.00 
    5   30   11     -3.54      0.00 
    7   30   11      2.24      0.00 
    9   30   11      0.46      0.00 
    2   31   11     -1.28      0.00 
    4   31   11     -1.58      0.00 
    6   31   11      0.70      0.00 
    8   31   11     -2.22      0.00 
    1   32   11     -1.75      0.00 
    3   32   11      4.75      0.00 
    5   32   11     -7.97      0.00 
    7   32   11      1.56      0.00 
    2   33   11      1.88      0.00 
    4   33   11     -7.77      0.00 
    6   33   11      4.19      0.00 
    1   34   11     -2.91      0.00 
    3   34   11      0.00      0.00 
    5   34   11      4.80      0.00 
    2   35   11     -3.40      0.00 
    0    0   12    105.39      0.00 
    2    0   12    -24.84      0.00 
    4    0   12      5.41      0.00 
    6    0   12    -10.35      0.00 
    8    0   12    -10.18      0.00 
   10    0   12      5.78      0.00 
   12    0   12    -12.26      0.00 
   14    0   12      7.18      0.00 
   16    0   12     -4.59      0.00 
   18    0   12      1.06      0.00 
    1    1   12     17.87      0.00 
    3    1   12      7.12      0.00 
    5    1   12      4.36      0.00 
    7    1   12     -8.09      0.00 
    9    1   12      2.33      0.00 
   11    1   12      2.93      0.00 
   13    1   12     -9.44      0.00 
   15    1   12      3.22      0.00 
   17    1   12     -4.50      0.00 
   19    1   12      0.32      0.00 
    0    2   12     10.00      0.00 
    2    2   12     37.97      0.00 
    4    2   12    -13.23      0.00 
    6    2   12      4.45      0.00 
    8    2   12    -14.37      0.00 
   10    2   12     -0.33      0.00 
   12    2   12     -5.57      0.00 
   14    2   12      4.20      0.00 
   16    2   12     -3.44      0.00 
   18    2   12      0.23      0.00 
    1    3   12      5.27      0.00 
    3    3   12     28.91      0.00 
    5    3   12     -7.97      0.00 
    7    3   12     -3.17      0.00 
    9    3   12     -6.81      0.00 
   11    3   12      9.12      0.00 
   13    3   12     -1.94      0.00 
   15    3   12      4.08      0.00 
   17    3   12     -2.46      0.00 
   19    3   12      0.89      0.00 
    0    4   12     50.34      0.00 
    2    4   12     44.28      0.00 
    4    4   12    -26.63      0.00 
    6    4   12     15.19      0.00 
    8    4   12      5.13      0.00 
   10    4   12      8.29      0.00 
   12    4   12     -2.90      0.00 
   14    4   12      6.59      0.00 
   16    4   12      1.63      0.00 
   18    4   12      4.38      0.00 
    1    5   12     30.43      0.00 
    3    5   12     15.63      0.00 
    5    5   12     -8.64      0.00 
    7    5   12    -13.34      0.00 
    9    5   12      6.17      0.00 
   11    5   12      5.31      0.00 
   13    5   12      2.49      0.00 
   15    5   12    -10.87      0.00 
   17    5   12      1.52      0.00 
   19    5   12      2.65      0.00 
    0    6   12     -0.50      0.00 
    2    6   12    -19.68      0.00 
    4    6   12    -27.73      0.00 
    6    6   12     -6.58      0.00 
    8    6   12    -10.14      0.00 
   10    6   12      8.72      0.00 
   12    6   12     -4.99      0.00 
   14    6   12      2.53      0.00 
   16    6   12      5.34      0.00 
   18    6   12      0.74      0.00 
    1    7   12     -8.16      0.00 
    3    7   12      5.86      0.00 
    5    7   12    -26.54      0.00 
    7    7   12    -18.17      0.00 
    9    7   12      7.90      0.00 
   11    7   12      2.10      0.00 
   13    7   12      8.43      0.00 
   15    7   12     -6.41      0.00 
   17    7   12     -4.27      0.00 
   19    7   12      3.65      0.00 
    0    8   12     31.09      0.00 
    2    8   12     11.65      0.00 
    4    8   12      4.22      0.00 
    6    8   12     -6.54      0.00 
    8    8   12      0.18      0.00 
   10    8   12      5.75      0.00 
   12    8   12     -3.04      0.00 
   14    8   12      6.55      0.00 
   16    8   12      5.06      0.00 
   18    8   12     -2.16      0.00 
    1    9   12     13.50      0.00 
    3    9   12     15.16      0.00 
    5    9   12    -12.33      0.00 
    7    9   12    -10.27      0.00 
    9    9   12     -2.19      0.00 
   11    9   12      2.97      0.00 
   13    9   12      0.85      0.00 
   15    9   12      0.19      0.00 
   17    9   12     -0.16      0.00 
    0   10   12     31.66      0.00 
    2   10   12     21.02      0.00 
    4   10   12      8.96      0.00 
    6   10   12    -11.41      0.00 
    8   10   12     -0.92      0.00 
   10   10   12      0.76      0.00 
   12   10   12     -3.84      0.00 
   14   10   12     -0.95      0.00 
   16   10   12      0.02      0.00 
   18   10   12     -3.76      0.00 
    1   11   12     23.91      0.00 
    3   11   12     24.51      0.00 
    5   11   12    -18.79      0.00 
    7   11   12     -6.27      0.00 
    9   11   12      1.53      0.00 
   11   11   12     10.58      0.00 
   13   11   12     -1.55      0.00 
   15   11   12     -0.67      0.00 
   17   11   12     -0.56      0.00 
    0   12   12     -6.86      0.00 
    2   12   12     17.86      0.00 
    4   12   12     13.66      0.00 
    6   12   12      2.51      0.00 
    8   12   12      4.67      0.00 
   10   12   12      0.28      0.00 
   12   12   12      5.05      0.00 
   14   12   12     -2.08      0.00 
   16   12   12      1.03      0.00 
   18   12   12     -0.11      0.00 
    1   13   12     11.71      0.00 
    3   13   12     17.15      0.00 
    5   13   12     -5.82      0.00 
    7   13   12     -0.43      0.00 
    9   13   12      2.64      0.00 
   11   13   12      0.47      0.00 
   13   13   12     -2.71      0.00 
   15   13   12      0.40      0.00 
   17   13   12     -1.62      0.00 
    0   14   12     12.06      0.00 
    2   14   12     23.13      0.00 
    4   14   12     -0.06      0.00 
    6   14   12    -13.75      0.00 
    8   14   12     -5.63      0.00 
   10   14   12     -1.70      0.00 
   12   14   12      0.44      0.00 
   14   14   12      0.53      0.00 
   16   14   12     -1.45      0.00 
    1   15   12     -1.94      0.00 
    3   15   12      0.81      0.00 
    5   15   12    -12.45      0.00 
    7   15   12    -14.67      0.00 
    9   15   12      3.35      0.00 
   11   15   12      1.72      0.00 
   13   15   12      1.41      0.00 
   15   15   12      0.82      0.00 
   17   15   12      0.73      0.00 
    0   16   12    -11.46      0.00 
    2   16   12     -7.03      0.00 
    4   16   12     -4.65      0.00 
    6   16   12     -5.92      0.00 
    8   16   12      4.67      0.00 
   10   16   12      5.72      0.00 
   12   16   12      3.08      0.00 
   14   16   12      0.91      0.00 
   16   16   12     -0.85      0.00 
    1   17   12     -7.59      0.00 
    3   17   12      1.74      0.00 
    5   17   12     -1.53      0.00 
    7   17   12      0.87      0.00 
    9   17   12     10.99      0.00 
   11   17   12      5.24      0.00 
   13   17   12      2.48      0.00 
   15   17   12      0.27      0.00 
   17   17   12      4.19      0.00 
    0   18   12      9.92      0.00 
    2   18   12      9.46      0.00 
    4   18   12     -6.10      0.00 
    6   18   12      5.56      0.00 
    8   18   12      0.55      0.00 
   10   18   12      5.37      0.00 
   12   18   12      0.43      0.00 
   14   18   12      1.06      0.00 
   16   18   12     -0.01      0.00 
    1   19   12      9.59      0.00 
    3   19   12     10.69      0.00 
    5   19   12     -1.43      0.00 
    7   19   12     -1.32      0.00 
    9   19   12      5.73      0.00 
   11   19   12      8.03      0.00 
   13   19   12      3.83      0.00 
   15   19   12     -1.41      0.00 
    0   20   12     -1.27      0.00 
    2   20   12      8.36      0.00 
    4   20   12     10.27      0.00 
    6   20   12      4.86      0.00 
    8   20   12      2.28      0.00 
   10   20   12     -0.28      0.00 
   12   20   12      3.49      0.00 
   14   20   12     -0.81      0.00 
   16   20   12      2.31      0.00 
    1   21   12      9.43      0.00 
    3   21   12      3.91      0.00 
    5   21   12     -2.76      0.00 
    7   21   12      4.04      0.00 
    9   21   12      2.60      0.00 
   11   21   12      1.67      0.00 
   13   21   12     -7.19      0.00 
   15   21   12      0.69      0.00 
    0   22   12     15.83      0.00 
    2   22   12      8.52      0.00 
    4   22   12      3.04      0.00 
    6   22   12     -3.45      0.00 
    8   22   12     -4.44      0.00 
   10   22   12     -7.12      0.00 
   12   22   12    -10.06      0.00 
   14   22   12      3.17      0.00 
    1   23   12      8.38      0.00 
    3   23   12      5.32      0.00 
    5   23   12     -4.95      0.00 
    7   23   12     -4.41      0.00 
    9   23   12     -7.32      0.00 
   11   23   12      5.92      0.00 
   13   23   12      5.33      0.00 
    0   24   12      1.73      0.00 
    2   24   12     -3.45      0.00 
    4   24   12      1.02      0.00 
    6   24   12      1.07      0.00 
    8   24   12      3.74      0.00 
   10   24   12      4.38      0.00 
   12   24   12     -1.13      0.00 
   14   24   12      3.21      0.00 
    1   25   12     -1.75      0.00 
    3   25   12     -1.09      0.00 
    5   25   12      3.86      0.00 
    7   25   12      0.02      0.00 
    9   25   12      5.06      0.00 
   11   25   12      1.52      0.00 
   13   25   12      8.69      0.00 
    0   26   12     12.27      0.00 
    2   26   12      2.19      0.00 
    4   26   12      3.59      0.00 
    6   26   12     -3.17      0.00 
    8   26   12      0.43      0.00 
   10   26   12     -2.85      0.00 
   12   26   12      2.29      0.00 
    1   27   12      3.26      0.00 
    3   27   12     -0.06      0.00 
    5   27   12      2.82      0.00 
    7   27   12      2.19      0.00 
    9   27   12      0.43      0.00 
   11   27   12     -4.74      0.00 
    0   28   12     -2.90      0.00 
    2   28   12      2.29      0.00 
    4   28   12      2.13      0.00 
    6   28   12      1.41      0.00 
    8   28   12     -1.35      0.00 
   10   28   12     -4.13      0.00 
    1   29   12     -5.59      0.00 
    3   29   12      2.59      0.00 
    5   29   12      3.69      0.00 
    7   29   12      0.37      0.00 
    9   29   12      3.92      0.00 
    0   30   12     -7.84      0.00 
    2   30   12     -2.89      0.00 
    4   30   12     -1.24      0.00 
    6   30   12     -1.99      0.00 
    8   30   12     -5.24      0.00 
   10   30   12     -1.94      0.00 
    1   31   12      3.98      0.00 
    3   31   12      0.23      0.00 
    5   31   12      0.24      0.00 
    7   31   12      1.21      0.00 
    9   31   12     -2.45      0.00 
    0   32   12     -0.74      0.00 
    2   32   12      8.31      0.00 
    4   32   12      2.94      0.00 
    6   32   12      0.74      0.00 
    1   33   12      1.49      0.00 
    3   33   12      2.51      0.00 
    5   33   12      3.24      0.00 
    0   34   12      4.24      0.00 
    2   34   12      4.15      0.00 
    4   34   12      3.80      0.00 
    2    1   13      4.73      0.00 
    4    1   13     29.99      0.00 
    6    1   13     -5.15      0.00 
    8    1   13     17.20      0.00 
   10    1   13      0.60      0.00 
   12    1   13      2.34      0.00 
   14    1   13      0.46      0.00 
   16    1   13     -1.49      0.00 
   18    1   13     -0.75      0.00 
    1    2   13      0.49      0.00 
    3    2   13     16.55      0.00 
    5    2   13     42.58      0.00 
    7    2   13      9.59      0.00 
    9    2   13      7.04      0.00 
   11    2   13      1.57      0.00 
   13    2   13      5.32      0.00 
   15    2   13     -0.76      0.00 
   17    2   13      2.56      0.00 
   19    2   13      3.66      0.00 
    2    3   13      4.07      0.00 
    4    3   13     34.71      0.00 
    6    3   13     11.17      0.00 
    8    3   13     20.42      0.00 
   10    3   13      2.06      0.00 
   12    3   13      5.52      0.00 
   14    3   13      5.15      0.00 
   16    3   13      2.34      0.00 
   18    3   13     -0.62      0.00 
    1    4   13      6.54      0.00 
    3    4   13      0.86      0.00 
    5    4   13     -2.50      0.00 
    7    4   13      6.78      0.00 
    9    4   13      4.97      0.00 
   11    4   13      5.01      0.00 
   13    4   13      5.09      0.00 
   15    4   13      2.57      0.00 
   17    4   13      0.67      0.00 
   19    4   13     -0.33      0.00 
    2    5   13    -20.41      0.00 
    4    5   13    -24.25      0.00 
    6    5   13     -7.42      0.00 
    8    5   13     -3.75      0.00 
   10    5   13      9.35      0.00 
   12    5   13      1.13      0.00 
   14    5   13      5.19      0.00 
   16    5   13      2.10      0.00 
   18    5   13     -1.25      0.00 
    1    6   13     -2.15      0.00 
    3    6   13     -5.10      0.00 
    5    6   13    -12.23      0.00 
    7    6   13     -4.43      0.00 
    9    6   13     -2.16      0.00 
   11    6   13      1.11      0.00 
   13    6   13     -1.26      0.00 
   15    6   13      0.64      0.00 
   17    6   13      0.32      0.00 
   19    6   13      1.28      0.00 
    2    7   13    -11.57      0.00 
    4    7   13     -9.73      0.00 
    6    7   13    -14.54      0.00 
    8    7   13     -3.32      0.00 
   10    7   13     -6.93      0.00 
   12    7   13      0.55      0.00 
   14    7   13     -4.91      0.00 
   16    7   13      6.31      0.00 
   18    7   13     -4.42      0.00 
    1    8   13    -19.50      0.00 
    3    8   13     -7.82      0.00 
    5    8   13    -20.04      0.00 
    7    8   13    -19.35      0.00 
    9    8   13    -15.19      0.00 
   11    8   13     -8.02      0.00 
   13    8   13     -8.39      0.00 
   15    8   13     -6.77      0.00 
   17    8   13     -1.67      0.00 
    2    9   13     -7.24      0.00 
    4    9   13     -4.22      0.00 
    6    9   13    -20.16      0.00 
    8    9   13     -6.55      0.00 
   10    9   13    -14.83      0.00 
   12    9   13    -10.78      0.00 
   14    9   13     -4.19      0.00 
   16    9   13      0.51      0.00 
   18    9   13     -1.53      0.00 
    1   10   13    -12.95      0.00 
    3   10   13      3.15      0.00 
    5   10   13     -4.40      0.00 
    7   10   13     -5.34      0.00 
    9   10   13     -7.70      0.00 
   11   10   13     -6.94      0.00 
   13   10   13     -4.11      0.00 
   15   10   13     -1.36      0.00 
   17   10   13      3.11      0.00 
    2   11   13      4.50      0.00 
    4   11   13      2.81      0.00 
    6   11   13     -4.44      0.00 
    8   11   13     -1.98      0.00 
   10   11   13     -4.67      0.00 
   12   11   13      0.06      0.00 
   14   11   13      3.83      0.00 
   16   11   13      2.40      0.00 
   18   11   13     -3.99      0.00 
    1   12   13     -8.36      0.00 
    3   12   13      3.75      0.00 
    5   12   13     -2.97      0.00 
    7   12   13      3.86      0.00 
    9   12   13     11.24      0.00 
   11   12   13      1.89      0.00 
   13   12   13     11.22      0.00 
   15   12   13      1.26      0.00 
   17   12   13      0.40      0.00 
    2   13   13     -8.88      0.00 
    4   13   13     -6.05      0.00 
    6   13   13     10.54      0.00 
    8   13   13     11.77      0.00 
   10   13   13     21.38      0.00 
   12   13   13     14.15      0.00 
   14   13   13      6.05      0.00 
   16   13   13      8.57      0.00 
    1   14   13      7.54      0.00 
    3   14   13      2.88      0.00 
    5   14   13     10.51      0.00 
    7   14   13     17.46      0.00 
    9   14   13     15.45      0.00 
   11   14   13     14.01      0.00 
   13   14   13      8.88      0.00 
   15   14   13      7.74      0.00 
   17   14   13     -0.55      0.00 
    2   15   13     11.24      0.00 
    4   15   13     10.95      0.00 
    6   15   13      9.00      0.00 
    8   15   13     14.14      0.00 
   10   15   13      6.84      0.00 
   12   15   13      1.70      0.00 
   14   15   13      2.57      0.00 
   16   15   13      0.63      0.00 
    1   16   13      1.53      0.00 
    3   16   13    -10.51      0.00 
    5   16   13     -3.44      0.00 
    7   16   13     -3.25      0.00 
    9   16   13     -6.26      0.00 
   11   16   13      2.56      0.00 
   13   16   13     -5.69      0.00 
   15   16   13      0.31      0.00 
   17   16   13     -4.34      0.00 
    2   17   13     -2.65      0.00 
    4   17   13    -20.55      0.00 
    6   17   13    -14.04      0.00 
    8   17   13     -8.00      0.00 
   10   17   13    -15.91      0.00 
   12   17   13    -10.23      0.00 
   14   17   13     -4.30      0.00 
   16   17   13     -1.85      0.00 
    1   18   13    -11.43      0.00 
    3   18   13    -10.12      0.00 
    5   18   13    -11.41      0.00 
    7   18   13    -18.08      0.00 
    9   18   13     -3.80      0.00 
   11   18   13      0.63      0.00 
   13   18   13      0.45      0.00 
   15   18   13     -1.89      0.00 
    2   19   13     -2.62      0.00 
    4   19   13    -15.69      0.00 
    6   19   13     -3.80      0.00 
    8   19   13     -9.85      0.00 
   10   19   13     -6.67      0.00 
   12   19   13     -8.67      0.00 
   14   19   13      0.59      0.00 
   16   19   13     -4.01      0.00 
    1   20   13     -5.06      0.00 
    3   20   13     -1.98      0.00 
    5   20   13     -7.95      0.00 
    7   20   13     -3.87      0.00 
    9   20   13     -0.73      0.00 
   11   20   13     -0.82      0.00 
   13   20   13      3.15      0.00 
   15   20   13      3.22      0.00 
    2   21   13     -8.18      0.00 
    4   21   13    -11.14      0.00 
    6   21   13      4.93      0.00 
    8   21   13     -0.31      0.00 
   10   21   13      7.23      0.00 
   12   21   13      1.80      0.00 
   14   21   13      2.18      0.00 
    1   22   13     -0.19      0.00 
    3   22   13      0.77      0.00 
    5   22   13     -0.66      0.00 
    7   22   13      7.82      0.00 
    9   22   13      9.24      0.00 
   11   22   13      5.53      0.00 
   13   22   13      1.60      0.00 
    2   23   13      0.47      0.00 
    4   23   13     -1.44      0.00 
    6   23   13     12.56      0.00 
    8   23   13      4.30      0.00 
   10   23   13      9.78      0.00 
   12   23   13      3.44      0.00 
   14   23   13     11.33      0.00 
    1   24   13      2.97      0.00 
    3   24   13     -2.51      0.00 
    5   24   13      3.33      0.00 
    7   24   13      0.16      0.00 
    9   24   13      8.74      0.00 
   11   24   13      2.72      0.00 
   13   24   13      5.05      0.00 
    2   25   13     -2.78      0.00 
    4   25   13     -4.65      0.00 
    6   25   13      0.05      0.00 
    8   25   13     -4.71      0.00 
   10   25   13     -0.03      0.00 
   12   25   13     -2.17      0.00 
    1   26   13     -3.59      0.00 
    3   26   13     -7.53      0.00 
    5   26   13     -2.82      0.00 
    7   26   13     -2.36      0.00 
    9   26   13      3.74      0.00 
   11   26   13      2.23      0.00 
    2   27   13     -1.87      0.00 
    4   27   13     -3.65      0.00 
    6   27   13     -2.95      0.00 
    8   27   13     -4.90      0.00 
   10   27   13      4.87      0.00 
   12   27   13     -0.95      0.00 
    1   28   13      0.26      0.00 
    3   28   13     -8.81      0.00 
    5   28   13     -3.28      0.00 
    7   28   13     -0.06      0.00 
    9   28   13      2.43      0.00 
   11   28   13     -5.47      0.00 
    2   29   13     -5.72      0.00 
    4   29   13     -6.17      0.00 
    6   29   13     -0.19      0.00 
    8   29   13     -3.49      0.00 
   10   29   13     -1.77      0.00 
    1   30   13     -1.06      0.00 
    3   30   13    -11.74      0.00 
    5   30   13     -4.96      0.00 
    7   30   13     -4.26      0.00 
    9   30   13     -1.54      0.00 
    2   31   13     -8.55      0.00 
    4   31   13     -5.21      0.00 
    6   31   13     -3.96      0.00 
    8   31   13     -5.41      0.00 
    1   32   13      3.01      0.00 
    3   32   13     -4.20      0.00 
    5   32   13     -1.13      0.00 
    7   32   13      4.16      0.00 
    2   33   13      0.97      0.00 
    4   33   13      3.96      0.00 
    1   34   13      0.31      0.00 
    0    0   14    122.94      0.00 
    2    0   14     -3.18      0.00 
    4    0   14     32.96      0.00 
    6    0   14     -5.63      0.00 
    8    0   14     12.78      0.00 
   10    0   14     -6.73      0.00 
   12    0   14     -2.22      0.00 
   14    0   14      0.86      0.00 
   16    0   14      0.20      0.00 
   18    0   14     -0.22      0.00 
    1    1   14     11.34      0.00 
    3    1   14     13.65      0.00 
    5    1   14     -5.70      0.00 
    7    1   14     -6.46      0.00 
    9    1   14     -8.39      0.00 
   11    1   14      3.59      0.00 
   13    1   14     -0.08      0.00 
   15    1   14     -4.10      0.00 
   17    1   14      5.86      0.00 
   19    1   14     -2.80      0.00 
    0    2   14    -10.55      0.00 
    2    2   14    -20.49      0.00 
    4    2   14    -10.54      0.00 
    6    2   14    -18.72      0.00 
    8    2   14      0.40      0.00 
   10    2   14    -14.09      0.00 
   12    2   14      5.64      0.00 
   14    2   14     -4.78      0.00 
   16    2   14      4.39      0.00 
   18    2   14      0.27      0.00 
    1    3   14    -19.84      0.00 
    3    3   14      1.16      0.00 
    5    3   14    -26.52      0.00 
    7    3   14     -2.03      0.00 
    9    3   14      0.39      0.00 
   11    3   14      0.65      0.00 
   13    3   14     -1.87      0.00 
   15    3   14     -2.92      0.00 
   17    3   14      5.42      0.00 
   19    3   14      0.82      0.00 
    0    4   14      5.32      0.00 
    2    4   14     -8.74      0.00 
    4    4   14    -23.09      0.00 
    6    4   14     -9.34      0.00 
    8    4   14     -8.21      0.00 
   10    4   14    -20.30      0.00 
   12    4   14      7.65      0.00 
   14    4   14      0.97      0.00 
   16    4   14      3.62      0.00 
   18    4   14     -2.68      0.00 
    1    5   14     14.36      0.00 
    3    5   14     -6.21      0.00 
    5    5   14     -3.20      0.00 
    7    5   14    -19.86      0.00 
    9    5   14     -3.30      0.00 
   11    5   14     -4.20      0.00 
   13    5   14      5.33      0.00 
   15    5   14     -2.09      0.00 
   17    5   14      7.41      0.00 
    0    6   14     21.41      0.00 
    2    6   14     16.67      0.00 
    4    6   14     -0.91      0.00 
    6    6   14      6.57      0.00 
    8    6   14     -3.48      0.00 
   10    6   14     -9.68      0.00 
   12    6   14      1.78      0.00 
   14    6   14     -1.51      0.00 
   16    6   14      5.56      0.00 
   18    6   14     -1.97      0.00 
    1    7   14      7.94      0.00 
    3    7   14      0.76      0.00 
    5    7   14     14.43      0.00 
    7    7   14     -9.82      0.00 
    9    7   14      2.93      0.00 
   11    7   14     -2.20      0.00 
   13    7   14      2.25      0.00 
   15    7   14      4.02      0.00 
   17    7   14      1.23      0.00 
    0    8   14     15.96      0.00 
    2    8   14      5.61      0.00 
    4    8   14     -0.73      0.00 
    6    8   14     -0.88      0.00 
    8    8   14      0.04      0.00 
   10    8   14     -2.17      0.00 
   12    8   14      0.71      0.00 
   14    8   14     -2.06      0.00 
   16    8   14      5.64      0.00 
   18    8   14      0.78      0.00 
    1    9   14     31.20      0.00 
    3    9   14      3.14      0.00 
    5    9   14      8.33      0.00 
    7    9   14      9.99      0.00 
    9    9   14     -6.60      0.00 
   11    9   14     -5.00      0.00 
   13    9   14     -9.27      0.00 
   15    9   14      3.58      0.00 
   17    9   14     -0.85      0.00 
    0   10   14     29.20      0.00 
    2   10   14     -4.98      0.00 
    4   10   14     -4.12      0.00 
    6   10   14      2.22      0.00 
    8   10   14    -14.29      0.00 
   10   10   14     -5.43      0.00 
   12   10   14     -0.05      0.00 
   14   10   14     -1.24      0.00 
   16   10   14      0.46      0.00 
   18   10   14     -1.78      0.00 
    1   11   14     -0.30      0.00 
    3   11   14     -5.70      0.00 
    5   11   14    -16.49      0.00 
    7   11   14     10.40      0.00 
    9   11   14    -15.49      0.00 
   11   11   14      1.27      0.00 
   13   11   14     -5.43      0.00 
   15   11   14      1.98      0.00 
   17   11   14     -3.33      0.00 
    0   12   14      9.86      0.00 
    2   12   14     -6.60      0.00 
    4   12   14     -2.54      0.00 
    6   12   14      3.96      0.00 
    8   12   14     -9.76      0.00 
   10   12   14     -4.65      0.00 
   12   12   14     -5.95      0.00 
   14   12   14     -4.42      0.00 
   16   12   14      2.13      0.00 
    1   13   14      9.19      0.00 
    3   13   14     -2.80      0.00 
    5   13   14     -0.17      0.00 
    7   13   14      6.47      0.00 
    9   13   14    -11.63      0.00 
   11   13   14     -1.35      0.00 
   13   13   14     -7.37      0.00 
   15   13   14      1.45      0.00 
   17   13   14     -3.87      0.00 
    0   14   14     26.74      0.00 
    2   14   14      5.91      0.00 
    4   14   14    -11.20      0.00 
    6   14   14     -2.58      0.00 
    8   14   14     -0.97      0.00 
   10   14   14     -0.69      0.00 
   12   14   14     -7.49      0.00 
   14   14   14      5.69      0.00 
   16   14   14      5.36      0.00 
    1   15   14     11.65      0.00 
    3   15   14     -3.84      0.00 
    5   15   14      3.95      0.00 
    7   15   14      2.65      0.00 
    9   15   14     -5.65      0.00 
   11   15   14      5.81      0.00 
   13   15   14      0.62      0.00 
   15   15   14      2.73      0.00 
   17   15   14     -3.69      0.00 
    0   16   14     15.01      0.00 
    2   16   14      3.36      0.00 
    4   16   14      2.94      0.00 
    6   16   14      6.00      0.00 
    8   16   14     -0.53      0.00 
   10   16   14      2.29      0.00 
   12   16   14     -3.48      0.00 
   14   16   14      4.75      0.00 
   16   16   14      0.36      0.00 
    1   17   14      1.38      0.00 
    3   17   14     -7.83      0.00 
    5   17   14     -2.50      0.00 
    7   17   14      3.57      0.00 
    9   17   14     -9.07      0.00 
   11   17   14     -1.82      0.00 
   13   17   14     -3.65      0.00 
   15   17   14      7.15      0.00 
    0   18   14     11.48      0.00 
    2   18   14     13.53      0.00 
    4   18   14     -8.88      0.00 
    6   18   14      0.37      0.00 
    8   18   14    -17.73      0.00 
   10   18   14     -7.65      0.00 
   12   18   14     -9.57      0.00 
   14   18   14      1.63      0.00 
   16   18   14      0.07      0.00 
    1   19   14      7.21      0.00 
    3   19   14     -3.94      0.00 
    5   19   14     -9.25      0.00 
    7   19   14     -9.13      0.00 
    9   19   14    -11.03      0.00 
   11   19   14     -7.87      0.00 
   13   19   14     -9.80      0.00 
   15   19   14     10.03      0.00 
    0   20   14    -13.73      0.00 
    2   20   14      0.24      0.00 
    4   20   14     -8.46      0.00 
    6   20   14     -0.31      0.00 
    8   20   14     -2.57      0.00 
   10   20   14     -1.06      0.00 
   12   20   14      8.41      0.00 
   14   20   14      0.49      0.00 
    1   21   14      7.64      0.00 
    3   21   14      0.67      0.00 
    5   21   14      0.60      0.00 
    7   21   14      8.68      0.00 
    9   21   14     -1.31      0.00 
   11   21   14      1.33      0.00 
   13   21   14    -15.42      0.00 
   15   21   14      6.20      0.00 
    0   22   14      3.77      0.00 
    2   22   14      7.80      0.00 
    4   22   14     -1.85      0.00 
    6   22   14      4.42      0.00 
    8   22   14     -0.05      0.00 
   10   22   14     -0.17      0.00 
   12   22   14     -1.53      0.00 
   14   22   14      6.41      0.00 
    1   23   14      7.40      0.00 
    3   23   14      5.72      0.00 
    5   23   14     -3.38      0.00 
    7   23   14      4.33      0.00 
    9   23   14    -10.67      0.00 
   11   23   14      2.84      0.00 
   13   23   14     -5.15      0.00 
    0   24   14      2.69      0.00 
    2   24   14      1.29      0.00 
    4   24   14      1.26      0.00 
    6   24   14      2.23      0.00 
    8   24   14     -0.44      0.00 
   10   24   14     -0.29      0.00 
   12   24   14     -6.37      0.00 
    1   25   14      4.15      0.00 
    3   25   14     -2.91      0.00 
    5   25   14     -2.64      0.00 
    7   25   14      1.30      0.00 
    9   25   14     -1.65      0.00 
   11   25   14     -0.58      0.00 
    0   26   14      2.65      0.00 
    2   26   14     -6.77      0.00 
    4   26   14     -5.52      0.00 
    6   26   14     -5.32      0.00 
    8   26   14     -5.79      0.00 
   10   26   14     -3.44      0.00 
   12   26   14     -3.44      0.00 
    1   27   14     -4.06      0.00 
    3   27   14     -4.91      0.00 
    5   27   14     -7.01      0.00 
    7   27   14     -8.69      0.00 
    9   27   14     -3.69      0.00 
   11   27   14     -3.19      0.00 
    0   28   14     -0.48      0.00 
    2   28   14      0.51      0.00 
    4   28   14     -5.19      0.00 
    6   28   14     10.74      0.00 
    8   28   14      1.53      0.00 
   10   28   14      2.74      0.00 
    1   29   14     -2.06      0.00 
    3   29   14     -0.52      0.00 
    5   29   14     -8.48      0.00 
    7   29   14    -13.96      0.00 
    9   29   14     10.87      0.00 
    0   30   14      5.47      0.00 
    2   30   14      4.79      0.00 
    4   30   14     -3.26      0.00 
    6   30   14      3.79      0.00 
    8   30   14     -6.88      0.00 
    1   31   14      8.13      0.00 
    3   31   14      2.05      0.00 
    5   31   14      0.89      0.00 
    7   31   14     -4.92      0.00 
    0   32   14      4.71      0.00 
    2   32   14      0.50      0.00 
    4   32   14     -0.35      0.00 
    6   32   14      4.56      0.00 
    1   33   14      1.52      0.00 
    3   33   14      0.14      0.00 
    0   34   14      4.81      0.00 
    2    1   15     -0.94      0.00 
    4    1   15    -10.35      0.00 
    6    1   15    -13.16      0.00 
    8    1   15      8.49      0.00 
   10    1   15     -0.29      0.00 
   12    1   15      0.34      0.00 
   14    1   15      4.04      0.00 
   16    1   15     -2.12      0.00 
   18    1   15     -2.47      0.00 
    1    2   15    -18.06      0.00 
    3    2   15    -25.77      0.00 
    5    2   15     -6.84      0.00 
    7    2   15    -19.42      0.00 
    9    2   15     -5.33      0.00 
   11    2   15     -2.21      0.00 
   13    2   15     -1.25      0.00 
   15    2   15     -0.85      0.00 
   17    2   15     -0.01      0.00 
    2    3   15      7.53      0.00 
    4    3   15    -18.32      0.00 
    6    3   15    -15.31      0.00 
    8    3   15     -1.65      0.00 
   10    3   15     -7.56      0.00 
   12    3   15      1.91      0.00 
   14    3   15     -0.07      0.00 
   16    3   15     -0.51      0.00 
   18    3   15     -3.04      0.00 
    1    4   15     -8.73      0.00 
    3    4   15     -1.28      0.00 
    5    4   15    -12.78      0.00 
    7    4   15      0.33      0.00 
    9    4   15     -7.67      0.00 
   11    4   15      5.71      0.00 
   13    4   15     -4.24      0.00 
   15    4   15      2.01      0.00 
   17    4   15     -5.78      0.00 
    2    5   15      8.81      0.00 
    4    5   15     -8.36      0.00 
    6    5   15      5.46      0.00 
    8    5   15     -9.42      0.00 
   10    5   15     -2.61      0.00 
   12    5   15      0.37      0.00 
   14    5   15     -7.12      0.00 
   16    5   15      1.85      0.00 
   18    5   15     -2.57      0.00 
    1    6   15     -1.32      0.00 
    3    6   15     15.96      0.00 
    5    6   15     13.39      0.00 
    7    6   15     15.73      0.00 
    9    6   15     -9.62      0.00 
   11    6   15      5.76      0.00 
   13    6   15     -4.15      0.00 
   15    6   15      7.85      0.00 
   17    6   15     -0.90      0.00 
    2    7   15      5.35      0.00 
    4    7   15     10.60      0.00 
    6    7   15     12.03      0.00 
    8    7   15      7.21      0.00 
   10    7   15     -2.95      0.00 
   12    7   15      5.35      0.00 
   14    7   15     -6.13      0.00 
   16    7   15      6.11      0.00 
   18    7   15     -3.84      0.00 
    1    8   15     -5.94      0.00 
    3    8   15      2.11      0.00 
    5    8   15     -8.34      0.00 
    7    8   15     11.10      0.00 
    9    8   15     -8.93      0.00 
   11    8   15     13.41      0.00 
   13    8   15      0.27      0.00 
   15    8   15      1.97      0.00 
   17    8   15     -4.64      0.00 
    2    9   15     -8.35      0.00 
    4    9   15      1.47      0.00 
    6    9   15      1.12      0.00 
    8    9   15     14.50      0.00 
   10    9   15      8.24      0.00 
   12    9   15     11.43      0.00 
   14    9   15      2.92      0.00 
   16    9   15     -0.21      0.00 
   18    9   15     -6.61      0.00 
    1   10   15     -5.08      0.00 
    3   10   15     10.45      0.00 
    5   10   15     -2.10      0.00 
    7   10   15     17.27      0.00 
    9   10   15     -4.70      0.00 
   11   10   15     16.46      0.00 
   13   10   15      2.34      0.00 
   15   10   15      5.38      0.00 
   17   10   15     -0.71      0.00 
    2   11   15      4.80      0.00 
    4   11   15      1.31      0.00 
    6   11   15      7.10      0.00 
    8   11   15      3.79      0.00 
   10   11   15     -3.08      0.00 
   12   11   15      5.77      0.00 
   14   11   15     -0.24      0.00 
   16   11   15     -2.50      0.00 
    1   12   15    -12.51      0.00 
    3   12   15     -0.82      0.00 
    5   12   15     -9.88      0.00 
    7   12   15     -0.38      0.00 
    9   12   15    -10.16      0.00 
   11   12   15     -3.96      0.00 
   13   12   15     -4.70      0.00 
   15   12   15     -4.65      0.00 
   17   12   15     -0.77      0.00 
    2   13   15    -10.30      0.00 
    4   13   15    -10.50      0.00 
    6   13   15     -6.44      0.00 
    8   13   15    -12.09      0.00 
   10   13   15     -0.68      0.00 
   12   13   15     -3.29      0.00 
   14   13   15     -9.93      0.00 
   16   13   15      2.00      0.00 
    1   14   15     -0.57      0.00 
    3   14   15     -1.79      0.00 
    5   14   15     -0.94      0.00 
    7   14   15     -8.35      0.00 
    9   14   15    -20.21      0.00 
   11   14   15     -7.39      0.00 
   13   14   15     -2.42      0.00 
   15   14   15      1.21      0.00 
   17   14   15     -2.84      0.00 
    2   15   15     -3.60      0.00 
    4   15   15     -0.88      0.00 
    6   15   15     -9.09      0.00 
    8   15   15     -4.39      0.00 
   10   15   15     -4.61      0.00 
   12   15   15      4.01      0.00 
   14   15   15     -0.44      0.00 
   16   15   15     -0.23      0.00 
    1   16   15     -5.82      0.00 
    3   16   15     -6.74      0.00 
    5   16   15      0.31      0.00 
    7   16   15      0.42      0.00 
    9   16   15     -1.77      0.00 
   11   16   15      8.49      0.00 
   13   16   15      1.57      0.00 
   15   16   15      4.93      0.00 
    2   17   15     -9.08      0.00 
    4   17   15     -4.26      0.00 
    6   17   15     -0.03      0.00 
    8   17   15      5.67      0.00 
   10   17   15      2.84      0.00 
   12   17   15     12.12      0.00 
   14   17   15      8.03      0.00 
   16   17   15      4.15      0.00 
    1   18   15     -1.83      0.00 
    3   18   15      4.67      0.00 
    5   18   15      9.85      0.00 
    7   18   15      6.28      0.00 
    9   18   15      4.04      0.00 
   11   18   15      5.20      0.00 
   13   18   15      1.87      0.00 
   15   18   15     -0.71      0.00 
    2   19   15      0.43      0.00 
    4   19   15     11.06      0.00 
    6   19   15     10.05      0.00 
    8   19   15      3.95      0.00 
   10   19   15     12.38      0.00 
   12   19   15     -0.13      0.00 
   14   19   15      4.23      0.00 
    1   20   15     -1.55      0.00 
    3   20   15      5.29      0.00 
    5   20   15      1.83      0.00 
    7   20   15      2.05      0.00 
    9   20   15     -4.96      0.00 
   11   20   15     -1.62      0.00 
   13   20   15      1.56      0.00 
   15   20   15      3.76      0.00 
    2   21   15     -4.32      0.00 
    4   21   15     -3.67      0.00 
    6   21   15     -0.54      0.00 
    8   21   15     -7.05      0.00 
   10   21   15      4.54      0.00 
   12   21   15     -5.40      0.00 
   14   21   15     -3.31      0.00 
    1   22   15     -2.51      0.00 
    3   22   15     -1.37      0.00 
    5   22   15     -3.23      0.00 
    7   22   15     -6.27      0.00 
    9   22   15     -7.70      0.00 
   11   22   15     -8.29      0.00 
   13   22   15      1.76      0.00 
    2   23   15      6.10      0.00 
    4   23   15     -1.87      0.00 
    6   23   15     -0.23      0.00 
    8   23   15     -9.06      0.00 
   10   23   15      1.58      0.00 
   12   23   15     -9.25      0.00 
    1   24   15      5.29      0.00 
    3   24   15     -3.77      0.00 
    5   24   15      5.86      0.00 
    7   24   15     -3.59      0.00 
    9   24   15      2.09      0.00 
   11   24   15     -2.58      0.00 
   13   24   15     10.53      0.00 
    2   25   15      2.08      0.00 
    4   25   15     -0.53      0.00 
    6   25   15      2.85      0.00 
    8   25   15      0.34      0.00 
   10   25   15      3.80      0.00 
   12   25   15     -8.31      0.00 
    1   26   15      3.43      0.00 
    3   26   15     -5.58      0.00 
    5   26   15      1.68      0.00 
    7   26   15     -3.15      0.00 
    9   26   15     -2.52      0.00 
   11   26   15      3.40      0.00 
    2   27   15      0.99      0.00 
    4   27   15      3.80      0.00 
    6   27   15      1.87      0.00 
    8   27   15     -6.03      0.00 
   10   27   15      5.29      0.00 
    1   28   15      6.24      0.00 
    3   28   15     -0.90      0.00 
    5   28   15      6.01      0.00 
    7   28   15     -9.67      0.00 
    9   28   15     -1.18      0.00 
    2   29   15      2.12      0.00 
    4   29   15      1.31      0.00 
    6   29   15      3.34      0.00 
    8   29   15     -2.33      0.00 
    1   30   15      5.15      0.00 
    3   30   15      0.52      0.00 
    5   30   15      8.46      0.00 
    7   30   15    -10.56      0.00 
    2   31   15      5.35      0.00 
    4   31   15      4.00      0.00 
    6   31   15      1.31      0.00 
    1   32   15      7.47      0.00 
    3   32   15      1.90      0.00 
    5   32   15      3.66      0.00 
    2   33   15     14.19      0.00 
    0    0   16     -7.60      0.00 
    2    0   16    -64.83      0.00 
    4    0   16      6.49      0.00 
    6    0   16     -3.22      0.00 
    8    0   16     16.49      0.00 
   10    0   16     -3.87      0.00 
   12    0   16      2.70      0.00 
   14    0   16     -2.22      0.00 
   16    0   16      3.58      0.00 
   18    0   16     -7.31      0.00 
    1    1   16    -52.61      0.00 
    3    1   16    -11.22      0.00 
    5    1   16     14.10      0.00 
    7    1   16      3.92      0.00 
    9    1   16      0.33      0.00 
   11    1   16      3.67      0.00 
   13    1   16      0.44      0.00 
   15    1   16      1.63      0.00 
   17    1   16      0.80      0.00 
    0    2   16    -38.79      0.00 
    2    2   16    -32.96      0.00 
    4    2   16     22.86      0.00 
    6    2   16      4.92      0.00 
    8    2   16     17.98      0.00 
   10    2   16     -5.29      0.00 
   12    2   16      6.19      0.00 
   14    2   16     -5.16      0.00 
   16    2   16      7.39      0.00 
   18    2   16     -7.76      0.00 
    1    3   16    -28.78      0.00 
    3    3   16     23.85      0.00 
    5    3   16     19.48      0.00 
    7    3   16     13.73      0.00 
    9    3   16      9.86      0.00 
   11    3   16     -4.76      0.00 
   13    3   16     -3.56      0.00 
   15    3   16     -3.70      0.00 
   17    3   16      1.26      0.00 
    0    4   16      4.66      0.00 
    2    4   16      2.15      0.00 
    4    4   16     41.04      0.00 
    6    4   16     18.26      0.00 
    8    4   16     17.68      0.00 
   10    4   16     -6.68      0.00 
   12    4   16      3.77      0.00 
   14    4   16     -6.58      0.00 
   16    4   16      4.88      0.00 
   18    4   16     -4.91      0.00 
    1    5   16    -15.94      0.00 
    3    5   16      8.29      0.00 
    5    5   16     29.74      0.00 
    7    5   16      5.45      0.00 
    9    5   16      9.54      0.00 
   11    5   16     -6.49      0.00 
   13    5   16     -2.08      0.00 
   15    5   16     -9.04      0.00 
   17    5   16      2.25      0.00 
    0    6   16    -27.82      0.00 
    2    6   16    -26.33      0.00 
    4    6   16     11.22      0.00 
    6    6   16      5.55      0.00 
    8    6   16     14.44      0.00 
   10    6   16     -7.10      0.00 
   12    6   16     -0.02      0.00 
   14    6   16    -10.10      0.00 
   16    6   16      2.01      0.00 
   18    6   16     -3.01      0.00 
    1    7   16    -49.82      0.00 
    3    7   16     -4.36      0.00 
    5    7   16      9.98      0.00 
    7    7   16     -1.14      0.00 
    9    7   16     -0.77      0.00 
   11    7   16     -2.64      0.00 
   13    7   16      0.72      0.00 
   15    7   16     -4.01      0.00 
   17    7   16     -4.12      0.00 
    0    8   16    -41.10      0.00 
    2    8   16    -35.15      0.00 
    4    8   16      9.41      0.00 
    6    8   16     -5.17      0.00 
    8    8   16     11.77      0.00 
   10    8   16     -2.50      0.00 
   12    8   16      0.64      0.00 
   14    8   16     -3.02      0.00 
   16    8   16      1.92      0.00 
    1    9   16    -22.90      0.00 
    3    9   16      7.01      0.00 
    5    9   16     -1.62      0.00 
    7    9   16      7.82      0.00 
    9    9   16     -1.42      0.00 
   11    9   16     -1.82      0.00 
   13    9   16     -8.23      0.00 
   15    9   16      0.06      0.00 
   17    9   16     -1.83      0.00 
    0   10   16    -21.45      0.00 
    2   10   16    -12.54      0.00 
    4   10   16     12.29      0.00 
    6   10   16      3.89      0.00 
    8   10   16      7.17      0.00 
   10   10   16      4.40      0.00 
   12   10   16      7.15      0.00 
   14   10   16      1.51      0.00 
   16   10   16      5.01      0.00 
    1   11   16    -41.08      0.00 
    3   11   16      5.08      0.00 
    5   11   16      0.62      0.00 
    7   11   16     15.74      0.00 
    9   11   16      5.04      0.00 
   11   11   16      5.08      0.00 
   13   11   16     -3.56      0.00 
   15   11   16      5.48      0.00 
   17   11   16     -0.82      0.00 
    0   12   16    -35.17      0.00 
    2   12   16     -8.15      0.00 
    4   12   16      3.40      0.00 
    6   12   16      4.54      0.00 
    8   12   16      4.79      0.00 
   10   12   16      5.45      0.00 
   12   12   16      8.16      0.00 
   14   12   16      0.85      0.00 
   16   12   16      1.10      0.00 
    1   13   16    -18.09      0.00 
    3   13   16      8.04      0.00 
    5   13   16      8.03      0.00 
    7   13   16      4.78      0.00 
    9   13   16      2.01      0.00 
   11   13   16      8.23      0.00 
   13   13   16      1.31      0.00 
   15   13   16      4.82      0.00 
    0   14   16    -34.52      0.00 
    2   14   16     -9.04      0.00 
    4   14   16     -1.78      0.00 
    6   14   16      0.57      0.00 
    8   14   16      0.50      0.00 
   10   14   16      0.29      0.00 
   12   14   16     -4.36      0.00 
   14   14   16      0.61      0.00 
   16   14   16     -5.17      0.00 
    1   15   16    -20.87      0.00 
    3   15   16      2.69      0.00 
    5   15   16     -3.13      0.00 
    7   15   16    -12.97      0.00 
    9   15   16    -12.18      0.00 
   11   15   16     -0.78      0.00 
   13   15   16     -5.16      0.00 
   15   15   16      2.97      0.00 
    0   16   16    -22.91      0.00 
    2   16   16     -4.65      0.00 
    4   16   16      2.38      0.00 
    6   16   16      2.76      0.00 
    8   16   16      3.37      0.00 
   10   16   16     -2.17      0.00 
   12   16   16     -8.34      0.00 
   14   16   16     -3.59      0.00 
   16   16   16     -4.78      0.00 
    1   17   16     -6.34      0.00 
    3   17   16      4.00      0.00 
    5   17   16      1.92      0.00 
    7   17   16      2.73      0.00 
    9   17   16     -4.27      0.00 
   11   17   16      6.19      0.00 
   13   17   16     -6.18      0.00 
   15   17   16      1.32      0.00 
    0   18   16    -14.78      0.00 
    2   18   16      5.88      0.00 
    4   18   16     -2.72      0.00 
    6   18   16     13.51      0.00 
    8   18   16      2.50      0.00 
   10   18   16      8.42      0.00 
   12   18   16     -0.65      0.00 
   14   18   16      1.19      0.00 
    1   19   16     -7.64      0.00 
    3   19   16      7.72      0.00 
    5   19   16      4.00      0.00 
    7   19   16      8.84      0.00 
    9   19   16      2.12      0.00 
   11   19   16      5.98      0.00 
   13   19   16     -5.33      0.00 
   15   19   16      4.44      0.00 
    0   20   16    -16.81      0.00 
    2   20   16     -0.25      0.00 
    4   20   16      1.35      0.00 
    6   20   16      9.85      0.00 
    8   20   16     -1.98      0.00 
   10   20   16      9.72      0.00 
   12   20   16      4.53      0.00 
   14   20   16      4.81      0.00 
    1   21   16     -7.16      0.00 
    3   21   16      3.88      0.00 
    5   21   16     -4.71      0.00 
    7   21   16      4.81      0.00 
    9   21   16     -3.09      0.00 
   11   21   16      8.13      0.00 
   13   21   16     -3.29      0.00 
    0   22   16     -9.56      0.00 
    2   22   16     -0.95      0.00 
    4   22   16    -10.62      0.00 
    6   22   16      0.76      0.00 
    8   22   16    -11.76      0.00 
   10   22   16     -1.53      0.00 
   12   22   16    -12.12      0.00 
    1   23   16    -13.17      0.00 
    3   23   16     -1.39      0.00 
    5   23   16     -9.08      0.00 
    7   23   16     -3.24      0.00 
    9   23   16     -3.50      0.00 
   11   23   16      7.47      0.00 
   13   23   16     -2.18      0.00 
    0   24   16    -20.70      0.00 
    2   24   16     -8.47      0.00 
    4   24   16     -3.89      0.00 
    6   24   16      5.79      0.00 
    8   24   16      0.67      0.00 
   10   24   16      3.71      0.00 
   12   24   16      3.50      0.00 
    1   25   16     -5.62      0.00 
    3   25   16     -0.33      0.00 
    5   25   16      1.14      0.00 
    7   25   16      2.06      0.00 
    9   25   16      4.20      0.00 
   11   25   16      3.98      0.00 
    0   26   16      7.23      0.00 
    2   26   16      3.11      0.00 
    4   26   16      0.91      0.00 
    6   26   16     -0.17      0.00 
    8   26   16      1.58      0.00 
   10   26   16      3.04      0.00 
    1   27   16      5.15      0.00 
    3   27   16      5.78      0.00 
    5   27   16      2.74      0.00 
    7   27   16      4.58      0.00 
    9   27   16     -3.46      0.00 
    0   28   16      5.30      0.00 
    2   28   16     11.07      0.00 
    4   28   16      6.22      0.00 
    6   28   16      9.13      0.00 
    8   28   16      1.67      0.00 
    1   29   16     -4.59      0.00 
    3   29   16     -1.76      0.00 
    5   29   16      2.41      0.00 
    7   29   16      5.67      0.00 
    0   30   16     -8.34      0.00 
    2   30   16      0.63      0.00 
    4   30   16      0.35      0.00 
    6   30   16     -2.70      0.00 
    1   31   16     -4.08      0.00 
    3   31   16     -5.30      0.00 
    5   31   16     -0.05      0.00 
    0   32   16     -5.51      0.00 
    2   32   16     -6.94      0.00 
    4   32   16     -2.92      0.00 
    2    1   17      3.46      0.00 
    4    1   17     12.02      0.00 
    6    1   17     -2.96      0.00 
    8    1   17      1.41      0.00 
   10    1   17      0.26      0.00 
   12    1   17     -2.69      0.00 
   14    1   17     -0.73      0.00 
   16    1   17      0.15      0.00 
   18    1   17      2.48      0.00 
    1    2   17      2.98      0.00 
    3    2   17     -1.55      0.00 
    5    2   17     12.17      0.00 
    7    2   17    -10.94      0.00 
    9    2   17     -2.74      0.00 
   11    2   17     -8.74      0.00 
   13    2   17     -4.98      0.00 
   15    2   17      1.22      0.00 
   17    2   17     -1.27      0.00 
    2    3   17     -1.67      0.00 
    4    3   17      9.42      0.00 
    6    3   17     -7.08      0.00 
    8    3   17     -1.04      0.00 
   10    3   17     -7.15      0.00 
   12    3   17     -6.62      0.00 
   14    3   17     -3.70      0.00 
   16    3   17      3.12      0.00 
    1    4   17     -2.34      0.00 
    3    4   17      0.28      0.00 
    5    4   17     -5.72      0.00 
    7    4   17      4.80      0.00 
    9    4   17     -7.14      0.00 
   11    4   17     -3.15      0.00 
   13    4   17     -3.57      0.00 
   15    4   17      1.18      0.00 
   17    4   17     -2.79      0.00 
    2    5   17     -1.06      0.00 
    4    5   17      3.06      0.00 
    6    5   17     -1.79      0.00 
    8    5   17      2.08      0.00 
   10    5   17      4.34      0.00 
   12    5   17      1.01      0.00 
   14    5   17     -2.80      0.00 
   16    5   17      2.55      0.00 
    1    6   17     -5.47      0.00 
    3    6   17     13.03      0.00 
    5    6   17     -0.52      0.00 
    7    6   17      9.30      0.00 
    9    6   17      3.55      0.00 
   11    6   17      8.54      0.00 
   13    6   17     -1.03      0.00 
   15    6   17      4.85      0.00 
   17    6   17     -0.47      0.00 
    2    7   17      9.43      0.00 
    4    7   17      6.27      0.00 
    6    7   17     -1.71      0.00 
    8    7   17      7.73      0.00 
   10    7   17      0.73      0.00 
   12    7   17      5.60      0.00 
   14    7   17     -4.93      0.00 
   16    7   17      2.75      0.00 
    1    8   17     -8.99      0.00 
    3    8   17     22.13      0.00 
    5    8   17     -2.54      0.00 
    7    8   17      9.58      0.00 
    9    8   17      2.11      0.00 
   11    8   17      4.90      0.00 
   13    8   17     -6.86      0.00 
   15    8   17      2.93      0.00 
   17    8   17     -3.00      0.00 
    2    9   17      4.99      0.00 
    4    9   17      8.93      0.00 
    6    9   17      0.26      0.00 
    8    9   17      8.58      0.00 
   10    9   17     -3.48      0.00 
   12    9   17     -4.94      0.00 
   14    9   17     -4.72      0.00 
   16    9   17      5.51      0.00 
    1   10   17     -5.17      0.00 
    3   10   17     27.24      0.00 
    5   10   17      2.70      0.00 
    7   10   17      9.89      0.00 
    9   10   17     -5.13      0.00 
   11   10   17     -2.45      0.00 
   13   10   17     -9.64      0.00 
   15   10   17      6.61      0.00 
   17   10   17     -2.59      0.00 
    2   11   17     10.41      0.00 
    4   11   17     10.10      0.00 
    6   11   17     -4.62      0.00 
    8   11   17     -8.88      0.00 
   10   11   17    -13.95      0.00 
   12   11   17     -3.57      0.00 
   14   11   17     -5.93      0.00 
   16   11   17      1.66      0.00 
    1   12   17     -6.74      0.00 
    3   12   17      5.31      0.00 
    5   12   17    -13.80      0.00 
    7   12   17      2.14      0.00 
    9   12   17      6.00      0.00 
   11   12   17     -0.63      0.00 
   13   12   17     -5.08      0.00 
   15   12   17      1.18      0.00 
    2   13   17     -0.31      0.00 
    4   13   17      3.14      0.00 
    6   13   17     -8.82      0.00 
    8   13   17     -6.48      0.00 
   10   13   17      6.28      0.00 
   12   13   17     -0.74      0.00 
   14   13   17     -4.71      0.00 
   16   13   17      6.83      0.00 
    1   14   17      9.24      0.00 
    3   14   17      8.37      0.00 
    5   14   17     -5.26      0.00 
    7   14   17      4.45      0.00 
    9   14   17     -6.48      0.00 
   11   14   17     -3.64      0.00 
   13   14   17     -5.91      0.00 
   15   14   17      7.09      0.00 
    2   15   17      9.82      0.00 
    4   15   17      9.42      0.00 
    6   15   17      4.03      0.00 
    8   15   17      5.09      0.00 
   10   15   17     -0.83      0.00 
   12   15   17     -5.79      0.00 
   14   15   17     -2.74      0.00 
    1   16   17      7.02      0.00 
    3   16   17     16.61      0.00 
    5   16   17      2.33      0.00 
    7   16   17      7.88      0.00 
    9   16   17     -1.36      0.00 
   11   16   17      2.00      0.00 
   13   16   17    -17.45      0.00 
   15   16   17      0.94      0.00 
    2   17   17      9.66      0.00 
    4   17   17     -0.09      0.00 
    6   17   17     -2.08      0.00 
    8   17   17      1.46      0.00 
   10   17   17     -5.15      0.00 
   12   17   17     -4.49      0.00 
   14   17   17     -3.96      0.00 
    1   18   17      6.61      0.00 
    3   18   17     14.38      0.00 
    5   18   17      4.78      0.00 
    7   18   17      1.29      0.00 
    9   18   17     -3.95      0.00 
   11   18   17     -0.88      0.00 
   13   18   17     -4.61      0.00 
    2   19   17     15.25      0.00 
    4   19   17      9.86      0.00 
    6   19   17      2.62      0.00 
    8   19   17     -0.15      0.00 
   10   19   17      0.42      0.00 
   12   19   17     -5.02      0.00 
   14   19   17      3.46      0.00 
    1   20   17      4.37      0.00 
    3   20   17      7.73      0.00 
    5   20   17     -4.44      0.00 
    7   20   17      1.72      0.00 
    9   20   17      3.38      0.00 
   11   20   17      1.29      0.00 
   13   20   17      0.84      0.00 
    2   21   17      4.75      0.00 
    4   21   17      1.19      0.00 
    6   21   17      6.26      0.00 
    8   21   17      0.56      0.00 
   10   21   17     -1.50      0.00 
   12   21   17     -3.29      0.00 
    1   22   17      3.69      0.00 
    3   22   17      3.75      0.00 
    5   22   17      0.98      0.00 
    7   22   17     -0.35      0.00 
    9   22   17      5.48      0.00 
   11   22   17     -2.20      0.00 
   13   22   17      0.11      0.00 
    2   23   17      8.16      0.00 
    4   23   17      3.76      0.00 
    6   23   17      2.00      0.00 
    8   23   17     -6.35      0.00 
   10   23   17     -0.77      0.00 
   12   23   17      2.04      0.00 
    1   24   17      8.13      0.00 
    3   24   17     -2.98      0.00 
    5   24   17      2.41      0.00 
    7   24   17     -5.67      0.00 
    9   24   17      0.47      0.00 
   11   24   17     -6.71      0.00 
    2   25   17      0.52      0.00 
    4   25   17     -2.22      0.00 
    6   25   17     -4.48      0.00 
    8   25   17     -4.24      0.00 
   10   25   17     -0.56      0.00 
    1   26   17      4.77      0.00 
    3   26   17     -4.77      0.00 
    5   26   17      5.39      0.00 
    7   26   17      2.66      0.00 
    9   26   17     -2.82      0.00 
    2   27   17      4.31      0.00 
    4   27   17      3.34      0.00 
    6   27   17      0.79      0.00 
    8   27   17     -3.54      0.00 
    1   28   17      7.81      0.00 
    3   28   17      5.16      0.00 
    5   28   17     14.57      0.00 
    7   28   17      1.92      0.00 
    2   29   17      5.61      0.00 
    4   29   17     -5.01      0.00 
    6   29   17      4.00      0.00 
    1   30   17      4.82      0.00 
    3   30   17     -4.24      0.00 
    5   30   17      6.38      0.00 
    2   31   17     -1.67      0.00 
    4   31   17      2.29      0.00 
    1   32   17     10.73      0.00 
    0    0   18     81.74      0.00 
    2    0   18     19.51      0.00 
    4    0   18      8.97      0.00 
    6    0   18    -14.97      0.00 
    8    0   18      7.55      0.00 
   10    0   18     -7.38      0.00 
   12    0   18      2.75      0.00 
   14    0   18     -4.99      0.00 
   16    0   18      0.78      0.00 
    1    1   18     42.06      0.00 
    3    1   18      3.34      0.00 
    5    1   18     -5.18      0.00 
    7    1   18      0.07      0.00 
    9    1   18     -1.49      0.00 
   11    1   18      0.63      0.00 
   13    1   18      4.10      0.00 
   15    1   18     -4.39      0.00 
   17    1   18      1.22      0.00 
    0    2   18     20.51      0.00 
    2    2   18     -2.92      0.00 
    4    2   18     -3.42      0.00 
    6    2   18    -16.14      0.00 
    8    2   18     11.89      0.00 
   10    2   18     -7.07      0.00 
   12    2   18     10.99      0.00 
   14    2   18     -1.71      0.00 
   16    2   18      2.64      0.00 
    1    3   18      3.97      0.00 
    3    3   18    -17.39      0.00 
    5    3   18    -33.14      0.00 
    7    3   18     -4.55      0.00 
    9    3   18      0.97      0.00 
   11    3   18      5.52      0.00 
   13    3   18      5.43      0.00 
   15    3   18     -4.36      0.00 
   17    3   18     -0.64      0.00 
    0    4   18     21.07      0.00 
    2    4   18     -6.96      0.00 
    4    4   18    -19.63      0.00 
    6    4   18    -17.80      0.00 
    8    4   18      5.38      0.00 
   10    4   18     -7.43      0.00 
   12    4   18     13.19      0.00 
   14    4   18      1.38      0.00 
   16    4   18     -2.10      0.00 
    1    5   18     45.54      0.00 
    3    5   18     -7.36      0.00 
    5    5   18     -9.44      0.00 
    7    5   18     -5.37      0.00 
    9    5   18      6.17      0.00 
   11    5   18      0.66      0.00 
   13    5   18      7.79      0.00 
   15    5   18     -3.81      0.00 
   17    5   18      0.95      0.00 
    0    6   18     27.93      0.00 
    2    6   18      1.84      0.00 
    4    6   18    -14.04      0.00 
    6    6   18     -8.11      0.00 
    8    6   18      8.50      0.00 
   10    6   18      0.63      0.00 
   12    6   18      9.30      0.00 
   14    6   18     -4.94      0.00 
   16    6   18      1.27      0.00 
    1    7   18     23.38      0.00 
    3    7   18      3.53      0.00 
    5    7   18     -0.25      0.00 
    7    7   18      1.74      0.00 
    9    7   18      5.47      0.00 
   11    7   18      2.50      0.00 
   13    7   18      7.93      0.00 
   15    7   18      1.42      0.00 
   17    7   18      1.06      0.00 
    0    8   18     43.27      0.00 
    2    8   18     13.12      0.00 
    4    8   18      7.82      0.00 
    6    8   18     -3.26      0.00 
    8    8   18      4.93      0.00 
   10    8   18      1.11      0.00 
   12    8   18      6.69      0.00 
   14    8   18      0.62      0.00 
   16    8   18      6.27      0.00 
    1    9   18     23.19      0.00 
    3    9   18     -7.74      0.00 
    5    9   18    -11.07      0.00 
    7    9   18      0.47      0.00 
    9    9   18     -3.93      0.00 
   11    9   18      7.87      0.00 
   13    9   18      2.88      0.00 
   15    9   18      3.06      0.00 
    0   10   18     18.62      0.00 
    2   10   18     -6.82      0.00 
    4   10   18    -15.70      0.00 
    6   10   18     -8.40      0.00 
    8   10   18     -3.11      0.00 
   10   10   18      3.10      0.00 
   12   10   18      7.49      0.00 
   14   10   18     -1.35      0.00 
   16   10   18     -2.70      0.00 
    1   11   18     -1.08      0.00 
    3   11   18    -14.24      0.00 
    5   11   18    -14.19      0.00 
    7   11   18     -4.97      0.00 
    9   11   18     -7.04      0.00 
   11   11   18      1.93      0.00 
   13   11   18     -4.60      0.00 
   15   11   18     -0.55      0.00 
    0   12   18      8.67      0.00 
    2   12   18     -6.71      0.00 
    4   12   18    -12.42      0.00 
    6   12   18     -3.86      0.00 
    8   12   18     -2.85      0.00 
   10   12   18     -5.42      0.00 
   12   12   18     -1.85      0.00 
   14   12   18     -4.50      0.00 
   16   12   18     -3.53      0.00 
    1   13   18     20.54      0.00 
    3   13   18      0.99      0.00 
    5   13   18     -2.82      0.00 
    7   13   18      5.57      0.00 
    9   13   18     -1.14      0.00 
   11   13   18      2.65      0.00 
   13   13   18     -3.23      0.00 
   15   13   18      1.06      0.00 
    0   14   18     31.27      0.00 
    2   14   18     11.12      0.00 
    4   14   18      3.11      0.00 
    6   14   18      8.79      0.00 
    8   14   18      7.09      0.00 
   10   14   18      6.16      0.00 
   12   14   18      1.90      0.00 
   14   14   18      3.53      0.00 
    1   15   18      6.30      0.00 
    3   15   18      1.89      0.00 
    5   15   18      3.71      0.00 
    7   15   18     12.19      0.00 
    9   15   18      9.11      0.00 
   11   15   18      7.02      0.00 
   13   15   18      2.21      0.00 
   15   15   18      2.70      0.00 
    0   16   18     16.78      0.00 
    2   16   18      5.40      0.00 
    4   16   18      3.64      0.00 
    6   16   18     15.92      0.00 
    8   16   18     10.42      0.00 
   10   16   18     14.91      0.00 
   12   16   18      5.62      0.00 
   14   16   18      2.42      0.00 
    1   17   18      7.80      0.00 
    3   17   18      4.80      0.00 
    5   17   18      8.38      0.00 
    7   17   18      6.31      0.00 
    9   17   18      7.98      0.00 
   11   17   18      3.22      0.00 
   13   17   18      2.95      0.00 
    0   18   18     -8.11      0.00 
    2   18   18      2.88      0.00 
    4   18   18    -12.12      0.00 
    6   18   18      2.24      0.00 
    8   18   18     -9.96      0.00 
   10   18   18      3.21      0.00 
   12   18   18     -0.31      0.00 
   14   18   18      2.42      0.00 
    1   19   18     -2.48      0.00 
    3   19   18     -8.95      0.00 
    5   19   18     -6.40      0.00 
    7   19   18     -4.55      0.00 
    9   19   18     -3.38      0.00 
   11   19   18     -3.22      0.00 
   13   19   18     -5.58      0.00 
    0   20   18    -18.62      0.00 
    2   20   18     -4.91      0.00 
    4   20   18    -10.61      0.00 
    6   20   18     -0.69      0.00 
    8   20   18     -3.23      0.00 
   10   20   18      1.19      0.00 
   12   20   18     -0.94      0.00 
    1   21   18     -8.28      0.00 
    3   21   18     -7.98      0.00 
    5   21   18     -3.10      0.00 
    7   21   18      4.61      0.00 
    9   21   18     -1.74      0.00 
   11   21   18     11.81      0.00 
   13   21   18     -2.68      0.00 
    0   22   18     -1.21      0.00 
    2   22   18      5.18      0.00 
    4   22   18     -2.15      0.00 
    6   22   18      8.64      0.00 
    8   22   18      4.31      0.00 
   10   22   18      4.82      0.00 
   12   22   18     -7.64      0.00 
    1   23   18      0.98      0.00 
    3   23   18      8.67      0.00 
    5   23   18      2.24      0.00 
    7   23   18      5.42      0.00 
    9   23   18     -2.11      0.00 
   11   23   18      5.11      0.00 
    0   24   18      8.95      0.00 
    2   24   18      8.20      0.00 
    4   24   18      3.72      0.00 
    6   24   18      6.63      0.00 
    8   24   18      1.53      0.00 
   10   24   18      3.94      0.00 
    1   25   18      2.91      0.00 
    3   25   18      4.28      0.00 
    5   25   18      5.67      0.00 
    7   25   18      5.61      0.00 
    9   25   18     -3.09      0.00 
    0   26   18     10.98      0.00 
    2   26   18      2.25      0.00 
    4   26   18     -1.43      0.00 
    6   26   18      2.45      0.00 
    8   26   18     -2.08      0.00 
    1   27   18     -8.10      0.00 
    3   27   18     -1.28      0.00 
    5   27   18      3.54      0.00 
    7   27   18     -0.91      0.00 
    9   27   18     -7.95      0.00 
    0   28   18    -10.61      0.00 
    2   28   18     -5.03      0.00 
    4   28   18     -3.70      0.00 
    6   28   18      2.93      0.00 
    1   29   18     -7.28      0.00 
    3   29   18      0.41      0.00 
    5   29   18      1.91      0.00 
    0   30   18     -7.04      0.00 
    2   30   18     -1.27      0.00 
    4   30   18     -2.43      0.00 
    1   31   18      6.76      0.00 
    3   31   18      2.79      0.00 
    2    1   19      0.48      0.00 
    4    1   19      5.40      0.00 
    6    1   19      4.98      0.00 
    8    1   19      7.46      0.00 
   10    1   19      3.01      0.00 
   12    1   19      2.86      0.00 
   14    1   19      0.41      0.00 
   16    1   19      0.83      0.00 
    1    2   19      1.84      0.00 
    3    2   19      0.76      0.00 
    5    2   19     11.74      0.00 
    7    2   19      4.70      0.00 
    9    2   19     12.34      0.00 
   11    2   19      9.46      0.00 
   13    2   19      5.96      0.00 
   15    2   19      1.45      0.00 
   17    2   19     -6.87      0.00 
    2    3   19      4.85      0.00 
    4    3   19     -0.76      0.00 
    6    3   19      5.98      0.00 
    8    3   19     10.76      0.00 
   10    3   19      7.88      0.00 
   12    3   19      7.85      0.00 
   14    3   19      1.31      0.00 
   16    3   19      3.30      0.00 
    1    4   19      2.00      0.00 
    3    4   19      2.25      0.00 
    5    4   19     -6.42      0.00 
    7    4   19      8.46      0.00 
    9    4   19      0.50      0.00 
   11    4   19      5.01      0.00 
   13    4   19      3.42      0.00 
   15    4   19      0.80      0.00 
   17    4   19     -6.74      0.00 
    2    5   19      6.53      0.00 
    4    5   19      1.06      0.00 
    6    5   19      8.64      0.00 
    8    5   19     -4.46      0.00 
   10    5   19      1.49      0.00 
   12    5   19     -0.50      0.00 
   14    5   19     -1.03      0.00 
   16    5   19      0.79      0.00 
    1    6   19      0.17      0.00 
    3    6   19     -1.95      0.00 
    5    6   19     -7.34      0.00 
    7    6   19      1.99      0.00 
    9    6   19     -6.73      0.00 
   11    6   19     -6.68      0.00 
   13    6   19     -7.22      0.00 
   15    6   19      2.83      0.00 
    2    7   19     -6.57      0.00 
    4    7   19    -10.43      0.00 
    6    7   19     -7.74      0.00 
    8    7   19    -14.32      0.00 
   10    7   19    -12.37      0.00 
   12    7   19      2.77      0.00 
   14    7   19     -5.17      0.00 
   16    7   19     -2.02      0.00 
    1    8   19     -7.81      0.00 
    3    8   19    -10.51      0.00 
    5    8   19    -19.00      0.00 
    7    8   19     -9.72      0.00 
    9    8   19    -13.96      0.00 
   11    8   19      2.32      0.00 
   13    8   19     -8.10      0.00 
   15    8   19      1.34      0.00 
    2    9   19    -13.52      0.00 
    4    9   19    -14.30      0.00 
    6    9   19    -11.25      0.00 
    8    9   19     -0.61      0.00 
   10    9   19      0.49      0.00 
   12    9   19      4.03      0.00 
   14    9   19     -0.86      0.00 
   16    9   19      0.28      0.00 
    1   10   19     -1.15      0.00 
    3   10   19     -5.19      0.00 
    5   10   19    -13.49      0.00 
    7   10   19      3.90      0.00 
    9   10   19    -10.12      0.00 
   11   10   19      7.96      0.00 
   13   10   19     -0.07      0.00 
   15   10   19      3.55      0.00 
    2   11   19     -2.56      0.00 
    4   11   19      0.92      0.00 
    6   11   19      3.67      0.00 
    8   11   19      3.43      0.00 
   10   11   19     -1.36      0.00 
   12   11   19      5.84      0.00 
   14   11   19      6.16      0.00 
   16   11   19      1.28      0.00 
    1   12   19     -5.37      0.00 
    3   12   19     -4.49      0.00 
    5   12   19     -1.47      0.00 
    7   12   19     11.83      0.00 
    9   12   19      6.39      0.00 
   11   12   19      4.84      0.00 
   13   12   19      4.83      0.00 
   15   12   19     -4.30      0.00 
    2   13   19      1.75      0.00 
    4   13   19      5.97      0.00 
    6   13   19      7.60      0.00 
    8   13   19      5.02      0.00 
   10   13   19      6.41      0.00 
   12   13   19      1.69      0.00 
   14   13   19     -0.84      0.00 
    1   14   19     -5.69      0.00 
    3   14   19     -1.18      0.00 
    5   14   19     11.55      0.00 
    7   14   19      7.84      0.00 
    9   14   19     -2.01      0.00 
   11   14   19      6.46      0.00 
   13   14   19      5.33      0.00 
   15   14   19      2.29      0.00 
    2   15   19      7.03      0.00 
    4   15   19      2.56      0.00 
    6   15   19      5.46      0.00 
    8   15   19      3.14      0.00 
   10   15   19      0.78      0.00 
   12   15   19      4.90      0.00 
   14   15   19      4.78      0.00 
    1   16   19    -12.35      0.00 
    3   16   19    -11.12      0.00 
    5   16   19     -4.55      0.00 
    7   16   19      1.65      0.00 
    9   16   19      0.74      0.00 
   11   16   19      7.06      0.00 
   13   16   19     -1.12      0.00 
    2   17   19     -9.39      0.00 
    4   17   19    -12.20      0.00 
    6   17   19     -7.45      0.00 
    8   17   19     -0.72      0.00 
   10   17   19     -2.77      0.00 
   12   17   19      5.79      0.00 
   14   17   19     -5.05      0.00 
    1   18   19    -11.85      0.00 
    3   18   19    -13.18      0.00 
    5   18   19     -4.51      0.00 
    7   18   19     -3.62      0.00 
    9   18   19     -1.28      0.00 
   11   18   19     -0.67      0.00 
   13   18   19      0.32      0.00 
    2   19   19     -8.61      0.00 
    4   19   19      1.74      0.00 
    6   19   19      5.70      0.00 
    8   19   19      0.82      0.00 
   10   19   19     -1.50      0.00 
   12   19   19      2.71      0.00 
    1   20   19     -5.99      0.00 
    3   20   19     -4.19      0.00 
    5   20   19     -4.38      0.00 
    7   20   19     -3.09      0.00 
    9   20   19      1.52      0.00 
   11   20   19      1.11      0.00 
   13   20   19     -4.45      0.00 
    2   21   19    -10.53      0.00 
    4   21   19     -6.41      0.00 
    6   21   19      0.61      0.00 
    8   21   19     -0.62      0.00 
   10   21   19      1.47      0.00 
   12   21   19      3.74      0.00 
    1   22   19     -1.50      0.00 
    3   22   19     -5.23      0.00 
    5   22   19     -1.14      0.00 
    7   22   19      0.94      0.00 
    9   22   19      3.25      0.00 
   11   22   19      1.90      0.00 
    2   23   19     -7.06      0.00 
    4   23   19     -1.33      0.00 
    6   23   19      2.89      0.00 
    8   23   19      1.80      0.00 
   10   23   19      2.78      0.00 
    1   24   19      4.40      0.00 
    3   24   19      0.19      0.00 
    5   24   19      0.94      0.00 
    7   24   19      2.43      0.00 
    9   24   19      6.08      0.00 
    2   25   19     -7.82      0.00 
    4   25   19     -4.96      0.00 
    6   25   19      3.27      0.00 
    8   25   19      5.82      0.00 
    1   26   19      4.33      0.00 
    3   26   19     -0.56      0.00 
    5   26   19      2.47      0.00 
    7   26   19     -0.92      0.00 
    9   26   19      0.49      0.00 
    2   27   19     -3.86      0.00 
    4   27   19     -2.36      0.00 
    6   27   19      2.40      0.00 
    8   27   19     -2.83      0.00 
    1   28   19     -4.34      0.00 
    3   28   19     -8.17      0.00 
    5   28   19     -2.27      0.00 
    7   28   19    -17.52      0.00 
    2   29   19     -3.56      0.00 
    4   29   19     -7.72      0.00 
    1   30   19    -10.87      0.00 
    3   30   19     -6.01      0.00 
    0    0   20     13.80      0.00 
    2    0   20     -0.72      0.00 
    4    0   20     15.18      0.00 
    6    0   20     -6.77      0.00 
    8    0   20     -6.86      0.00 
   10    0   20     -0.07      0.00 
   12    0   20     -1.80      0.00 
   14    0   20     -7.68      0.00 
   16    0   20     -6.10      0.00 
    1    1   20     -3.17      0.00 
    3    1   20      1.73      0.00 
    5    1   20      1.00      0.00 
    7    1   20     -7.48      0.00 
    9    1   20     -2.56      0.00 
   11    1   20      1.94      0.00 
   13    1   20     -3.81      0.00 
   15    1   20      2.94      0.00 
    0    2   20     -0.11      0.00 
    2    2   20     -1.75      0.00 
    4    2   20     15.86      0.00 
    6    2   20    -10.05      0.00 
    8    2   20     -2.11      0.00 
   10    2   20     -1.17      0.00 
   12    2   20      0.28      0.00 
   14    2   20     -4.95      0.00 
   16    2   20      1.62      0.00 
    1    3   20      3.02      0.00 
    3    3   20     21.10      0.00 
    5    3   20      4.75      0.00 
    7    3   20     -5.59      0.00 
    9    3   20     -1.21      0.00 
   11    3   20      0.34      0.00 
   13    3   20     -8.77      0.00 
   15    3   20      3.27      0.00 
    0    4   20      7.95      0.00 
    2    4   20     14.51      0.00 
    4    4   20     16.68      0.00 
    6    4   20     -5.75      0.00 
    8    4   20     -1.58      0.00 
   10    4   20     -7.46      0.00 
   12    4   20     -1.31      0.00 
   14    4   20      0.76      0.00 
   16    4   20      2.36      0.00 
    1    5   20      3.00      0.00 
    3    5   20      5.23      0.00 
    5    5   20     21.94      0.00 
    7    5   20    -20.70      0.00 
    9    5   20     -2.06      0.00 
   11    5   20     -0.64      0.00 
   13    5   20      0.02      0.00 
   15    5   20      4.39      0.00 
    0    6   20    -26.24      0.00 
    2    6   20    -10.45      0.00 
    4    6   20     -5.04      0.00 
    6    6   20    -14.83      0.00 
    8    6   20      1.94      0.00 
   10    6   20     -0.59      0.00 
   12    6   20      1.10      0.00 
   14    6   20     -3.03      0.00 
   16    6   20      0.51      0.00 
    1    7   20    -28.23      0.00 
    3    7   20    -12.02      0.00 
    5    7   20     -6.73      0.00 
    7    7   20    -16.61      0.00 
    9    7   20     -0.59      0.00 
   11    7   20     -0.12      0.00 
   13    7   20      1.44      0.00 
   15    7   20     -1.22      0.00 
    0    8   20     -1.66      0.00 
    2    8   20     -2.06      0.00 
    4    8   20      7.01      0.00 
    6    8   20    -19.92      0.00 
    8    8   20     -5.28      0.00 
   10    8   20     -6.30      0.00 
   12    8   20     -6.60      0.00 
   14    8   20     -5.61      0.00 
   16    8   20      3.01      0.00 
    1    9   20     15.92      0.00 
    3    9   20     17.85      0.00 
    5    9   20      3.82      0.00 
    7    9   20     10.13      0.00 
    9    9   20     -2.20      0.00 
   11    9   20     -3.52      0.00 
   13    9   20     -5.04      0.00 
   15    9   20      0.62      0.00 
    0   10   20     18.52      0.00 
    2   10   20     21.77      0.00 
    4   10   20     17.75      0.00 
    6   10   20      0.15      0.00 
    8   10   20     -3.12      0.00 
   10   10   20     -0.27      0.00 
   12   10   20     -3.26      0.00 
   14   10   20     -3.73      0.00 
    1   11   20     21.33      0.00 
    3   11   20     24.35      0.00 
    5   11   20      8.77      0.00 
    7   11   20     -0.43      0.00 
    9   11   20      0.39      0.00 
   11   11   20     -2.30      0.00 
   13   11   20      3.52      0.00 
   15   11   20      2.43      0.00 
    0   12   20     19.00      0.00 
    2   12   20     21.53      0.00 
    4   12   20     16.54      0.00 
    6   12   20      4.92      0.00 
    8   12   20     -0.20      0.00 
   10   12   20      1.99      0.00 
   12   12   20      2.02      0.00 
   14   12   20     -0.55      0.00 
    1   13   20      8.79      0.00 
    3   13   20      9.18      0.00 
    5   13   20     -2.10      0.00 
    7   13   20     -8.36      0.00 
    9   13   20      1.38      0.00 
   11   13   20     -0.50      0.00 
   13   13   20      2.50      0.00 
   15   13   20     -4.52      0.00 
    0   14   20     -2.54      0.00 
    2   14   20     -1.42      0.00 
    4   14   20     -2.38      0.00 
    6   14   20    -18.55      0.00 
    8   14   20    -10.49      0.00 
   10   14   20     -4.26      0.00 
   12   14   20     -0.76      0.00 
   14   14   20      5.39      0.00 
    1   15   20    -10.32      0.00 
    3   15   20    -10.88      0.00 
    5   15   20    -17.45      0.00 
    7   15   20    -17.05      0.00 
    9   15   20     -9.33      0.00 
   11   15   20     -6.13      0.00 
   13   15   20     -6.20      0.00 
    0   16   20     -6.16      0.00 
    2   16   20     -6.23      0.00 
    4   16   20    -11.04      0.00 
    6   16   20    -21.39      0.00 
    8   16   20    -12.99      0.00 
   10   16   20     -7.50      0.00 
   12   16   20     -3.81      0.00 
   14   16   20      2.75      0.00 
    1   17   20      3.90      0.00 
    3   17   20     -5.04      0.00 
    5   17   20    -11.71      0.00 
    7   17   20    -11.89      0.00 
    9   17   20     -6.55      0.00 
   11   17   20     -2.65      0.00 
   13   17   20     -0.58      0.00 
    0   18   20      3.43      0.00 
    2   18   20     11.84      0.00 
    4   18   20     -4.28      0.00 
    6   18   20     -4.61      0.00 
    8   18   20     -5.82      0.00 
   10   18   20      0.32      0.00 
   12   18   20     -0.58      0.00 
    1   19   20     13.55      0.00 
    3   19   20      7.54      0.00 
    5   19   20      0.24      0.00 
    7   19   20     -1.16      0.00 
    9   19   20      1.00      0.00 
   11   19   20      2.07      0.00 
    0   20   20     17.70      0.00 
    2   20   20     21.08      0.00 
    4   20   20      5.27      0.00 
    6   20   20      3.64      0.00 
    8   20   20      0.07      0.00 
   10   20   20      0.64      0.00 
   12   20   20     -0.45      0.00 
    1   21   20     23.18      0.00 
    3   21   20     10.83      0.00 
    5   21   20      1.60      0.00 
    7   21   20     -2.26      0.00 
    9   21   20     -1.49      0.00 
   11   21   20      0.88      0.00 
    0   22   20     21.71      0.00 
    2   22   20     14.25      0.00 
    4   22   20      0.80      0.00 
    6   22   20     -1.96      0.00 
    8   22   20     -6.26      0.00 
   10   22   20     -1.89      0.00 
    1   23   20     -0.17      0.00 
    3   23   20      4.80      0.00 
    5   23   20     -5.57      0.00 
    7   23   20     -4.72      0.00 
    9   23   20     -4.32      0.00 
    0   24   20      1.93      0.00 
    2   24   20     -6.34      0.00 
    4   24   20     -7.68      0.00 
    6   24   20    -12.13      0.00 
    8   24   20     -4.61      0.00 
   10   24   20      2.15      0.00 
    1   25   20     -8.35      0.00 
    3   25   20     -5.16      0.00 
    5   25   20     -9.10      0.00 
    7   25   20     -3.27      0.00 
    9   25   20     -1.30      0.00 
    0   26   20      5.83      0.00 
    2   26   20     -2.86      0.00 
    4   26   20     -7.34      0.00 
    6   26   20     -5.96      0.00 
    8   26   20     -2.59      0.00 
    1   27   20      3.97      0.00 
    3   27   20     -1.82      0.00 
    5   27   20     -7.19      0.00 
    7   27   20     -4.51      0.00 
    0   28   20      7.07      0.00 
    2   28   20      4.91      0.00 
    4   28   20     -1.57      0.00 
    1   29   20      7.59      0.00 
    3   29   20      3.16      0.00 
    2    1   21     -4.18      0.00 
    4    1   21      4.17      0.00 
    6    1   21     -3.15      0.00 
    8    1   21     -0.54      0.00 
   10    1   21     -3.99      0.00 
   12    1   21     -4.38      0.00 
   14    1   21     -0.77      0.00 
   16    1   21     -1.94      0.00 
    1    2   21     -0.35      0.00 
    3    2   21     -5.15      0.00 
    5    2   21      5.26      0.00 
    7    2   21     -9.40      0.00 
    9    2   21     -2.06      0.00 
   11    2   21     -6.00      0.00 
   13    2   21     -0.48      0.00 
   15    2   21      0.11      0.00 
    2    3   21     -6.89      0.00 
    4    3   21     -3.73      0.00 
    6    3   21     -5.47      0.00 
    8    3   21     -6.18      0.00 
   10    3   21     -2.04      0.00 
   12    3   21     -2.25      0.00 
   14    3   21     -1.28      0.00 
   16    3   21     -1.32      0.00 
    1    4   21     -7.98      0.00 
    3    4   21     -7.51      0.00 
    5    4   21     -8.92      0.00 
    7    4   21     -6.92      0.00 
    9    4   21     -3.83      0.00 
   11    4   21     -5.58      0.00 
   13    4   21     -1.55      0.00 
   15    4   21      0.06      0.00 
    2    5   21     -8.59      0.00 
    4    5   21      0.76      0.00 
    6    5   21      4.64      0.00 
    8    5   21     -6.58      0.00 
   10    5   21      4.62      0.00 
   12    5   21     -0.66      0.00 
   14    5   21      2.25      0.00 
   16    5   21     -0.89      0.00 
    1    6   21     -4.83      0.00 
    3    6   21     -1.74      0.00 
    5    6   21     -2.86      0.00 
    7    6   21      5.70      0.00 
    9    6   21     10.68      0.00 
   11    6   21      7.41      0.00 
   13    6   21      1.05      0.00 
   15    6   21      2.59      0.00 
    2    7   21     -8.02      0.00 
    4    7   21      0.30      0.00 
    6    7   21      3.80      0.00 
    8    7   21      6.13      0.00 
   10    7   21     -2.06      0.00 
   12    7   21      6.03      0.00 
   14    7   21      7.35      0.00 
    1    8   21     -7.61      0.00 
    3    8   21      2.37      0.00 
    5    8   21      2.40      0.00 
    7    8   21      2.56      0.00 
    9    8   21      6.30      0.00 
   11    8   21      5.80      0.00 
   13    8   21      2.15      0.00 
   15    8   21      2.02      0.00 
    2    9   21     -2.54      0.00 
    4    9   21      5.78      0.00 
    6    9   21      6.14      0.00 
    8    9   21      6.53      0.00 
   10    9   21      0.42      0.00 
   12    9   21      1.50      0.00 
   14    9   21      1.32      0.00 
    1   10   21     -3.33      0.00 
    3   10   21      0.82      0.00 
    5   10   21      0.54      0.00 
    7   10   21      7.11      0.00 
    9   10   21      0.32      0.00 
   11   10   21     -1.88      0.00 
   13   10   21      0.85      0.00 
   15   10   21      1.52      0.00 
    2   11   21     -4.58      0.00 
    4   11   21     11.92      0.00 
    6   11   21      2.52      0.00 
    8   11   21     -1.72      0.00 
   10   11   21      2.69      0.00 
   12   11   21      1.71      0.00 
   14   11   21      0.70      0.00 
    1   12   21     -5.36      0.00 
    3   12   21    -11.17      0.00 
    5   12   21    -13.84      0.00 
    7   12   21     -1.79      0.00 
    9   12   21      3.46      0.00 
   11   12   21     -2.14      0.00 
   13   12   21     -1.25      0.00 
    2   13   21    -13.04      0.00 
    4   13   21     -9.15      0.00 
    6   13   21    -15.23      0.00 
    8   13   21     -3.84      0.00 
   10   13   21     -1.03      0.00 
   12   13   21     -1.86      0.00 
   14   13   21      0.92      0.00 
    1   14   21     -5.67      0.00 
    3   14   21     -6.90      0.00 
    5   14   21     -3.40      0.00 
    7   14   21     -2.54      0.00 
    9   14   21     -2.61      0.00 
   11   14   21      4.53      0.00 
   13   14   21     -5.17      0.00 
    2   15   21     -5.14      0.00 
    4   15   21     -7.70      0.00 
    6   15   21     -0.96      0.00 
    8   15   21      1.45      0.00 
   10   15   21     -3.87      0.00 
   12   15   21      1.27      0.00 
    1   16   21     -4.17      0.00 
    3   16   21     -3.76      0.00 
    5   16   21     -7.68      0.00 
    7   16   21      1.96      0.00 
    9   16   21     -3.39      0.00 
   11   16   21      3.17      0.00 
   13   16   21     -9.27      0.00 
    2   17   21     -1.28      0.00 
    4   17   21     -0.05      0.00 
    6   17   21     -4.85      0.00 
    8   17   21      0.45      0.00 
   10   17   21      2.17      0.00 
   12   17   21      2.07      0.00 
    1   18   21      3.84      0.00 
    3   18   21     -0.19      0.00 
    5   18   21     -5.44      0.00 
    7   18   21     -0.10      0.00 
    9   18   21     -6.70      0.00 
   11   18   21      3.46      0.00 
    2   19   21     -2.18      0.00 
    4   19   21     -4.55      0.00 
    6   19   21     -2.23      0.00 
    8   19   21      4.30      0.00 
   10   19   21      1.72      0.00 
   12   19   21     -9.36      0.00 
    1   20   21     -0.29      0.00 
    3   20   21     -2.22      0.00 
    5   20   21     -5.43      0.00 
    7   20   21     -0.73      0.00 
    9   20   21     -2.22      0.00 
   11   20   21     -0.44      0.00 
    2   21   21     -3.39      0.00 
    4   21   21     -5.19      0.00 
    6   21   21     -0.83      0.00 
    8   21   21     -1.15      0.00 
   10   21   21     -0.59      0.00 
    1   22   21     -0.18      0.00 
    3   22   21     -1.34      0.00 
    5   22   21     -1.56      0.00 
    7   22   21     -0.58      0.00 
    9   22   21      0.46      0.00 
    2   23   21      3.07      0.00 
    4   23   21     13.00      0.00 
    6   23   21      1.39      0.00 
    8   23   21     -2.64      0.00 
    1   24   21      1.09      0.00 
    3   24   21      0.15      0.00 
    5   24   21     -5.91      0.00 
    7   24   21      7.22      0.00 
    9   24   21      5.60      0.00 
    2   25   21     -4.50      0.00 
    4   25   21     -1.06      0.00 
    6   25   21     -6.39      0.00 
    8   25   21     -1.24      0.00 
    1   26   21     -2.88      0.00 
    3   26   21     -3.96      0.00 
    5   26   21      2.14      0.00 
    7   26   21      7.66      0.00 
    2   27   21      1.31      0.00 
    4   27   21      1.82      0.00 
    1   28   21     -5.00      0.00 
    3   28   21     -8.06      0.00 
    0    0   22     15.57      0.00 
    2    0   22      5.12      0.00 
    4    0   22      5.51      0.00 
    6    0   22     14.49      0.00 
    8    0   22      2.61      0.00 
   10    0   22     -6.15      0.00 
   12    0   22     -6.74      0.00 
   14    0   22     10.00      0.00 
    1    1   22     -7.60      0.00 
    3    1   22     -6.26      0.00 
    5    1   22      5.12      0.00 
    7    1   22      7.60      0.00 
    9    1   22     -2.48      0.00 
   11    1   22     -2.67      0.00 
   13    1   22      3.79      0.00 
   15    1   22      4.64      0.00 
    0    2   22    -27.22      0.00 
    2    2   22    -27.36      0.00 
    4    2   22     -6.37      0.00 
    6    2   22      4.35      0.00 
    8    2   22      4.42      0.00 
   10    2   22     -2.58      0.00 
   12    2   22      0.04      0.00 
   14    2   22      2.69      0.00 
    1    3   22    -22.13      0.00 
    3    3   22     -7.37      0.00 
    5    3   22    -10.36      0.00 
    7    3   22     10.41      0.00 
    9    3   22     -0.81      0.00 
   11    3   22     -4.79      0.00 
   13    3   22      3.51      0.00 
   15    3   22      3.23      0.00 
    0    4   22     -8.00      0.00 
    2    4   22    -10.75      0.00 
    4    4   22     -9.36      0.00 
    6    4   22      3.82      0.00 
    8    4   22      4.69      0.00 
   10    4   22    -12.41      0.00 
   12    4   22     -2.55      0.00 
   14    4   22     -2.09      0.00 
    1    5   22      1.40      0.00 
    3    5   22    -10.52      0.00 
    5    5   22      4.75      0.00 
    7    5   22      0.70      0.00 
    9    5   22     -2.34      0.00 
   11    5   22    -10.41      0.00 
   13    5   22      0.23      0.00 
   15    5   22     -2.45      0.00 
    0    6   22      3.89      0.00 
    2    6   22      3.26      0.00 
    4    6   22      1.17      0.00 
    6    6   22     14.25      0.00 
    8    6   22      9.24      0.00 
   10    6   22     -6.71      0.00 
   12    6   22     -4.99      0.00 
   14    6   22      0.98      0.00 
    1    7   22      5.65      0.00 
    3    7   22      2.81      0.00 
    5    7   22     11.00      0.00 
    7    7   22      7.63      0.00 
    9    7   22     -3.64      0.00 
   11    7   22     -6.09      0.00 
   13    7   22      1.31      0.00 
   15    7   22     -5.52      0.00 
    0    8   22      9.19      0.00 
    2    8   22     -0.28      0.00 
    4    8   22     10.78      0.00 
    6    8   22      7.18      0.00 
    8    8   22     -0.27      0.00 
   10    8   22     -2.17      0.00 
   12    8   22     -1.48      0.00 
   14    8   22      5.99      0.00 
    1    9   22     -3.92      0.00 
    3    9   22     -2.75      0.00 
    5    9   22      4.59      0.00 
    7    9   22     11.66      0.00 
    9    9   22     -2.25      0.00 
   11    9   22      1.12      0.00 
   13    9   22      0.09      0.00 
    0   10   22    -24.58      0.00 
    2   10   22    -26.29      0.00 
    4   10   22    -13.20      0.00 
    6   10   22     -0.50      0.00 
    8   10   22      1.13      0.00 
   10   10   22     -3.12      0.00 
   12   10   22      1.24      0.00 
   14   10   22      1.33      0.00 
    1   11   22    -34.41      0.00 
    3   11   22    -26.28      0.00 
    5   11   22     -9.00      0.00 
    7   11   22     -4.59      0.00 
    9   11   22     -0.43      0.00 
   11   11   22     -4.54      0.00 
   13   11   22     -1.45      0.00 
    0   12   22    -20.76      0.00 
    2   12   22    -22.55      0.00 
    4   12   22     -9.55      0.00 
    6   12   22      5.08      0.00 
    8   12   22      6.52      0.00 
   10   12   22     -7.22      0.00 
   12   12   22     -0.89      0.00 
   14   12   22     -4.64      0.00 
    1   13   22    -12.87      0.00 
    3   13   22     -8.73      0.00 
    5   13   22      1.30      0.00 
    7   13   22     -1.26      0.00 
    9   13   22     -1.87      0.00 
   11   13   22     -7.49      0.00 
   13   13   22      1.83      0.00 
    0   14   22     -0.88      0.00 
    2   14   22     -8.30      0.00 
    4   14   22      5.40      0.00 
    6   14   22      7.74      0.00 
    8   14   22      8.69      0.00 
   10   14   22     -4.90      0.00 
   12   14   22     -2.74      0.00 
    1   15   22     -0.32      0.00 
    3   15   22      2.34      0.00 
    5   15   22     11.84      0.00 
    7   15   22     10.51      0.00 
    9   15   22      3.65      0.00 
   11   15   22     -1.36      0.00 
   13   15   22      5.16      0.00 
    0   16   22      2.73      0.00 
    2   16   22     -1.21      0.00 
    4   16   22     13.49      0.00 
    6   16   22     12.16      0.00 
    8   16   22      6.52      0.00 
   10   16   22      0.26      0.00 
   12   16   22     -6.19      0.00 
    1   17   22      2.86      0.00 
    3   17   22      2.97      0.00 
    5   17   22     14.33      0.00 
    7   17   22     13.27      0.00 
    9   17   22      2.68      0.00 
   11   17   22     -5.48      0.00 
    0   18   22     -5.69      0.00 
    2   18   22     -1.26      0.00 
    4   18   22      4.58      0.00 
    6   18   22      8.24      0.00 
    8   18   22      1.29      0.00 
   10   18   22     -1.90      0.00 
   12   18   22     -6.29      0.00 
    1   19   22    -14.57      0.00 
    3   19   22     -7.20      0.00 
    5   19   22      6.34      0.00 
    7   19   22      5.20      0.00 
    9   19   22      0.59      0.00 
   11   19   22     -9.14      0.00 
    0   20   22    -17.58      0.00 
    2   20   22    -14.79      0.00 
    4   20   22     -6.28      0.00 
    6   20   22      0.46      0.00 
    8   20   22      0.71      0.00 
   10   20   22     -2.57      0.00 
    1   21   22    -12.41      0.00 
    3   21   22     -8.95      0.00 
    5   21   22      2.96      0.00 
    7   21   22     -0.78      0.00 
    9   21   22      5.04      0.00 
    0   22   22    -13.29      0.00 
    2   22   22    -13.08      0.00 
    4   22   22     -0.39      0.00 
    6   22   22      3.16      0.00 
    8   22   22     -0.56      0.00 
    1   23   22     -8.37      0.00 
    3   23   22     -2.19      0.00 
    5   23   22      4.62      0.00 
    7   23   22      9.19      0.00 
    0   24   22     -1.01      0.00 
    2   24   22     -2.35      0.00 
    4   24   22      9.24      0.00 
    6   24   22      2.53      0.00 
    8   24   22      0.93      0.00 
    1   25   22      3.55      0.00 
    3   25   22     -3.48      0.00 
    5   25   22     -2.61      0.00 
    0   26   22     -0.81      0.00 
    2   26   22      4.00      0.00 
    4   26   22     14.25      0.00 
    1   27   22      7.38      0.00 
    3   27   22      0.22      0.00 
    2    1   23      1.54      0.00 
    4    1   23      3.81      0.00 
    6    1   23     -6.87      0.00 
    8    1   23     -1.88      0.00 
   10    1   23     -3.25      0.00 
   12    1   23     -2.73      0.00 
   14    1   23      1.14      0.00 
    1    2   23      3.29      0.00 
    3    2   23     -3.37      0.00 
    5    2   23      1.46      0.00 
    7    2   23     -3.71      0.00 
    9    2   23      5.74      0.00 
   11    2   23     -4.21      0.00 
   13    2   23     -2.02      0.00 
   15    2   23     -1.89      0.00 
    2    3   23      5.57      0.00 
    4    3   23     -1.97      0.00 
    6    3   23     -5.45      0.00 
    8    3   23      0.76      0.00 
   10    3   23      1.10      0.00 
   12    3   23      2.61      0.00 
   14    3   23      3.07      0.00 
    1    4   23      6.86      0.00 
    3    4   23      2.64      0.00 
    5    4   23     -0.35      0.00 
    7    4   23      0.74      0.00 
    9    4   23     -2.12      0.00 
   11    4   23     -4.66      0.00 
   13    4   23      2.06      0.00 
   15    4   23      2.09      0.00 
    2    5   23     14.58      0.00 
    4    5   23      6.82      0.00 
    6    5   23      6.13      0.00 
    8    5   23     -0.26      0.00 
   10    5   23      2.02      0.00 
   12    5   23     -2.36      0.00 
   14    5   23     -3.76      0.00 
    1    6   23     13.45      0.00 
    3    6   23     16.99      0.00 
    5    6   23      5.20      0.00 
    7    6   23      1.19      0.00 
    9    6   23     -8.62      0.00 
   11    6   23      1.05      0.00 
   13    6   23      0.59      0.00 
    2    7   23     14.63      0.00 
    4    7   23      2.35      0.00 
    6    7   23      3.14      0.00 
    8    7   23      4.00      0.00 
   10    7   23     -2.70      0.00 
   12    7   23     -4.14      0.00 
   14    7   23    -10.16      0.00 
    1    8   23      7.37      0.00 
    3    8   23     10.47      0.00 
    5    8   23      3.43      0.00 
    7    8   23     -6.15      0.00 
    9    8   23      2.16      0.00 
   11    8   23      1.14      0.00 
   13    8   23     -0.49      0.00 
    2    9   23     15.68      0.00 
    4    9   23      4.69      0.00 
    6    9   23      0.94      0.00 
    8    9   23     -2.47      0.00 
   10    9   23     -2.77      0.00 
   12    9   23     -1.97      0.00 
   14    9   23     -3.07      0.00 
    1   10   23     10.57      0.00 
    3   10   23      9.12      0.00 
    5   10   23      0.06      0.00 
    7   10   23     -1.32      0.00 
    9   10   23     -3.70      0.00 
   11   10   23     -6.38      0.00 
   13   10   23     -0.75      0.00 
    2   11   23     11.76      0.00 
    4   11   23     11.80      0.00 
    6   11   23      1.33      0.00 
    8   11   23     -4.62      0.00 
   10   11   23     -2.80      0.00 
   12   11   23     -4.62      0.00 
    1   12   23      7.04      0.00 
    3   12   23      5.72      0.00 
    5   12   23     -5.40      0.00 
    7   12   23     -2.89      0.00 
    9   12   23     -4.86      0.00 
   11   12   23      0.01      0.00 
   13   12   23      1.43      0.00 
    2   13   23     14.27      0.00 
    4   13   23     13.98      0.00 
    6   13   23     -1.82      0.00 
    8   13   23     -6.07      0.00 
   10   13   23     -0.70      0.00 
   12   13   23     -9.26      0.00 
    1   14   23     10.82      0.00 
    3   14   23     18.56      0.00 
    5   14   23     11.35      0.00 
    7   14   23     -3.29      0.00 
    9   14   23     -7.73      0.00 
   11   14   23      1.36      0.00 
    2   15   23     13.78      0.00 
    4   15   23      6.67      0.00 
    6   15   23      5.40      0.00 
    8   15   23     -4.34      0.00 
   10   15   23     -1.52      0.00 
   12   15   23     -5.31      0.00 
    1   16   23      4.60      0.00 
    3   16   23     10.21      0.00 
    5   16   23     -0.77      0.00 
    7   16   23     -2.39      0.00 
    9   16   23      1.23      0.00 
   11   16   23     -9.67      0.00 
    2   17   23      8.43      0.00 
    4   17   23      9.18      0.00 
    6   17   23     -0.04      0.00 
    8   17   23     -2.21      0.00 
   10   17   23      2.23      0.00 
    1   18   23      4.59      0.00 
    3   18   23     12.94      0.00 
    5   18   23     11.79      0.00 
    7   18   23      0.99      0.00 
    9   18   23     -1.52      0.00 
   11   18   23     -8.25      0.00 
    2   19   23     10.98      0.00 
    4   19   23     14.68      0.00 
    6   19   23      1.89      0.00 
    8   19   23      0.37      0.00 
   10   19   23      0.03      0.00 
    1   20   23      4.71      0.00 
    3   20   23     15.74      0.00 
    5   20   23      5.79      0.00 
    7   20   23      2.22      0.00 
    9   20   23     -0.28      0.00 
    2   21   23      6.40      0.00 
    4   21   23      5.53      0.00 
    6   21   23     -1.86      0.00 
    8   21   23     -2.55      0.00 
    1   22   23      0.35      0.00 
    3   22   23      7.53      0.00 
    5   22   23     -0.49      0.00 
    7   22   23      0.03      0.00 
    2   23   23      3.32      0.00 
    4   23   23      4.67      0.00 
    6   23   23    -12.08      0.00 
    1   24   23     -4.10      0.00 
    3   24   23     -1.91      0.00 
    5   24   23     -3.80      0.00 
    2   25   23      8.88      0.00 
    4   25   23      4.24      0.00 
    1   26   23      0.11      0.00 
    3   26   23      5.88      0.00 
    0    0   24     10.27      0.00 
    2    0   24     -4.14      0.00 
    4    0   24     -9.16      0.00 
    6    0   24      0.80      0.00 
    8    0   24     -6.64      0.00 
   10    0   24      7.91      0.00 
   12    0   24     -0.18      0.00 
   14    0   24      3.06      0.00 
    1    1   24    -13.40      0.00 
    3    1   24     -5.08      0.00 
    5    1   24     -4.10      0.00 
    7    1   24      2.44      0.00 
    9    1   24      2.08      0.00 
   11    1   24      2.82      0.00 
   13    1   24     -4.21      0.00 
    0    2   24     -2.96      0.00 
    2    2   24     -3.72      0.00 
    4    2   24     -1.08      0.00 
    6    2   24      3.15      0.00 
    8    2   24      0.24      0.00 
   10    2   24     11.24      0.00 
   12    2   24      1.25      0.00 
   14    2   24     -3.95      0.00 
    1    3   24      9.35      0.00 
    3    3   24     14.69      0.00 
    5    3   24      5.26      0.00 
    7    3   24      2.71      0.00 
    9    3   24      6.24      0.00 
   11    3   24      5.13      0.00 
   13    3   24      3.89      0.00 
    0    4   24     14.34      0.00 
    2    4   24     19.67      0.00 
    4    4   24     10.78      0.00 
    6    4   24      8.16      0.00 
    8    4   24      4.46      0.00 
   10    4   24      7.49      0.00 
   12    4   24      1.69      0.00 
   14    4   24      1.02      0.00 
    1    5   24      7.01      0.00 
    3    5   24     11.59      0.00 
    5    5   24     12.93      0.00 
    7    5   24     -2.45      0.00 
    9    5   24     11.36      0.00 
   11    5   24     10.28      0.00 
   13    5   24      3.02      0.00 
    0    6   24    -18.50      0.00 
    2    6   24     -6.12      0.00 
    4    6   24     -2.98      0.00 
    6    6   24      4.24      0.00 
    8    6   24      6.18      0.00 
   10    6   24      9.78      0.00 
   12    6   24     -2.15      0.00 
    1    7   24    -17.72      0.00 
    3    7   24     -7.44      0.00 
    5    7   24     -3.24      0.00 
    7    7   24     -0.23      0.00 
    9    7   24      5.35      0.00 
   11    7   24      6.45      0.00 
   13    7   24     -1.38      0.00 
    0    8   24    -11.24      0.00 
    2    8   24     -7.68      0.00 
    4    8   24     -5.36      0.00 
    6    8   24     -4.77      0.00 
    8    8   24     -0.34      0.00 
   10    8   24      7.28      0.00 
   12    8   24      0.29      0.00 
    1    9   24     -8.27      0.00 
    3    9   24     -2.01      0.00 
    5    9   24     -5.76      0.00 
    7    9   24      2.90      0.00 
    9    9   24     -0.33      0.00 
   11    9   24      4.03      0.00 
   13    9   24      0.69      0.00 
    0   10   24      0.10      0.00 
    2   10   24     -3.98      0.00 
    4   10   24      1.61      0.00 
    6   10   24      1.10      0.00 
    8   10   24     -2.80      0.00 
   10   10   24      4.08      0.00 
   12   10   24      1.82      0.00 
    1   11   24      4.29      0.00 
    3   11   24      7.41      0.00 
    5   11   24      2.70      0.00 
    7   11   24      5.60      0.00 
    9   11   24      5.92      0.00 
   11   11   24      2.26      0.00 
   13   11   24      3.57      0.00 
    0   12   24     13.08      0.00 
    2   12   24      8.22      0.00 
    4   12   24      8.93      0.00 
    6   12   24      1.93      0.00 
    8   12   24     -3.83      0.00 
   10   12   24      8.11      0.00 
   12   12   24      4.98      0.00 
    1   13   24      6.05      0.00 
    3   13   24      7.41      0.00 
    5   13   24      8.47      0.00 
    7   13   24      1.06      0.00 
    9   13   24      7.86      0.00 
   11   13   24      0.59      0.00 
    0   14   24      5.59      0.00 
    2   14   24      0.31      0.00 
    4   14   24      6.45      0.00 
    6   14   24      1.63      0.00 
    8   14   24      2.65      0.00 
   10   14   24      3.58      0.00 
   12   14   24      0.91      0.00 
    1   15   24    -10.71      0.00 
    3   15   24     -0.45      0.00 
    5   15   24      3.39      0.00 
    7   15   24      1.30      0.00 
    9   15   24     12.00      0.00 
   11   15   24      4.87      0.00 
    0   16   24      2.77      0.00 
    2   16   24     -3.47      0.00 
    4   16   24      5.03      0.00 
    6   16   24     -3.96      0.00 
    8   16   24      2.73      0.00 
   10   16   24      6.31      0.00 
    1   17   24     -0.21      0.00 
    3   17   24      4.63      0.00 
    5   17   24     -2.07      0.00 
    7   17   24     -4.46      0.00 
    9   17   24      0.83      0.00 
    0   18   24     -7.03      0.00 
    2   18   24     -1.62      0.00 
    4   18   24      0.23      0.00 
    6   18   24     -8.61      0.00 
    8   18   24      2.94      0.00 
   10   18   24      4.70      0.00 
    1   19   24     -5.43      0.00 
    3   19   24      0.12      0.00 
    5   19   24      3.07      0.00 
    7   19   24     -3.47      0.00 
    9   19   24      2.33      0.00 
    0   20   24     -2.97      0.00 
    2   20   24     -4.19      0.00 
    4   20   24     -5.37      0.00 
    6   20   24     -4.33      0.00 
    8   20   24      3.17      0.00 
    1   21   24     -0.06      0.00 
    3   21   24     -0.11      0.00 
    5   21   24      2.13      0.00 
    7   21   24     -9.22      0.00 
    0   22   24      4.76      0.00 
    2   22   24      1.03      0.00 
    4   22   24      3.01      0.00 
    6   22   24     -0.10      0.00 
    1   23   24     -4.71      0.00 
    3   23   24      3.82      0.00 
    5   23   24     -1.64      0.00 
    0   24   24      3.39      0.00 
    2   24   24      0.15      0.00 
    4   24   24      8.44      0.00 
    1   25   24     -4.02      0.00 
    3   25   24      0.53      0.00 
    2    1   25      3.02      0.00 
    4    1   25     10.13      0.00 
    6    1   25      4.23      0.00 
    8    1   25     -0.08      0.00 
   10    1   25      1.35      0.00 
   12    1   25      2.49      0.00 
    1    2   25     -3.42      0.00 
    3    2   25     -0.77      0.00 
    5    2   25     10.08      0.00 
    7    2   25      3.13      0.00 
    9    2   25      5.35      0.00 
   11    2   25      3.47      0.00 
   13    2   25     -0.14      0.00 
    2    3   25     -5.88      0.00 
    4    3   25      0.22      0.00 
    6    3   25      1.95      0.00 
    8    3   25      0.95      0.00 
   10    3   25      3.53      0.00 
   12    3   25      1.73      0.00 
    1    4   25     -3.69      0.00 
    3    4   25     -7.14      0.00 
    5    4   25      2.31      0.00 
    7    4   25     -0.62      0.00 
    9    4   25     -0.10      0.00 
   11    4   25     -0.46      0.00 
   13    4   25     -3.06      0.00 
    2    5   25     -9.83      0.00 
    4    5   25      0.52      0.00 
    6    5   25      0.64      0.00 
    8    5   25      4.03      0.00 
   10    5   25      7.19      0.00 
   12    5   25     -0.68      0.00 
    1    6   25     -3.52      0.00 
    3    6   25     -8.72      0.00 
    5    6   25     -1.48      0.00 
    7    6   25     -0.16      0.00 
    9    6   25     -9.84      0.00 
   11    6   25     -0.70      0.00 
   13    6   25      2.82      0.00 
    2    7   25    -14.76      0.00 
    4    7   25     -7.84      0.00 
    6    7   25     -5.00      0.00 
    8    7   25      3.62      0.00 
   10    7   25     -0.17      0.00 
   12    7   25     -4.43      0.00 
    1    8   25     -8.07      0.00 
    3    8   25    -22.73      0.00 
    5    8   25     -4.63      0.00 
    7    8   25     -4.07      0.00 
    9    8   25      2.87      0.00 
   11    8   25     -0.34      0.00 
   13    8   25      4.81      0.00 
    2    9   25     -9.21      0.00 
    4    9   25     -2.97      0.00 
    6    9   25     -0.88      0.00 
    8    9   25     -0.99      0.00 
   10    9   25      0.45      0.00 
   12    9   25      0.63      0.00 
    1   10   25     -3.22      0.00 
    3   10   25     -6.56      0.00 
    5   10   25      8.42      0.00 
    7   10   25      2.96      0.00 
    9   10   25      3.09      0.00 
   11   10   25     -4.09      0.00 
    2   11   25    -12.06      0.00 
    4   11   25     -9.97      0.00 
    6   11   25     -0.32      0.00 
    8   11   25      4.09      0.00 
   10   11   25      1.40      0.00 
   12   11   25      7.42      0.00 
    1   12   25    -11.13      0.00 
    3   12   25    -10.69      0.00 
    5   12   25     -2.69      0.00 
    7   12   25      1.83      0.00 
    9   12   25      8.58      0.00 
   11   12   25     -1.62      0.00 
    2   13   25     -9.67      0.00 
    4   13   25     -5.74      0.00 
    6   13   25     -0.52      0.00 
    8   13   25      8.94      0.00 
   10   13   25      2.01      0.00 
    1   14   25     -7.23      0.00 
    3   14   25     -9.76      0.00 
    5   14   25      4.53      0.00 
    7   14   25      5.88      0.00 
    9   14   25      6.58      0.00 
   11   14   25     -1.29      0.00 
    2   15   25     -8.91      0.00 
    4   15   25     -5.14      0.00 
    6   15   25      9.11      0.00 
    8   15   25      9.97      0.00 
   10   15   25     -1.54      0.00 
    1   16   25     -4.22      0.00 
    3   16   25     -6.85      0.00 
    5   16   25     -3.38      0.00 
    7   16   25      0.73      0.00 
    9   16   25     10.28      0.00 
    2   17   25     -4.51      0.00 
    4   17   25     -4.70      0.00 
    6   17   25      2.13      0.00 
    8   17   25      6.18      0.00 
    1   18   25     -3.05      0.00 
    3   18   25     -8.94      0.00 
    5   18   25     -2.06      0.00 
    7   18   25      2.95      0.00 
    9   18   25      0.37      0.00 
    2   19   25     -8.47      0.00 
    4   19   25     -9.43      0.00 
    6   19   25     -0.30      0.00 
    8   19   25      5.56      0.00 
    1   20   25     -7.80      0.00 
    3   20   25    -12.96      0.00 
    5   20   25     -8.31      0.00 
    7   20   25      6.80      0.00 
    2   21   25     -6.98      0.00 
    4   21   25     -7.41      0.00 
    6   21   25      6.33      0.00 
    1   22   25     -7.31      0.00 
    3   22   25     -0.51      0.00 
    5   22   25      2.23      0.00 
    2   23   25     -0.92      0.00 
    4   23   25     -0.64      0.00 
    1   24   25     -3.55      0.00 
    0    0   26     40.64      0.00 
    2    0   26     27.47      0.00 
    4    0   26      9.29      0.00 
    6    0   26     -2.31      0.00 
    8    0   26     -6.26      0.00 
   10    0   26      4.15      0.00 
   12    0   26     -2.29      0.00 
    1    1   26     22.02      0.00 
    3    1   26     11.67      0.00 
    5    1   26      0.14      0.00 
    7    1   26     -5.12      0.00 
    9    1   26     -2.28      0.00 
   11    1   26      6.97      0.00 
   13    1   26     -1.85      0.00 
    0    2   26     -0.49      0.00 
    2    2   26      3.30      0.00 
    4    2   26     -2.84      0.00 
    6    2   26     -5.44      0.00 
    8    2   26     -2.35      0.00 
   10    2   26      3.31      0.00 
   12    2   26     -3.19      0.00 
    1    3   26     -0.09      0.00 
    3    3   26     -7.16      0.00 
    5    3   26    -10.97      0.00 
    7    3   26     -9.35      0.00 
    9    3   26     -1.04      0.00 
   11    3   26     -2.36      0.00 
    0    4   26     -0.81      0.00 
    2    4   26      0.02      0.00 
    4    4   26    -16.79      0.00 
    6    4   26    -11.82      0.00 
    8    4   26     -6.28      0.00 
   10    4   26     -2.60      0.00 
   12    4   26     -1.25      0.00 
    1    5   26     -0.23      0.00 
    3    5   26     -7.84      0.00 
    5    5   26    -11.90      0.00 
    7    5   26    -11.21      0.00 
    9    5   26     -1.24      0.00 
   11    5   26     -2.62      0.00 
    0    6   26      6.66      0.00 
    2    6   26      2.06      0.00 
    4    6   26     -9.50      0.00 
    6    6   26     -7.70      0.00 
    8    6   26     -7.53      0.00 
   10    6   26      0.73      0.00 
   12    6   26     -0.65      0.00 
    1    7   26     15.62      0.00 
    3    7   26      1.57      0.00 
    5    7   26     -4.80      0.00 
    7    7   26     -5.91      0.00 
    9    7   26     -0.94      0.00 
   11    7   26      2.89      0.00 
    0    8   26     23.84      0.00 
    2    8   26     19.08      0.00 
    4    8   26      5.29      0.00 
    6    8   26     -1.76      0.00 
    8    8   26     -4.68      0.00 
   10    8   26      3.29      0.00 
   12    8   26      0.97      0.00 
    1    9   26     22.99      0.00 
    3    9   26     12.17      0.00 
    5    9   26     -1.54      0.00 
    7    9   26     -4.78      0.00 
    9    9   26      0.45      0.00 
   11    9   26     -0.88      0.00 
    0   10   26     23.52      0.00 
    2   10   26     12.20      0.00 
    4   10   26      2.58      0.00 
    6   10   26      0.44      0.00 
    8   10   26     -0.78      0.00 
   10   10   26      1.71      0.00 
    1   11   26      5.21      0.00 
    3   11   26      2.65      0.00 
    5   11   26     -2.86      0.00 
    7   11   26     -2.76      0.00 
    9   11   26      2.32      0.00 
   11   11   26     -2.98      0.00 
    0   12   26      6.42      0.00 
    2   12   26      4.59      0.00 
    4   12   26     -2.83      0.00 
    6   12   26     -9.79      0.00 
    8   12   26     -0.58      0.00 
   10   12   26      2.06      0.00 
    1   13   26     11.42      0.00 
    3   13   26     -2.04      0.00 
    5   13   26     -5.63      0.00 
    7   13   26    -10.35      0.00 
    9   13   26     -1.78      0.00 
    0   14   26      5.62      0.00 
    2   14   26      1.31      0.00 
    4   14   26     -4.71      0.00 
    6   14   26    -14.11      0.00 
    8   14   26     -0.93      0.00 
   10   14   26     -5.80      0.00 
    1   15   26     11.00      0.00 
    3   15   26     -4.31      0.00 
    5   15   26    -12.86      0.00 
    7   15   26    -10.32      0.00 
    9   15   26     -1.60      0.00 
    0   16   26      9.59      0.00 
    2   16   26     -5.98      0.00 
    4   16   26     -8.30      0.00 
    6   16   26    -13.12      0.00 
    8   16   26      1.22      0.00 
    1   17   26      6.63      0.00 
    3   17   26     -5.57      0.00 
    5   17   26     -7.89      0.00 
    7   17   26     -6.77      0.00 
    0   18   26     11.58      0.00 
    2   18   26      1.36      0.00 
    4   18   26     -4.32      0.00 
    6   18   26     -7.02      0.00 
    8   18   26     11.69      0.00 
    1   19   26     12.83      0.00 
    3   19   26      3.06      0.00 
    5   19   26     -0.07      0.00 
    7   19   26      1.80      0.00 
    0   20   26     20.57      0.00 
    2   20   26      6.89      0.00 
    4   20   26     -1.96      0.00 
    6   20   26     -3.75      0.00 
    1   21   26     15.53      0.00 
    3   21   26      3.61      0.00 
    5   21   26      1.27      0.00 
    0   22   26     16.45      0.00 
    2   22   26      8.95      0.00 
    4   22   26      4.84      0.00 
    1   23   26      3.68      0.00 
    2    1   27     -0.05      0.00 
    4    1   27      5.43      0.00 
    6    1   27     -3.79      0.00 
    8    1   27      1.50      0.00 
   10    1   27     -0.67      0.00 
   12    1   27     -4.26      0.00 
    1    2   27      3.88      0.00 
    3    2   27     -3.21      0.00 
    5    2   27     -3.37      0.00 
    7    2   27     -4.65      0.00 
    9    2   27      2.95      0.00 
   11    2   27     -1.49      0.00 
    2    3   27     -3.08      0.00 
    4    3   27     -2.58      0.00 
    6    3   27     -4.41      0.00 
    8    3   27     -0.42      0.00 
   10    3   27     -2.06      0.00 
   12    3   27     -3.39      0.00 
    1    4   27      1.65      0.00 
    3    4   27     -0.42      0.00 
    5    4   27     -3.66      0.00 
    7    4   27     -3.73      0.00 
    9    4   27      3.16      0.00 
   11    4   27     -3.68      0.00 
    2    5   27      4.18      0.00 
    4    5   27     -3.35      0.00 
    6    5   27      0.99      0.00 
    8    5   27      1.78      0.00 
   10    5   27      2.68      0.00 
    1    6   27      3.49      0.00 
    3    6   27      6.29      0.00 
    5    6   27     -1.51      0.00 
    7    6   27      3.51      0.00 
    9    6   27     -0.36      0.00 
   11    6   27     -1.31      0.00 
    2    7   27      3.09      0.00 
    4    7   27     -5.38      0.00 
    6    7   27     -3.73      0.00 
    8    7   27     -0.08      0.00 
   10    7   27     -4.38      0.00 
    1    8   27      5.14      0.00 
    3    8   27     -0.13      0.00 
    5    8   27     -3.70      0.00 
    7    8   27     -0.56      0.00 
    9    8   27      4.43      0.00 
   11    8   27      4.06      0.00 
    2    9   27      3.79      0.00 
    4    9   27      3.26      0.00 
    6    9   27      1.89      0.00 
    8    9   27      0.96      0.00 
   10    9   27      3.93      0.00 
    1   10   27      2.96      0.00 
    3   10   27      3.13      0.00 
    5   10   27      0.40      0.00 
    7   10   27      0.55      0.00 
    9   10   27     -0.36      0.00 
    2   11   27      2.79      0.00 
    4   11   27     -1.16      0.00 
    6   11   27     -2.35      0.00 
    8   11   27      0.77      0.00 
   10   11   27      2.45      0.00 
    1   12   27     -3.39      0.00 
    3   12   27     -0.37      0.00 
    5   12   27     -3.30      0.00 
    7   12   27      0.18      0.00 
    9   12   27      2.07      0.00 
    2   13   27      3.67      0.00 
    4   13   27      8.82      0.00 
    6   13   27     -4.66      0.00 
    8   13   27     -1.41      0.00 
    1   14   27      0.51      0.00 
    3   14   27     -2.75      0.00 
    5   14   27     -2.81      0.00 
    7   14   27     -3.07      0.00 
    9   14   27     -8.22      0.00 
    2   15   27     -2.61      0.00 
    4   15   27     -4.43      0.00 
    6   15   27     -4.64      0.00 
    8   15   27     -6.63      0.00 
    1   16   27     -1.62      0.00 
    3   16   27     -5.08      0.00 
    5   16   27     -6.08      0.00 
    7   16   27    -11.07      0.00 
    2   17   27     -5.12      0.00 
    4   17   27     -5.45      0.00 
    6   17   27     -6.26      0.00 
    1   18   27     -0.37      0.00 
    3   18   27     -3.45      0.00 
    5   18   27     -0.29      0.00 
    2   19   27     -0.23      0.00 
    4   19   27      3.44      0.00 
    1   20   27     -0.83      0.00 
    3   20   27      2.79      0.00 
    2   21   27      7.59      0.00 
    0    0   28    -18.90      0.00 
    2    0   28    -13.48      0.00 
    4    0   28     -4.58      0.00 
    6    0   28      4.81      0.00 
    8    0   28     -8.72      0.00 
   10    0   28     -6.92      0.00 
    1    1   28     -9.57      0.00 
    3    1   28    -10.49      0.00 
    5    1   28     -4.91      0.00 
    7    1   28      7.12      0.00 
    9    1   28     -6.86      0.00 
   11    1   28    -10.19      0.00 
    0    2   28     -9.97      0.00 
    2    2   28     -5.36      0.00 
    4    2   28     -1.92      0.00 
    6    2   28      3.74      0.00 
    8    2   28     -6.26      0.00 
   10    2   28     -5.87      0.00 
    1    3   28      1.12      0.00 
    3    3   28     10.55      0.00 
    5    3   28      4.83      0.00 
    7    3   28      0.72      0.00 
    9    3   28     -1.49      0.00 
   11    3   28     -6.90      0.00 
    0    4   28     17.78      0.00 
    2    4   28     12.47      0.00 
    4    4   28      2.63      0.00 
    6    4   28      6.89      0.00 
    8    4   28     -3.84      0.00 
   10    4   28     -5.17      0.00 
    1    5   28    -17.52      0.00 
    3    5   28      7.26      0.00 
    5    5   28      4.53      0.00 
    7    5   28      2.45      0.00 
    9    5   28     -3.00      0.00 
    0    6   28     10.90      0.00 
    2    6   28      8.14      0.00 
    4    6   28      3.49      0.00 
    6    6   28      1.83      0.00 
    8    6   28     -0.60      0.00 
   10    6   28     -4.10      0.00 
    1    7   28     -6.13      0.00 
    3    7   28     -5.18      0.00 
    5    7   28      0.20      0.00 
    7    7   28      3.45      0.00 
    9    7   28     -8.61      0.00 
    0    8   28    -21.61      0.00 
    2    8   28     -8.14      0.00 
    4    8   28     -3.23      0.00 
    6    8   28      1.11      0.00 
    8    8   28      1.53      0.00 
   10    8   28     -7.68      0.00 
    1    9   28     -7.04      0.00 
    3    9   28     -8.45      0.00 
    5    9   28     -1.53      0.00 
    7    9   28      1.35      0.00 
    9    9   28     -7.83      0.00 
    0   10   28     -9.97      0.00 
    2   10   28     -7.95      0.00 
    4   10   28     -6.59      0.00 
    6   10   28      1.29      0.00 
    8   10   28     -4.72      0.00 
    1   11   28     -2.22      0.00 
    3   11   28     -4.56      0.00 
    5   11   28      5.00      0.00 
    7   11   28      2.87      0.00 
    9   11   28     -2.20      0.00 
    0   12   28      1.52      0.00 
    2   12   28     -0.14      0.00 
    4   12   28     -3.64      0.00 
    6   12   28     -3.10      0.00 
    8   12   28     -2.91      0.00 
    1   13   28     -6.41      0.00 
    3   13   28     -5.66      0.00 
    5   13   28      9.71      0.00 
    7   13   28      4.90      0.00 
    0   14   28     -6.87      0.00 
    2   14   28     -5.45      0.00 
    4   14   28      3.78      0.00 
    6   14   28      7.77      0.00 
    8   14   28      0.45      0.00 
    1   15   28     -5.32      0.00 
    3   15   28      2.82      0.00 
    5   15   28      3.81      0.00 
    7   15   28      6.55      0.00 
    0   16   28     -8.20      0.00 
    2   16   28     -2.19      0.00 
    4   16   28     10.81      0.00 
    6   16   28     11.50      0.00 
    1   17   28     -0.25      0.00 
    3   17   28      3.91      0.00 
    5   17   28      7.06      0.00 
    0   18   28     -6.70      0.00 
    2   18   28      8.23      0.00 
    4   18   28     16.72      0.00 
    1   19   28     -4.11      0.00 
    3   19   28     -4.82      0.00 
    2    1   29     -3.82      0.00 
    4    1   29      2.34      0.00 
    6    1   29      0.52      0.00 
    8    1   29      2.00      0.00 
   10    1   29     -4.17      0.00 
    1    2   29      5.28      0.00 
    3    2   29     -0.91      0.00 
    5    2   29      4.21      0.00 
    7    2   29     -4.30      0.00 
    9    2   29      0.32      0.00 
    2    3   29     -2.90      0.00 
    4    3   29      1.05      0.00 
    6    3   29      1.61      0.00 
    8    3   29     -4.72      0.00 
   10    3   29     -6.01      0.00 
    1    4   29      0.09      0.00 
    3    4   29      0.66      0.00 
    5    4   29      6.51      0.00 
    7    4   29     -2.98      0.00 
    9    4   29     -1.25      0.00 
    2    5   29      5.34      0.00 
    4    5   29      6.49      0.00 
    6    5   29      4.22      0.00 
    8    5   29     -3.09      0.00 
    1    6   29      0.92      0.00 
    3    6   29      3.89      0.00 
    5    6   29     11.25      0.00 
    7    6   29      5.30      0.00 
    9    6   29     -1.84      0.00 
    2    7   29      2.13      0.00 
    4    7   29      1.93      0.00 
    6    7   29     -7.32      0.00 
    8    7   29     -5.16      0.00 
    1    8   29      8.12      0.00 
    3    8   29      1.26      0.00 
    5    8   29      7.84      0.00 
    7    8   29     -0.70      0.00 
    9    8   29     -2.78      0.00 
    2    9   29     -0.51      0.00 
    4    9   29      4.60      0.00 
    6    9   29      3.62      0.00 
    8    9   29      0.72      0.00 
    1   10   29      3.60      0.00 
    3   10   29      2.24      0.00 
    5   10   29      3.74      0.00 
    7   10   29     -3.07      0.00 
    2   11   29      4.20      0.00 
    4   11   29      0.76      0.00 
    6   11   29      0.82      0.00 
    8   11   29     -8.43      0.00 
    1   12   29     -0.78      0.00 
    3   12   29      7.06      0.00 
    5   12   29     -2.30      0.00 
    7   12   29     -7.39      0.00 
    2   13   29      3.55      0.00 
    4   13   29      5.34      0.00 
    6   13   29     -3.27      0.00 
    1   14   29      3.52      0.00 
    3   14   29      7.26      0.00 
    5   14   29      2.80      0.00 
    2   15   29     10.34      0.00 
    4   15   29      4.93      0.00 
    1   16   29      7.64      0.00 
    3   16   29     11.24      0.00 
    2   17   29     11.78      0.00 
    0    0   30      2.91      0.00 
    2    0   30      0.62      0.00 
    4    0   30     12.58      0.00 
    6    0   30     14.43      0.00 
    8    0   30      0.04      0.00 
    1    1   30     -8.04      0.00 
    3    1   30     -0.17      0.00 
    5    1   30      4.49      0.00 
    7    1   30      9.87      0.00 
    0    2   30    -14.03      0.00 
    2    2   30     -7.40      0.00 
    4    2   30     -0.83      0.00 
    6    2   30      5.77      0.00 
    8    2   30      2.51      0.00 
    1    3   30     -8.11      0.00 
    3    3   30     -3.69      0.00 
    5    3   30     11.03      0.00 
    7    3   30      7.39      0.00 
    0    4   30    -13.49      0.00 
    2    4   30     -4.05      0.00 
    4    4   30      2.49      0.00 
    6    4   30     12.15      0.00 
    8    4   30      4.71      0.00 
    1    5   30    -12.06      0.00 
    3    5   30     -4.19      0.00 
    5    5   30      1.84      0.00 
    7    5   30      8.15      0.00 
    0    6   30    -11.30      0.00 
    2    6   30     -7.41      0.00 
    4    6   30      8.81      0.00 
    6    6   30     11.39      0.00 
    8    6   30      2.71      0.00 
    1    7   30      0.61      0.00 
    3    7   30      4.11      0.00 
    5    7   30      9.24      0.00 
    7    7   30      7.58      0.00 
    0    8   30    -14.72      0.00 
    2    8   30     -5.17      0.00 
    4    8   30      3.98      0.00 
    6    8   30     10.21      0.00 
    1    9   30    -10.93      0.00 
    3    9   30      2.20      0.00 
    5    9   30      8.05      0.00 
    7    9   30      4.04      0.00 
    0   10   30     -9.32      0.00 
    2   10   30     -1.80      0.00 
    4   10   30      5.97      0.00 
    6   10   30      6.99      0.00 
    1   11   30    -13.84      0.00 
    3   11   30     -1.55      0.00 
    5   11   30      7.29      0.00 
    0   12   30    -16.66      0.00 
    2   12   30     -5.66      0.00 
    4   12   30      2.21      0.00 
    1   13   30    -18.75      0.00 
    3   13   30      0.66      0.00 
    5   13   30     12.13      0.00 
    0   14   30     10.00      0.00 
    2   14   30      8.94      0.00 
    4   14   30      5.63      0.00 
    1   15   30      0.00      0.00 
    3   15   30     10.37      0.00 
    0   16   30     -8.09      0.00 
    2    1   31      3.15      0.00 
    4    1   31      1.91      0.00 
    6    1   31      0.14      0.00 
    1    2   31     -4.85      0.00 
    3    2   31     -0.88      0.00 
    5    2   31      2.38      0.00 
    7    2   31     -7.38      0.00 
    2    3   31      3.16      0.00 
    4    3   31     -1.18      0.00 
    6    3   31     -2.41      0.00 
    1    4   31     -4.82      0.00 
    3    4   31     -3.10      0.00 
    5    4   31     -5.21      0.00 
    7    4   31     -4.33      0.00 
    2    5   31      0.21      0.00 
    4    5   31     -1.75      0.00 
    6    5   31     -0.10      0.00 
    1    6   31     -0.24      0.00 
    3    6   31     -0.08      0.00 
    5    6   31    -10.48      0.00 
    2    7   31     -1.32      0.00 
    4    7   31     -5.42      0.00 
    6    7   31     -3.00      0.00 
    1    8   31      0.29      0.00 
    3    8   31     -1.77      0.00 
    5    8   31     -1.39      0.00 
    2    9   31      1.04      0.00 
    4    9   31     -0.98      0.00 
    1   10   31     -1.87      0.00 
    3   10   31     -1.37      0.00 
    5   10   31      0.50      0.00 
    2   11   31      0.66      0.00 
    4   11   31     -2.71      0.00 
    1   12   31     -2.87      0.00 
    3   12   31      2.68      0.00 
    0    0   32      9.55      0.00 
    2    0   32      3.50      0.00 
    4    0   32     -4.51      0.00 
    1    1   32     13.87      0.00 
    3    1   32     -0.95      0.00 
    5    1   32     -0.17      0.00 
    0    2   32      7.43      0.00 
    2    2   32     10.96      0.00 
    4    2   32     -9.44      0.00 
    1    3   32     11.28      0.00 
    3    3   32     -3.31      0.00 
    5    3   32      3.06      0.00 
    0    4   32      9.10      0.00 
    2    4   32     17.45      0.00 
    4    4   32      2.08      0.00 
    1    5   32      5.16      0.00 
    3    5   32     -7.05      0.00 
    0    6   32      6.86      0.00 
    2    6   32      3.06      0.00 
    4    6   32      0.15      0.00 
    1    7   32     18.79      0.00 
    3    7   32      8.49      0.00 
    0    8   32      9.73      0.00 
    2    8   32      5.75      0.00 
    1    9   32     11.88      0.00 
    0   10   32      8.68      0.00 
    2    1   33      1.43      0.00 
    1    2   33     -0.90      0.00 
    1    1    0   -163.83      0.00 
   21    1    0     22.39      0.00 
    0    2    0     88.07      0.00 
    2    2    0   -146.35      0.00 
    1    3    0    110.50      0.00 
   21    3    0     11.97      0.00 
    0    4    0   -240.94      0.00 
   21    5    0     10.07      0.00 
   20   10    0      8.24      0.00 
   20   12    0     11.76      0.00 
   18   20    0      9.09      0.00 
   14   28    0     -5.52      0.00 
    6   36    0    -16.28      0.00 
   21    2    1      3.50      0.00 
   21    4    1     -3.67      0.00 
   19   16    1     18.87      0.00 
   12   31    1     -8.62      0.00 
   11   32    1    -11.26      0.00 
   10   33    1      8.18      0.00 
    9   34    1      6.48      0.00 
    4   37    1    -15.21      0.00 
    0    0    2    109.56      0.00 
    1    1    2   -253.19      0.00 
   21    1    2     13.89      0.00 
    0    2    2   -458.88      0.00 
   21    3    2      8.80      0.00 
   21    5    2      4.65      0.00 
   20   12    2      6.17      0.00 
   14   28    2     -2.39      0.00 
    6   36    2     -3.96      0.00 
   21    2    3     -4.56      0.00 
   21    4    3     -1.46      0.00 
   19   16    3     13.55      0.00 
   17   22    3     -7.04      0.00 
   12   31    3     -2.78      0.00 
   11   32    3     -1.54      0.00 
   10   33    3     -2.16      0.00 
    9   34    3     -4.64      0.00 
   21    1    4      0.81      0.00 
   21    3    4      0.33      0.00 
   16   24    4     -2.26      0.00 
   14   28    4     -8.19      0.00 
   13   29    4      1.67      0.00 
    3   37    4      7.74      0.00 
   20   11    5     -0.99      0.00 
   18   19    5     -0.49      0.00 
   15   26    5      1.78      0.00 
    5   36    5    -20.51      0.00 
    2   37    5      3.50      0.00 
   20   10    6     -6.01      0.00 
   19   15    6    -12.39      0.00 
   18   18    6     -3.33      0.00 
   13   29    6     -5.12      0.00 
   12   30    6     -1.14      0.00 
    7   35    6      5.25      0.00 
    1   37    6      0.38      0.00 
   20    9    7    -11.47      0.00 
   16   23    7      0.21      0.00 
   14   27    7     -3.80      0.00 
   20    8    8     -8.41      0.00 
   15   25    8     -3.77      0.00 
   11   31    8     -2.94      0.00 
   10   32    8     -7.95      0.00 
    9   33    8     -5.72      0.00 
    4   36    8     -2.66      0.00 
   20    7    9    -12.19      0.00 
   18   17    9      2.99      0.00 
   17   20    9      1.70      0.00 
   13   28    9      8.89      0.00 
    7   34    9    -12.37      0.00 
    3   36    9     10.11      0.00 
   20    4   10     -7.11      0.00 
   18   16   10     -5.03      0.00 
   17   19   10      2.75      0.00 
   16   22   10      1.88      0.00 
   14   26   10     -8.81      0.00 
    0   36   10      0.50      0.00 
   20    1   11      1.65      0.00 
   20    3   11     -4.09      0.00 
   18   15   11      1.89      0.00 
   16   21   11      4.31      0.00 
   14   25   11     -6.32      0.00 
   19    9   12      1.25      0.00 
   18   14   12      3.85      0.00 
   15   23   12     -3.05      0.00 
   12   28   12      4.73      0.00 
   11   29   12      1.14      0.00 
    8   32   12      0.48      0.00 
    7   33   12      0.60      0.00 
    1   35   12     -1.20      0.00 
   19    8   13      1.47      0.00 
   18   13   13     -8.43      0.00 
   15   22   13     -4.85      0.00 
   13   26   13     -1.40      0.00 
    6   33   13      1.79      0.00 
    3   34   13    -10.94      0.00 
   19    5   14     -4.17      0.00 
   18   12   14     -1.99      0.00 
   13   25   14     -1.98      0.00 
    5   33   14     -0.28      0.00 
    2   34   14     -8.97      0.00 
    4   33   15      2.03      0.00 
   18    8   16    -10.69      0.00 
   17   13   16     -4.88      0.00 
   10   28   16      2.66      0.00 
    9   29   16     11.04      0.00 
    8   30   16     -6.95      0.00 
    1   33   16     -2.95      0.00 
   18    3   17      0.43      0.00 
   18    5   17     -2.56      0.00 
   17   12   17     -3.94      0.00 
   16   15   17     -2.05      0.00 
   15   18   17      2.81      0.00 
   11   26   17     -5.45      0.00 
   10   27   17      6.86      0.00 
    9   28   17     12.36      0.00 
    8   29   17      7.06      0.00 
    7   30   17     -0.67      0.00 
    3   32   17     -5.60      0.00 
   17    9   18     -1.92      0.00 
   16   14   18     -2.38      0.00 
   15   17   18      1.08      0.00 
   11   25   18      3.13      0.00 
   10   26   18      5.34      0.00 
    8   28   18     -0.81      0.00 
    7   29   18    -10.59      0.00 
    6   30   18     -5.09      0.00 
   17    6   19     -0.48      0.00 
   15   16   19      4.67      0.00 
   11   24   19      1.88      0.00 
   10   25   19      6.69      0.00 
    6   29   19      5.03      0.00 
   17    1   20     10.89      0.00 
   16   10   20      0.96      0.00 
   13   19   20      1.30      0.00 
   11   23   20     -9.89      0.00 
    6   28   20      0.00      0.00 
    0   30   20     11.42      0.00 
    2   30   20      6.76      0.00 
   16    7   21     -0.14      0.00 
   15   12   21     -1.85      0.00 
   14   15   21      7.33      0.00 
   13   18   21      9.44      0.00 
   11   22   21      0.36      0.00 
   10   23   21     -9.54      0.00 
    6   27   21     -5.01      0.00 
    5   28   21     -0.60      0.00 
    2   29   21      8.93      0.00 
   16    0   22     -8.72      0.00 
   15    9   22      1.48      0.00 
   10   22   22     -5.17      0.00 
    9   23   22      4.65      0.00 
    7   25   22      8.46      0.00 
    6   26   22     14.24      0.00 
    5   27   22      1.90      0.00 
    0   28   22    -23.20      0.00 
    2   28   22     -6.38      0.00 
   15    6   23      1.49      0.00 
   14   11   23      0.58      0.00 
   13   14   23      8.41      0.00 
   12   17   23     10.72      0.00 
    9   22   23     -5.28      0.00 
    8   23   23     -2.85      0.00 
    7   24   23      2.49      0.00 
    6   25   23     -9.81      0.00 
    5   26   23      4.42      0.00 
    2   27   23     14.84      0.00 
   14    6   24      8.44      0.00 
   14    8   24      5.70      0.00 
   11   17   24      6.02      0.00 
    8   22   24      4.64      0.00 
    7   23   24     -1.46      0.00 
    6   24   24     -7.82      0.00 
    0   26   24      4.73      0.00 
    2   26   24     -3.73      0.00 
   14    1   25      4.10      0.00 
   14    3   25      2.31      0.00 
   12   13   25      4.87      0.00 
   10   17   25     -3.59      0.00 
    3   24   25      1.10      0.00 
   13    3   26      4.24      0.00 
   13    5   26      4.01      0.00 
   12   10   26      0.17      0.00 
   11   13   26     -4.40      0.00 
    9   17   26    -17.67      0.00 
    3   23   26     -9.85      0.00 
   12    5   27      5.44      0.00 
   11   10   27     -3.05      0.00 
   10   13   27      2.97      0.00 
    8   17   27      0.08      0.00 
    7   18   27     -3.04      0.00 
    6   19   27     -8.29      0.00 
    5   20   27     -4.97      0.00 
    4   21   27      2.28      0.00 
    1   22   27     -9.28      0.00 
   11    5   28    -13.78      0.00 
   10   10   28    -10.61      0.00 
    9   13   28     -5.67      0.00 
    0   20   28    -23.34      0.00 
    2   20   28    -15.89      0.00 
   10    5   29      4.11      0.00 
    9   10   29     -7.95      0.00 
    7   14   29      5.00      0.00 
    6   15   29      2.92      0.00 
    5   16   29     10.59      0.00 
    4   17   29      5.10      0.00 
    1   18   29      8.80      0.00 
    3   18   29      6.42      0.00 
    9    1   30      8.16      0.00 
    9    3   30      8.87      0.00 
    9    5   30      9.68      0.00 
    8    8   30      5.97      0.00 
    7   11   30      5.32      0.00 
    6   12   30     -1.08      0.00 
    2   16   30    -11.91      0.00 
    8    1   31      7.85      0.00 
    7    6   31      4.21      0.00 
    6    9   31      2.99      0.00 
    2   13   31    -11.84      0.00 
    1   14   31     -2.51      0.00 
    6    0   32    -26.73      0.00 
    6    2   32    -30.76      0.00 
    5    5   32    -28.59      0.00 
    4    8   32    -18.76      0.00 
    3    9   32     -2.38      0.00 
    2   10   32     10.63      0.00 
    1   11   32     34.19      0.00 
    3    2   33     -3.61      0.00 
    2    3   33     -1.76      0.00 
    1    4   33     -0.56      0.00 
    2    5   33     -6.61      0.00 
    1    6   33      1.04      0.00 
    0    0    0      0.00      0.00 
# SQUEEZE RESULTS (Version = 230917) 
# Note: Data are Listed for all Voids in the P1 Unit Cell 
# i.e. Centre of Gravity, Solvent Accessible Volume, 
# Recovered number of Electrons in the Void and 
# Details about the Squeezed Material 
loop_ 
  _platon_squeeze_void_nr 
  _platon_squeeze_void_average_x 
  _platon_squeeze_void_average_y 
  _platon_squeeze_void_average_z 
  _platon_squeeze_void_volume 
  _platon_squeeze_void_count_electrons 
  _platon_squeeze_void_content 
   1  0.293 -0.038 -0.025      9085      1708 ' ' 
# Missing Reflections Below sin(th)/lambda = 0.25 
loop_ 
  _platon_missing_refln_index_h 
  _platon_missing_refln_index_k 
  _platon_missing_refln_index_l 
  _platon_missing_refln_theta 
    1    1    0     2.944 
    0    2    0     2.886 
    2    2    0     5.896 
    1    3    0     5.037 
    0    4    0     5.779 
    0    0    2     3.255 
    1    1    2     4.391 
    0    2    2     4.352 
_platon_squeeze_void_probe_radius                  1.20 
_platon_squeeze_details 
) 
TITL 2017ncs066I b a m      R = 0.12 
CELL   17.2191   30.6244   27.1584     90.00     90.00     90.00 
SPGR Ibam 
# Solvent Accessible Volume =      9021 
# Electrons Found in S.A.V. =      1678 
# Note: Atoms in Void are Labelled as Cxxx and Qxxx for all Others 
Q101 0.527 0.422-0.001 !      14.44 eA-3 
Q102 0.902 0.010 0.064 !       9.40 eA-3 
Q103 0.909 0.989 0.150 !       7.87 eA-3 
Q104 0.228 0.016 0.066 !       7.47 eA-3 
Q105 0.973 0.095 0.156 !       3.76 eA-3 
C106 0.994 0.875 0.225 !       3.62 eA-3 
C107 0.513 0.595 0.308 !       2.88 eA-3 
C108 0.450 0.273 0.000 !       2.78 eA-3 
C109 0.727 0.086-0.004 !       2.50 eA-3 
C110 0.044 0.844 0.227 !       2.28 eA-3 
C111 0.562 0.631 0.237 !       2.21 eA-3 
C112 1.004 0.758-0.001 !       2.16 eA-3 
C113 0.234 0.187 0.004 !       2.04 eA-3 
C114 0.718 0.125 0.002 !       1.82 eA-3 
C115 0.275 0.117-0.002 !       1.81 eA-3 
C116 0.357 0.489 0.227 !       1.78 eA-3 
C117 0.500 0.500 0.336 !       1.69 eA-3 
Q118 0.074 0.021 0.324 !       1.62 eA-3 
C119 0.775 0.883 0.001 !       1.57 eA-3 
C120 0.918 0.016 0.222 !       1.48 eA-3 
C121 0.051 0.757 0.040 !       1.45 eA-3 
C122 0.697 0.156-0.001 !       1.44 eA-3 
C123 0.681 0.858 0.481 !       1.38 eA-3 
Q124 0.487 0.534 0.054 !       1.35 eA-3 
C125 0.313 0.536 0.240 !       1.31 eA-3 
Q126 0.372 0.520 0.320 !       1.28 eA-3 
C127 0.645 0.009 0.423 !       1.28 eA-3 
C128 0.984 0.332 0.143 !       1.27 eA-3 
C129 0.677 0.102 0.002 !       1.18 eA-3 
Q130 0.829 0.729 0.289 !       1.08 eA-3 
C131 0.805 0.420 0.214 !       1.07 eA-3 
Q132 0.919 0.047-0.001 !       1.04 eA-3 
Q133 0.019 0.117-0.001 !       1.00 eA-3 
Q134 0.453 0.384 0.040 !       0.97 eA-3 
Q135 0.749 0.751 0.210 !       0.96 eA-3 
C136 0.722 0.188 0.003 !       0.95 eA-3 
C137 0.890 0.639 0.063 !       0.93 eA-3 
Q138 0.608 0.611 0.454 !       0.93 eA-3 
C139 0.651 0.827 0.050 !       0.89 eA-3 
C140 0.926 0.333 0.116 !       0.84 eA-3 
C141 0.134 0.670 0.082 !       0.84 eA-3 
C142 0.909 0.635 0.367 !       0.83 eA-3 
Q143 0.873 0.145 0.116 !       0.83 eA-3 
C144 0.803 0.687 0.434 !       0.83 eA-3 
Q145 0.723 0.366 0.139 !       0.81 eA-3 
C146 0.444 0.125 0.150 !       0.81 eA-3 
Q147 0.875 0.930 0.404 !       0.79 eA-3 
C148 0.143 0.521 0.420 !       0.79 eA-3 
C149 0.416 0.071 0.257 !       0.77 eA-3 
C150 0.673 0.203-0.005 !       0.77 eA-3 
C151 0.319 0.815 0.462 !       0.76 eA-3 
C152 0.300 0.789 0.003 !       0.75 eA-3 
C153 0.402 0.189 0.070 !       0.75 eA-3 
C154 0.893 0.384 0.153 !       0.75 eA-3 
Q155 0.031 0.897 0.466 !       0.74 eA-3 
C156 0.273 0.297 0.001 !       0.73 eA-3 
C157 0.943 0.396 0.184 !       0.72 eA-3 
C158 0.754 0.046 0.291 !       0.72 eA-3 
Q159 0.424 0.372 0.066 !       0.72 eA-3 
C160 0.016 0.345 0.099 !       0.71 eA-3 
Q161 0.313 0.627 0.110 !       0.70 eA-3 
C162 0.310 0.086 0.049 !       0.70 eA-3 
C163 0.322 0.188 0.473 !       0.70 eA-3 
C164 0.504 0.881 0.171 !       0.68 eA-3 
Q165 0.610 0.555 0.411 !       0.68 eA-3 
Q166 0.828 0.938 0.098 !       0.68 eA-3 
C167 0.273 0.266 0.003 !       0.68 eA-3 
C168 0.952 0.412 0.266 !       0.68 eA-3 
C169 0.520 0.904 0.236 !       0.67 eA-3 
Q170 0.646 0.720 0.159 !       0.66 eA-3 
Q171 0.612 0.338 0.105 !       0.65 eA-3 
Q172 0.264 0.316 0.331 !       0.65 eA-3 
Q173 0.265 0.191 0.166 !       0.65 eA-3 
C174 0.320 0.052 0.182 !       0.64 eA-3 
Q175 0.906 0.880 0.081 !       0.64 eA-3 
C176 0.674 0.266 0.003 !       0.63 eA-3 
C177 0.325 0.039 0.197 !       0.63 eA-3 
C178 0.399 0.164 0.452 !       0.63 eA-3 
C179 0.587 0.130 0.417 !       0.63 eA-3 
Q180 0.153 0.170 0.394 !       0.63 eA-3 
Q181 0.256 0.159 0.180 !       0.63 eA-3 
C182 0.543 0.821 0.431 !       0.63 eA-3 
C183 0.582 0.848 0.075 !       0.62 eA-3 
C184 0.143 0.039 0.261 !       0.62 eA-3 
Q185 0.308 0.657 0.123 !       0.62 eA-3 
Q186 0.141 0.922-0.002 !       0.62 eA-3 
Q187 0.108 0.303 0.256 !       0.61 eA-3 
Q188 0.161 0.846 0.144 !       0.60 eA-3 
C189 0.630 0.921 0.217 !       0.60 eA-3 
C190 0.127 0.476 0.184 !       0.60 eA-3 
C191 0.705 0.273 0.002 !       0.59 eA-3 
C192 0.120 0.700 0.077 !       0.59 eA-3 
C193 0.394 0.221 0.069 !       0.59 eA-3 
Q194 0.144 0.951 0.408 !       0.58 eA-3 
C195 0.121 0.805-0.003 !       0.58 eA-3 
Q196 0.375 0.511 0.391 !       0.58 eA-3 
C197 0.479 0.458 0.188 !       0.58 eA-3 
C198 0.398 0.954 0.209 !       0.58 eA-3 
Q199 0.378 0.682 0.389 !       0.58 eA-3 
) 
;
_shelx_fab_checksum              42221
loop_
_space_group_symop_operation_xyz
'x, y, z'
'-x, -y, z'
'-x+1/2, y+1/2, -z'
'x+1/2, -y+1/2, -z'
'x+1/2, y+1/2, z+1/2'
'-x+1/2, -y+1/2, z+1/2'
'-x+1, y+1, -z+1/2'
'x+1, -y+1, -z+1/2'
'-x, -y, -z'
'x, y, -z'
'x-1/2, -y-1/2, z'
'-x-1/2, y-1/2, z'
'-x+1/2, -y+1/2, -z+1/2'
'x+1/2, y+1/2, -z+1/2'
'x, -y, z+1/2'
'-x, y, z+1/2'
loop_
_atom_site_label
_atom_site_type_symbol
_atom_site_fract_x
_atom_site_fract_y
_atom_site_fract_z
_atom_site_U_iso_or_equiv
_atom_site_adp_type
_atom_site_occupancy
_atom_site_site_symmetry_order
_atom_site_calc_flag
_atom_site_refinement_flags_posn
_atom_site_refinement_flags_adp
_atom_site_refinement_flags_occupancy
_atom_site_disorder_assembly
_atom_site_disorder_group
Hf1 Hf 0.39925(5) 0.49149(5) 0.56496(4) 0.0368(4) Uani 0.848(15) 1 d . U P A 1
Hf1' Hf 0.3980(5) 0.5032(9) 0.5650(3) 0.077(2) Uani 0.152(15) 1 d . U P A 2
Hf2 Hf 0.52157(9) 0.42146(2) 0.500000 0.0311(3) Uani 0.897(6) 2 d S TU P A 1
Hf2' Hf 0.4793(14) 0.42117(15) 0.500000 0.053(4) Uani 0.103(6) 2 d S TU P A 2
O1 O 0.250000 0.250000 0.750000 0.089(3) Uani 1 2 d S . P . .
Si2 Si 0.31342(13) 0.23067(6) 0.71223(6) 0.0626(5) Uani 1 1 d . . . . .
C3 C 0.3429(4) 0.2784(2) 0.6725(2) 0.0605(16) Uani 1 1 d . . . . .
C4 C 0.3035(6) 0.3174(2) 0.6759(3) 0.088(3) Uani 1 1 d . . . . .
H4A H 0.260579 0.319857 0.697676 0.105 Uiso 1 1 calc R U . . .
C5 C 0.3258(6) 0.3534(3) 0.6476(3) 0.086(3) Uani 1 1 d . . . . .
H5A H 0.300221 0.380694 0.651573 0.103 Uiso 1 1 calc R U . . .
C6 C 0.3844(5) 0.3493(2) 0.6142(2) 0.0610(17) Uani 1 1 d . . . . .
C7 C 0.4240(6) 0.3103(2) 0.6109(3) 0.084(3) Uani 1 1 d . . . . .
H7A H 0.466421 0.307877 0.588691 0.101 Uiso 1 1 calc R U . . .
C8 C 0.4036(6) 0.2745(3) 0.6392(3) 0.086(3) Uani 1 1 d . . . . .
H8A H 0.430718 0.247616 0.635924 0.103 Uiso 1 1 calc R U . . .
C9 C 0.4079(4) 0.38688(19) 0.5820(3) 0.0576(16) Uani 1 1 d . . . . .
O10 O 0.3773(3) 0.42335(13) 0.59194(18) 0.0651(13) Uani 1 1 d . . . . .
O11 O 0.4557(3) 0.37885(12) 0.54899(14) 0.0500(9) Uani 1 1 d . . . . .
C12 C 0.2658(5) 0.1881(2) 0.6726(2) 0.0636(18) Uani 1 1 d . . . . .
C13 C 0.2100(6) 0.2006(2) 0.6386(3) 0.082(3) Uani 1 1 d . . . . .
H13A H 0.196571 0.230546 0.635674 0.098 Uiso 1 1 calc R U . . .
C14 C 0.1733(5) 0.1698(2) 0.6087(3) 0.077(2) Uani 1 1 d . . . . .
H14A H 0.137249 0.179094 0.584331 0.093 Uiso 1 1 calc R U . . .
C15 C 0.1891(4) 0.1270(2) 0.6143(2) 0.0614(17) Uani 1 1 d . . . . .
C16 C 0.2425(6) 0.1136(2) 0.6493(3) 0.085(3) Uani 1 1 d . . . . .
H16A H 0.252839 0.083317 0.653511 0.102 Uiso 1 1 calc R U . . .
C17 C 0.2811(6) 0.1440(2) 0.6784(3) 0.088(3) Uani 1 1 d . . . . .
H17A H 0.317770 0.134556 0.702281 0.105 Uiso 1 1 calc R U . . .
C18 C 0.1481(4) 0.0933(2) 0.5825(2) 0.0523(14) Uani 1 1 d . . . . .
O19 O 0.1060(2) 0.10907(13) 0.54877(15) 0.0498(10) Uani 1 1 d . . . . .
O20 O 0.1582(3) 0.05430(14) 0.59163(18) 0.0686(14) Uani 1 1 d . . . . .
C21 C 0.3946(6) 0.2091(3) 0.7474(3) 0.096(3) Uani 1 1 d . . . . .
H21A H 0.433593 0.197205 0.724743 0.143 Uiso 1 1 calc R U . . .
H21B H 0.417807 0.232506 0.767021 0.143 Uiso 1 1 calc R U . . .
H21C H 0.376122 0.185843 0.769244 0.143 Uiso 1 1 calc R U . . .
O30 O 0.2815(3) 0.4834(2) 0.5641(2) 0.095(2) Uani 1 1 d . . . . .
O40 O 0.4081(5) 0.49434(19) 0.64141(17) 0.096(2) Uani 1 1 d . . . . .
O50 O 0.3886(6) 0.5291(3) 0.500000 0.088(3) Uani 1 2 d S T P . .
O60 O 0.4192(17) 0.4577(7) 0.500000 0.060(5) Uani 0.62(5) 2 d S TU P A 1
O60' O 0.3886(16) 0.4460(9) 0.500000 0.049(5) Uiso 0.38(5) 2 d S U P A 2
O70 O 0.4904(3) 0.53822(17) 0.5645(2) 0.0812(19) Uani 1 1 d . . . . .
loop_
_atom_site_aniso_label
_atom_site_aniso_U_11
_atom_site_aniso_U_22
_atom_site_aniso_U_33
_atom_site_aniso_U_23
_atom_site_aniso_U_13
_atom_site_aniso_U_12
Hf1 0.0580(6) 0.0189(4) 0.0335(3) 0.00183(19) 0.01001(15) -0.00272(18)
Hf1' 0.133(6) 0.057(7) 0.041(2) -0.004(2) 0.0122(16) 0.010(2)
Hf2 0.0540(6) 0.0155(2) 0.0240(2) 0.000 0.000 -0.0030(2)
Hf2' 0.101(11) 0.018(2) 0.041(3) 0.000 0.000 0.003(3)
O1 0.137(7) 0.065(4) 0.066(5) -0.002(4) 0.028(4) -0.055(5)
Si2 0.0946(13) 0.0465(9) 0.0467(9) 0.0113(7) -0.0114(9) -0.0353(9)
C3 0.091(5) 0.041(3) 0.048(3) 0.008(3) 0.001(3) -0.021(3)
C4 0.123(7) 0.051(4) 0.088(6) 0.013(4) 0.041(5) -0.007(4)
C5 0.114(7) 0.052(4) 0.090(6) 0.023(4) 0.038(5) -0.008(4)
C6 0.095(5) 0.034(3) 0.054(3) 0.007(3) 0.009(3) -0.014(3)
C7 0.120(6) 0.042(4) 0.090(6) 0.018(4) 0.045(5) -0.003(4)
C8 0.122(7) 0.044(4) 0.090(6) 0.022(4) 0.034(5) -0.003(4)
C9 0.088(5) 0.031(3) 0.053(3) 0.001(3) 0.016(3) -0.014(3)
O10 0.099(3) 0.029(2) 0.067(3) 0.0155(19) 0.034(3) -0.004(2)
O11 0.083(3) 0.0256(17) 0.041(2) -0.0003(15) 0.007(2) -0.0104(17)
C12 0.102(5) 0.048(3) 0.041(3) 0.009(3) -0.016(3) -0.032(3)
C13 0.125(7) 0.037(3) 0.083(5) 0.010(3) -0.045(5) -0.022(4)
C14 0.115(6) 0.047(4) 0.071(4) 0.005(3) -0.040(4) -0.014(4)
C15 0.089(5) 0.036(3) 0.059(4) 0.000(3) -0.014(3) -0.017(3)
C16 0.131(7) 0.044(4) 0.079(5) 0.002(3) -0.049(5) -0.014(4)
C17 0.124(7) 0.052(4) 0.088(5) 0.011(4) -0.051(5) -0.026(4)
C18 0.071(4) 0.042(3) 0.044(3) -0.004(3) -0.018(3) -0.001(3)
O19 0.076(3) 0.0312(19) 0.042(2) -0.0032(16) -0.0067(18) -0.0082(17)
O20 0.100(4) 0.033(2) 0.072(3) 0.004(2) -0.033(3) -0.014(2)
C21 0.133(8) 0.075(5) 0.078(6) 0.026(4) -0.042(5) -0.054(5)
O30 0.045(3) 0.120(5) 0.120(5) 0.009(4) 0.001(3) -0.038(3)
O40 0.189(7) 0.086(4) 0.0149(19) 0.001(2) -0.010(3) 0.008(4)
O50 0.178(9) 0.054(4) 0.032(3) 0.000 0.000 -0.047(5)
O60 0.089(12) 0.061(8) 0.030(5) 0.000 0.000 0.011(9)
O70 0.073(3) 0.055(3) 0.116(5) 0.058(3) -0.008(3) 0.002(2)
loop_
_atom_type_symbol
_atom_type_description
_atom_type_scat_dispersion_real
_atom_type_scat_dispersion_imag
_atom_type_scat_source
C C 0.0181 0.0091 'International Tables Vol C Tables 4.2.6.8 and 6.1.1.4'
H H 0.0000 0.0000 'International Tables Vol C Tables 4.2.6.8 and 6.1.1.4'
N N 0.0311 0.0180 'International Tables Vol C Tables 4.2.6.8 and 6.1.1.4'
O O 0.0492 0.0322 'International Tables Vol C Tables 4.2.6.8 and 6.1.1.4'
Si Si 0.2541 0.3302 'International Tables Vol C Tables 4.2.6.8 and 6.1.1.4'
Hf Hf -6.1794 4.9776 'International Tables Vol C Tables 4.2.6.8 and 6.1.1.4'
loop_
_geom_angle_atom_site_label_1
_geom_angle_atom_site_label_2
_geom_angle_atom_site_label_3
_geom_angle
_geom_angle_site_symmetry_1
_geom_angle_site_symmetry_3
_geom_angle_publ_flag
O30 Hf1 O60 95.4(9) . . ?
O30 Hf1 O40 95.1(3) . . ?
O60 Hf1 O40 148.9(3) . . ?
O30 Hf1 O70 147.4(3) . 2_665 ?
O60 Hf1 O70 68.3(7) . 2_665 ?
O40 Hf1 O70 87.6(3) . 2_665 ?
O30 Hf1 O50 88.3(3) . . ?
O60 Hf1 O50 64.9(4) . . ?
O40 Hf1 O50 144.6(2) . . ?
O70 Hf1 O50 107.9(3) 2_665 . ?
O30 Hf1 O70 144.6(3) . . ?
O60 Hf1 O70 102.0(9) . . ?
O40 Hf1 O70 85.7(3) . . ?
O70 Hf1 O70 67.9(2) 2_665 . ?
O50 Hf1 O70 72.1(3) . . ?
O30 Hf1 O10 73.9(3) . . ?
O60 Hf1 O10 80.9(6) . . ?
O40 Hf1 O10 74.1(2) . . ?
O70 Hf1 O10 75.7(2) 2_665 . ?
O50 Hf1 O10 139.8(2) . . ?
O70 Hf1 O10 138.9(2) . . ?
O30 Hf1 O20 71.1(3) . 12_665 ?
O60 Hf1 O20 139.7(3) . 12_665 ?
O40 Hf1 O20 71.3(2) . 12_665 ?
O70 Hf1 O20 139.2(2) 2_665 12_665 ?
O50 Hf1 O20 76.6(3) . 12_665 ?
O70 Hf1 O20 75.8(2) . 12_665 ?
O10 Hf1 O20 127.40(17) . 12_665 ?
O30 Hf1 Hf2 118.5(2) . 9_666 ?
O60 Hf1 Hf2 83.4(7) . 9_666 ?
O40 Hf1 Hf2 116.43(19) . 9_666 ?
O70 Hf1 Hf2 88.52(18) 2_665 9_666 ?
O50 Hf1 Hf2 36.2(2) . 9_666 ?
O70 Hf1 Hf2 35.91(14) . 9_666 ?
O10 Hf1 Hf2 160.95(13) . 9_666 ?
O20 Hf1 Hf2 71.62(12) 12_665 9_666 ?
O30 Hf1 Hf2 121.2(2) . . ?
O60 Hf1 Hf2 33.1(6) . . ?
O40 Hf1 Hf2 119.1(2) . . ?
O70 Hf1 Hf2 35.51(14) 2_665 . ?
O50 Hf1 Hf2 88.0(2) . . ?
O70 Hf1 Hf2 87.98(18) . . ?
O10 Hf1 Hf2 72.23(12) . . ?
O20 Hf1 Hf2 160.35(12) 12_665 . ?
Hf2 Hf1 Hf2 88.74(2) 9_666 . ?
O30 Hf1 Hf1 178.3(2) . 2_665 ?
O60 Hf1 Hf1 84.8(9) . 2_665 ?
O40 Hf1 Hf1 85.5(2) . 2_665 ?
O70 Hf1 Hf1 34.13(14) 2_665 2_665 ?
O50 Hf1 Hf1 90.3(3) . 2_665 ?
O70 Hf1 Hf1 33.82(14) . 2_665 ?
O10 Hf1 Hf1 107.74(16) . 2_665 ?
O20 Hf1 Hf1 107.69(15) 12_665 2_665 ?
Hf2 Hf1 Hf1 59.88(4) 9_666 2_665 ?
Hf2 Hf1 Hf1 59.59(4) . 2_665 ?
O30 Hf1 Hf1 89.31(19) . 10_556 ?
O60 Hf1 Hf1 31.7(3) . 10_556 ?
O40 Hf1 Hf1 175.2(2) . 10_556 ?
O70 Hf1 Hf1 89.63(18) 2_665 10_556 ?
O50 Hf1 Hf1 33.45(19) . 10_556 ?
O70 Hf1 Hf1 89.64(17) . 10_556 ?
O10 Hf1 Hf1 109.06(13) . 10_556 ?
O20 Hf1 Hf1 108.51(13) 12_665 10_556 ?
Hf2 Hf1 Hf1 59.49(2) 9_666 10_556 ?
Hf2 Hf1 Hf1 59.59(2) . 10_556 ?
Hf1 Hf1 Hf1 90.0 2_665 10_556 ?
O70 Hf1' O50 80.5(8) . . ?
O70 Hf1' O20 88.1(11) . 12_665 ?
O50 Hf1' O20 88.3(10) . 12_665 ?
O70 Hf1' O30 162.9(14) . . ?
O50 Hf1' O30 91.6(5) . . ?
O20 Hf1' O30 76.4(4) 12_665 . ?
O70 Hf1' O40 90.6(5) . . ?
O50 Hf1' O40 163.4(15) . . ?
O20 Hf1' O40 77.4(5) 12_665 . ?
O30 Hf1' O40 93.1(6) . . ?
O70 Hf1' O70 67.4(4) . 2_665 ?
O50 Hf1' O70 106.7(5) . 2_665 ?
O20 Hf1' O70 147.9(7) 12_665 2_665 ?
O30 Hf1' O70 129.7(13) . 2_665 ?
O40 Hf1' O70 82.3(6) . 2_665 ?
O70 Hf1' O60' 116.2(8) . . ?
O50 Hf1' O60' 68.8(6) . . ?
O20 Hf1' O60' 141.6(7) 12_665 . ?
O30 Hf1' O60' 74.1(9) . . ?
O40 Hf1' O60' 127.8(13) . . ?
O70 Hf1' O60' 70.2(8) 2_665 . ?
O70 Hf1' O10 130.3(8) . . ?
O50 Hf1' O10 129.3(9) . . ?
O20 Hf1' O10 125.4(5) 12_665 . ?
O30 Hf1' O10 66.2(7) . . ?
O40 Hf1' O10 66.9(6) . . ?
O70 Hf1' O10 66.0(7) 2_665 . ?
O60' Hf1' O10 61.6(8) . . ?
O70 Hf1' Hf2' 93.9(6) . . ?
O50 Hf1' Hf2' 82.1(5) . . ?
O20 Hf1' Hf2' 169.7(5) 12_665 . ?
O30 Hf1' Hf2' 100.1(9) . . ?
O40 Hf1' Hf2' 112.7(9) . . ?
O70 Hf1' Hf2' 40.6(5) 2_665 . ?
O60' Hf1' Hf2' 29.9(7) . . ?
O10 Hf1' Hf2' 59.9(5) . . ?
O70 Hf1' Hf1' 37.2(3) . 2_665 ?
O50 Hf1' Hf1' 96.1(5) . 2_665 ?
O20 Hf1' Hf1' 122.2(12) 12_665 2_665 ?
O30 Hf1' Hf1' 159.9(16) . 2_665 ?
O40 Hf1' Hf1' 84.8(3) . 2_665 ?
O70 Hf1' Hf1' 30.2(4) 2_665 2_665 ?
O10 Hf1' Hf1' 94.8(10) . 2_665 ?
O70 Hf1' Hf1' 89.6(3) . 10_556 ?
O50 Hf1' Hf1' 24.6(8) . 10_556 ?
O20 Hf1' Hf1' 111.5(4) 12_665 10_556 ?
O30 Hf1' Hf1' 89.3(3) . 10_556 ?
O40 Hf1' Hf1' 171.1(7) . 10_556 ?
O70 Hf1' Hf1' 89.6(2) 2_665 10_556 ?
O10 Hf1' Hf1' 106.5(2) . 10_556 ?
O70 Hf1' Hf2' 31.8(4) . 9_666 ?
O50 Hf1' Hf2' 48.7(6) . 9_666 ?
O20 Hf1' Hf2' 87.6(9) 12_665 9_666 ?
O30 Hf1' Hf2' 138.0(8) . 9_666 ?
O40 Hf1' Hf2' 121.3(7) . 9_666 ?
O70 Hf1' Hf2' 82.0(5) 2_665 9_666 ?
O10 Hf1' Hf2' 146.2(6) . 9_666 ?
O60 Hf2 O70 67.2(4) . 2_665 ?
O60 Hf2 O70 67.2(4) . 9_666 ?
O70 Hf2 O70 108.9(4) 2_665 9_666 ?
O60 Hf2 O50 103.4(9) . 9_666 ?
O70 Hf2 O50 70.5(2) 2_665 9_666 ?
O70 Hf2 O50 70.5(2) 9_666 9_666 ?
O60 Hf2 O19 142.53(11) . 11_665 ?
O70 Hf2 O19 79.4(2) 2_665 11_665 ?
O70 Hf2 O19 143.6(2) 9_666 11_665 ?
O50 Hf2 O19 79.9(2) 9_666 11_665 ?
O60 Hf2 O19 142.53(11) . 4_556 ?
O70 Hf2 O19 143.6(2) 2_665 4_556 ?
O70 Hf2 O19 79.4(2) 9_666 4_556 ?
O50 Hf2 O19 79.9(2) 9_666 4_556 ?
O19 Hf2 O19 74.9(2) 11_665 4_556 ?
O60 Hf2 O11 83.1(7) . . ?
O70 Hf2 O11 78.3(2) 2_665 . ?
O70 Hf2 O11 142.1(2) 9_666 . ?
O50 Hf2 O11 142.18(11) 9_666 . ?
O19 Hf2 O11 73.69(17) 11_665 . ?
O19 Hf2 O11 117.46(15) 4_556 . ?
O60 Hf2 O11 83.1(7) . 10_556 ?
O70 Hf2 O11 142.1(2) 2_665 10_556 ?
O70 Hf2 O11 78.3(2) 9_666 10_556 ?
O50 Hf2 O11 142.18(11) 9_666 10_556 ?
O19 Hf2 O11 117.46(15) 11_665 10_556 ?
O19 Hf2 O11 73.69(17) 4_556 10_556 ?
O11 Hf2 O11 75.2(2) . 10_556 ?
O60 Hf2 Hf1 85.6(7) . 2_665 ?
O70 Hf2 Hf1 35.36(15) 2_665 2_665 ?
O70 Hf2 Hf1 90.60(17) 9_666 2_665 ?
O50 Hf2 Hf1 35.21(13) 9_666 2_665 ?
O19 Hf2 Hf1 76.04(11) 11_665 2_665 ?
O19 Hf2 Hf1 112.12(13) 4_556 2_665 ?
O11 Hf2 Hf1 110.68(10) . 2_665 ?
O11 Hf2 Hf1 166.50(12) 10_556 2_665 ?
O60 Hf2 Hf1 85.6(7) . 9_666 ?
O70 Hf2 Hf1 90.60(17) 2_665 9_666 ?
O70 Hf2 Hf1 35.36(15) 9_666 9_666 ?
O50 Hf2 Hf1 35.21(13) 9_666 9_666 ?
O19 Hf2 Hf1 112.12(13) 11_665 9_666 ?
O19 Hf2 Hf1 76.04(11) 4_556 9_666 ?
O11 Hf2 Hf1 166.50(12) . 9_666 ?
O11 Hf2 Hf1 110.68(10) 10_556 9_666 ?
Hf1 Hf2 Hf1 61.02(4) 2_665 9_666 ?
O60 Hf2 Hf1 32.9(3) . 10_556 ?
O70 Hf2 Hf1 90.05(17) 2_665 10_556 ?
O70 Hf2 Hf1 34.65(15) 9_666 10_556 ?
O50 Hf2 Hf1 90.1(2) 9_666 10_556 ?
O19 Hf2 Hf1 167.30(11) 11_665 10_556 ?
O19 Hf2 Hf1 111.08(11) 4_556 10_556 ?
O11 Hf2 Hf1 111.26(14) . 10_556 ?
O11 Hf2 Hf1 75.23(11) 10_556 10_556 ?
Hf1 Hf2 Hf1 91.26(2) 2_665 10_556 ?
Hf1 Hf2 Hf1 60.53(2) 9_666 10_556 ?
O60 Hf2 Hf1 32.9(3) . . ?
O70 Hf2 Hf1 34.65(15) 2_665 . ?
O70 Hf2 Hf1 90.05(17) 9_666 . ?
O50 Hf2 Hf1 90.1(2) 9_666 . ?
O19 Hf2 Hf1 111.08(11) 11_665 . ?
O19 Hf2 Hf1 167.30(11) 4_556 . ?
O11 Hf2 Hf1 75.23(11) . . ?
O11 Hf2 Hf1 111.26(14) 10_556 . ?
Hf1 Hf2 Hf1 60.53(2) 2_665 . ?
Hf1 Hf2 Hf1 91.26(2) 9_666 . ?
Hf1 Hf2 Hf1 60.82(4) 10_556 . ?
O60' Hf2' O11 96.1(12) . . ?
O11 Hf2' O11 88.8(5) . 10_556 ?
O60' Hf2' O70 88.1(7) . 2_665 ?
O11 Hf2' O70 83.1(2) . 2_665 ?
O11 Hf2' O70 171.3(3) 10_556 2_665 ?
O11 Hf2' O70 171.3(3) . 9_666 ?
O11 Hf2' O70 83.1(2) 10_556 9_666 ?
O70 Hf2' O70 104.8(6) 2_665 9_666 ?
O11 Hf2' O19 66.3(4) . 11_665 ?
O11 Hf2' O19 106.3(6) 10_556 11_665 ?
O70 Hf2' O19 67.4(5) 2_665 11_665 ?
O70 Hf2' O19 112.9(10) 9_666 11_665 ?
O11 Hf2' O19 106.3(6) . 4_556 ?
O11 Hf2' O19 66.3(4) 10_556 4_556 ?
O70 Hf2' O19 112.9(10) 2_665 4_556 ?
O70 Hf2' O19 67.4(5) 9_666 4_556 ?
O19 Hf2' O19 58.4(5) 11_665 4_556 ?
O60' Hf2' C9 76.4(9) . . ?
O11 Hf2' C9 22.8(3) . . ?
O11 Hf2' C9 102.2(6) 10_556 . ?
O70 Hf2' C9 71.3(3) 2_665 . ?
O70 Hf2' C9 164.0(9) 9_666 . ?
O19 Hf2' C9 80.4(2) 11_665 . ?
O19 Hf2' C9 128.6(4) 4_556 . ?
O11 Hf2' C9 102.2(6) . 10_556 ?
O11 Hf2' C9 22.8(3) 10_556 10_556 ?
O70 Hf2' C9 164.0(9) 2_665 10_556 ?
O70 Hf2' C9 71.3(3) 9_666 10_556 ?
O19 Hf2' C9 128.6(4) 11_665 10_556 ?
O19 Hf2' C9 80.4(2) 4_556 10_556 ?
C9 Hf2' C9 108.1(7) . 10_556 ?
O11 Hf2' Hf1' 141.7(11) . 10_556 ?
O11 Hf2' Hf1' 93.0(5) 10_556 10_556 ?
O70 Hf2' Hf1' 95.3(4) 2_665 10_556 ?
O70 Hf2' Hf1' 42.7(3) 9_666 10_556 ?
O19 Hf2' Hf1' 147.4(7) 11_665 10_556 ?
O19 Hf2' Hf1' 109.4(3) 4_556 10_556 ?
C9 Hf2' Hf1' 121.5(7) . 10_556 ?
C9 Hf2' Hf1' 71.1(4) 10_556 10_556 ?
O60' Hf2' Hf1' 45.7(7) . . ?
O11 Hf2' Hf1' 93.0(5) . . ?
O11 Hf2' Hf1' 141.7(11) 10_556 . ?
O70 Hf2' Hf1' 42.7(3) 2_665 . ?
O70 Hf2' Hf1' 95.3(4) 9_666 . ?
O19 Hf2' Hf1' 109.4(3) 11_665 . ?
O19 Hf2' Hf1' 147.4(7) 4_556 . ?
C9 Hf2' Hf1' 71.1(4) . . ?
C9 Hf2' Hf1' 121.5(7) 10_556 . ?
Hf1' Hf2' Hf1' 63.0(6) 10_556 . ?
O11 Hf2' Hf1' 102.8(5) . 2_665 ?
O11 Hf2' Hf1' 155.2(10) 10_556 2_665 ?
O70 Hf2' Hf1' 27.2(4) 2_665 2_665 ?
O70 Hf2' Hf1' 83.6(6) 9_666 2_665 ?
O19 Hf2' Hf1' 60.5(5) 11_665 2_665 ?
O19 Hf2' Hf1' 89.2(7) 4_556 2_665 ?
C9 Hf2' Hf1' 96.4(3) . 2_665 ?
C9 Hf2' Hf1' 154.8(4) 10_556 2_665 ?
Si2 O1 Si2 180.00(9) 13_556 . ?
O1 Si2 C21 108.7(4) . . ?
O1 Si2 C12 108.9(3) . . ?
C21 Si2 C12 112.6(4) . . ?
O1 Si2 C3 105.2(3) . . ?
C21 Si2 C3 112.1(4) . . ?
C12 Si2 C3 109.1(3) . . ?
C4 C3 C8 119.4(6) . . ?
C4 C3 Si2 120.1(6) . . ?
C8 C3 Si2 120.5(5) . . ?
C3 C4 C5 120.8(8) . . ?
C6 C5 C4 119.7(8) . . ?
C5 C6 C7 119.4(6) . . ?
C5 C6 C9 121.0(6) . . ?
C7 C6 C9 119.6(6) . . ?
C6 C7 C8 121.6(8) . . ?
C7 C8 C3 119.0(8) . . ?
O11 C9 O10 127.2(5) . . ?
O11 C9 C6 116.6(6) . . ?
O10 C9 C6 116.2(6) . . ?
O11 C9 Hf2' 36.4(4) . . ?
O10 C9 Hf2' 91.2(4) . . ?
C6 C9 Hf2' 152.2(5) . . ?
C9 O10 Hf1 133.0(4) . . ?
C9 O10 Hf1' 136.1(5) . . ?
C9 O11 Hf2' 120.8(6) . . ?
C9 O11 Hf2 131.8(4) . . ?
C17 C12 C13 118.5(6) . . ?
C17 C12 Si2 121.9(5) . . ?
C13 C12 Si2 119.5(5) . . ?
C12 C13 C14 121.1(7) . . ?
C15 C14 C13 120.0(7) . . ?
C14 C15 C16 119.9(6) . . ?
C14 C15 C18 120.2(6) . . ?
C16 C15 C18 119.9(6) . . ?
C15 C16 C17 120.6(7) . . ?
C12 C17 C16 119.8(7) . . ?
O20 C18 O19 126.6(5) . . ?
O20 C18 C15 118.5(5) . . ?
O19 C18 C15 114.9(5) . . ?
C18 O19 Hf2 131.3(4) . 11_565 ?
C18 O19 Hf2' 133.2(4) . 11_565 ?
Hf2 O19 Hf2' 11.6(3) 11_565 11_565 ?
C18 O20 Hf1' 128.6(7) . 12_655 ?
C18 O20 Hf1 133.8(4) . 12_655 ?
Hf1 O50 Hf1 113.1(4) . 10_556 ?
Hf1 O50 Hf2 108.6(3) . 9_666 ?
Hf1 O50 Hf2 108.6(3) 10_556 9_666 ?
Hf1 O60 Hf1 116.6(6) . 10_556 ?
Hf1 O60 Hf2 114.0(8) . . ?
Hf1 O60 Hf2 114.0(8) 10_556 . ?
Hf2' O60' Hf1' 104.5(12) . . ?
Hf1' O60' Hf1' 90.1(13) 10_556 . ?
Hf1 O70 Hf1 112.1(2) 2_665 . ?
Hf1 O70 Hf2 109.8(3) 2_665 9_666 ?
Hf1 O70 Hf2 108.7(3) . 9_666 ?
Hf1 O70 Hf2' 92.0(6) 2_665 9_666 ?
Hf1 O70 Hf2' 124.0(6) . 9_666 ?
Hf2 O70 Hf2' 19.2(6) 9_666 9_666 ?
Hf1 O70 Hf1' 7.9(6) 2_665 2_665 ?
Hf1 O70 Hf1' 104.2(6) . 2_665 ?
Hf2 O70 Hf1' 113.6(4) 9_666 2_665 ?
loop_
_geom_bond_atom_site_label_1
_geom_bond_atom_site_label_2
_geom_bond_distance
_geom_bond_site_symmetry_2
_geom_bond_publ_flag
Hf1 O30 2.044(5) . ?
Hf1 O60 2.074(7) . ?
Hf1 O40 2.084(5) . ?
Hf1 O70 2.107(5) 2_665 ?
Hf1 O50 2.114(5) . ?
Hf1 O70 2.124(5) . ?
Hf1 O10 2.244(4) . ?
Hf1 O20 2.281(4) 12_665 ?
Hf1 Hf2 3.4752(13) 9_666 ?
Hf1 Hf2 3.4855(18) . ?
Hf1 Hf1 3.5085(15) 2_665 ?
Hf1 Hf1 3.529(2) 10_556 ?
Hf1' O70 1.918(18) . ?
Hf1' O50 1.941(14) . ?
Hf1' O20 1.98(2) 12_665 ?
Hf1' O30 2.096(12) . ?
Hf1' O40 2.101(10) . ?
Hf1' O70 2.304(17) 2_665 ?
Hf1' O60' 2.49(3) . ?
Hf1' O10 2.58(3) . ?
Hf1' Hf2' 3.38(2) . ?
Hf1' Hf1' 3.520(16) 2_665 ?
Hf1' Hf1' 3.530(15) 10_556 ?
Hf1' Hf2' 3.60(3) 9_666 ?
Hf2 O60 2.083(19) . ?
Hf2 O70 2.152(5) 2_665 ?
Hf2 O70 2.152(5) 9_666 ?
Hf2 O50 2.165(8) 9_666 ?
Hf2 O19 2.177(4) 11_665 ?
Hf2 O19 2.177(4) 4_556 ?
Hf2 O11 2.182(4) . ?
Hf2 O11 2.182(4) 10_556 ?
Hf2' O60' 1.74(3) . ?
Hf2' O11 1.901(8) . ?
Hf2' O11 1.901(8) 10_556 ?
Hf2' O70 2.210(9) 2_665 ?
Hf2' O70 2.210(9) 9_666 ?
Hf2' O19 2.71(2) 11_665 ?
Hf2' O19 2.71(2) 4_556 ?
Hf2' C9 2.753(13) . ?
Hf2' C9 2.753(13) 10_556 ?
O1 Si2 1.611(2) 13_556 ?
O1 Si2 1.611(2) . ?
Si2 C21 1.817(10) . ?
Si2 C12 1.880(6) . ?
Si2 C3 1.887(6) . ?
C3 C4 1.377(11) . ?
C3 C8 1.386(11) . ?
C4 C5 1.399(10) . ?
C5 C6 1.362(11) . ?
C6 C7 1.379(10) . ?
C6 C9 1.501(8) . ?
C7 C8 1.385(9) . ?
C9 O11 1.242(8) . ?
C9 O10 1.264(8) . ?
C12 C17 1.385(10) . ?
C12 C13 1.385(10) . ?
C13 C14 1.396(9) . ?
C14 C15 1.350(10) . ?
C15 C16 1.386(10) . ?
C15 C18 1.517(8) . ?
C16 C17 1.391(10) . ?
C18 O20 1.234(7) . ?
C18 O19 1.264(7) . ?
