#------------------------------------------------------------------------------
#$Date: 2020-04-04 13:20:06 +0300 (Sat, 04 Apr 2020) $
#$Revision: 250129 $
#$URL: file:///home/coder/svn-repositories/cod/cif/7/12/63/7126334.cif $
#------------------------------------------------------------------------------
#
# This file is available in the Crystallography Open Database (COD),
# http://www.crystallography.net/
#
# All data on this site have been placed in the public domain by the
# contributors.
#
data_7126334
loop_
_publ_author_name
'Craig, Gavin A.'
'Larpent, Patrick'
'Urabe, Hinano'
'Legrand, Alexandre'
'Bonneau, Mickaele'
'Kusaka, Shinpei'
'Furukawa, Shuhei'
_publ_section_title
;
 Hysteresis in the gas sorption isotherms of metal-organic cages
 accompanied by subtle changes in molecular packing.
;
_journal_issue                   25
_journal_name_full
'Chemical communications (Cambridge, England)'
_journal_page_first              3689
_journal_page_last               3692
_journal_paper_doi               10.1039/d0cc00932f
_journal_volume                  56
_journal_year                    2020
_chemical_formula_moiety         'C116 H94 Cu4 N2 O24'
_chemical_formula_sum            'C134 H136 Cu4 N8 O30'
_chemical_formula_weight         2592.66
_space_group_crystal_system      monoclinic
_space_group_IT_number           13
_space_group_name_Hall           '-P 2yac'
_space_group_name_H-M_alt        'P 1 2/n 1'
_atom_sites_solution_hydrogens   mixed
_audit_creation_date             2019-10-11
_audit_creation_method
;
Olex2 1.2
(compiled 2018.05.29 svn.r3508 for OlexSys, GUI svn.r5506)
;
_audit_update_record
;
2019-11-18 deposited with the CCDC.	2020-02-24 downloaded from the CCDC.
;
_cell_angle_alpha                90
_cell_angle_beta                 95.051(2)
_cell_angle_gamma                90
_cell_formula_units_Z            2
_cell_length_a                   15.2966(4)
_cell_length_b                   17.7385(3)
_cell_length_c                   24.6648(5)
_cell_measurement_reflns_used    35516
_cell_measurement_temperature    100.0
_cell_measurement_theta_max      30.3350
_cell_measurement_theta_min      1.9800
_cell_volume                     6666.5(2)
_computing_cell_refinement       'CrysAlisPro 1.171.39.43c (Rigaku OD, 2018)'
_computing_data_collection       'CrysAlisPro 1.171.39.43c (Rigaku OD, 2018)'
_computing_data_reduction        'CrysAlisPro 1.171.39.43c (Rigaku OD, 2018)'
_computing_molecular_graphics    'Olex2 (Dolomanov et al., 2009)'
_computing_publication_material  'Olex2 (Dolomanov et al., 2009)'
_computing_structure_refinement  'ShelXL (Sheldrick, 2015)'
_computing_structure_solution    'SHELXT 2014/5 (Sheldrick, 2014)'
_diffrn_ambient_temperature      100.0
_diffrn_detector                 'CCD plate'
_diffrn_measured_fraction_theta_full 0.999
_diffrn_measured_fraction_theta_max 0.999
_diffrn_measurement_details
;
List of Runs (angles in degrees, time in seconds):

  # Type    Start    End  Width  t~exp~   \w     \q     \k     \f   Frames
#--------------------------------------------------------------------------
  1  \w    -85.00  93.00   0.50   16.00    --    4.00  45.00 120.00  356
  2  \w    -28.00   2.00   0.50   16.00    --  -16.40  45.00 -18.65   60
  3  \w      6.00  72.00   0.50   16.00    --  -16.40  45.00 -18.65  132
  4  \w    -33.00  73.00   0.50   16.00    --  -16.40  45.00  60.00  212
  5  \w   -105.00  72.00   0.50   16.00    --  -16.40  45.00  30.00  354
  6  \w    -88.00 -59.00   0.50   16.00    --  -16.40  45.00 -18.65   58
  7  \w    -12.00  16.00   0.50   16.00    --  -16.40  45.00 153.56   56
;
_diffrn_measurement_device       'four-circle diffractometer'
_diffrn_measurement_device_type  'XtaLAB AFC10 (RCD3): fixed-chi single'
_diffrn_measurement_method       '\w scans'
_diffrn_orient_matrix_type
'CrysAlisPro convention (1999,Acta A55,543-557)'
_diffrn_orient_matrix_UB_11      0.0099989000
_diffrn_orient_matrix_UB_12      -0.0078115000
_diffrn_orient_matrix_UB_13      -0.0269757000
_diffrn_orient_matrix_UB_21      0.0012450000
_diffrn_orient_matrix_UB_22      0.0391950000
_diffrn_orient_matrix_UB_23      -0.0055251000
_diffrn_orient_matrix_UB_31      0.0454734000
_diffrn_orient_matrix_UB_32      0.0005538000
_diffrn_orient_matrix_UB_33      0.0086524000
_diffrn_radiation_monochromator  mirror
_diffrn_radiation_probe          x-ray
_diffrn_radiation_type           MoK\a
_diffrn_radiation_wavelength     0.71073
_diffrn_reflns_av_R_equivalents  0.0441
_diffrn_reflns_av_unetI/netI     0.0292
_diffrn_reflns_Laue_measured_fraction_full 0.999
_diffrn_reflns_Laue_measured_fraction_max 0.999
_diffrn_reflns_limit_h_max       18
_diffrn_reflns_limit_h_min       -18
_diffrn_reflns_limit_k_max       21
_diffrn_reflns_limit_k_min       -21
_diffrn_reflns_limit_l_max       30
_diffrn_reflns_limit_l_min       -30
_diffrn_reflns_number            84020
_diffrn_reflns_point_group_measured_fraction_full 0.999
_diffrn_reflns_point_group_measured_fraction_max 0.999
_diffrn_reflns_theta_full        25.242
_diffrn_reflns_theta_max         25.681
_diffrn_reflns_theta_min         1.896
_diffrn_source                   'Rotating-anode X-ray tube'
_diffrn_source_type              'Rigaku (Mo) X-ray Source'
_exptl_absorpt_coefficient_mu    0.704
_exptl_absorpt_correction_T_max  1.00000
_exptl_absorpt_correction_T_min  0.58578
_exptl_absorpt_correction_type   multi-scan
_exptl_absorpt_process_details
;
CrysAlisPro 1.171.39.43c (Rigaku Oxford Diffraction, 2018)
Empirical absorption correction using spherical harmonics,
 implemented in SCALE3 ABSPACK scaling algorithm.
;
_exptl_crystal_colour            'clear light blue'
_exptl_crystal_density_diffrn    1.292
_exptl_crystal_description       plate
_exptl_crystal_F_000             2704
_exptl_crystal_preparation       'Gas sorption'
_exptl_crystal_size_max          0.3
_exptl_crystal_size_mid          0.2
_exptl_crystal_size_min          0.05
_refine_diff_density_max         0.879
_refine_diff_density_min         -0.557
_refine_diff_density_rms         0.073
_refine_ls_extinction_method     none
_refine_ls_goodness_of_fit_ref   1.039
_refine_ls_hydrogen_treatment    mixed
_refine_ls_matrix_type           full
_refine_ls_number_parameters     667
_refine_ls_number_reflns         12664
_refine_ls_number_restraints     2
_refine_ls_restrained_S_all      1.039
_refine_ls_R_factor_all          0.0701
_refine_ls_R_factor_gt           0.0541
_refine_ls_shift/su_max          0.001
_refine_ls_shift/su_mean         0.000
_refine_ls_structure_factor_coef Fsqd
_refine_ls_weighting_details
'w=1/[\s^2^(Fo^2^)+(0.0986P)^2^+5.2946P] where P=(Fo^2^+2Fc^2^)/3'
_refine_ls_weighting_scheme      calc
_refine_ls_wR_factor_gt          0.1588
_refine_ls_wR_factor_ref         0.1694
_reflns_Friedel_coverage         0.000
_reflns_number_gt                9661
_reflns_number_total             12664
_reflns_threshold_expression     'I > 2\s(I)'
_cod_data_source_file            d0cc00932f2.cif
_cod_data_source_block           gac321_sq
_cod_database_code               7126334
_shelx_shelxl_version_number     2018/3
_chemical_oxdiff_formula         'Cu4 C112 H80 O28 N2'
_shelx_space_group_comment
;
The symmetry employed for this shelxl refinement is uniquely defined
by the following loop, which should always be used as a source of
symmetry information in preference to the above space-group names.
They are only intended as comments.
;
_shelx_estimated_absorpt_t_max   0.966
_shelx_estimated_absorpt_t_min   0.816
_reflns_odcompleteness_completeness 99.92
_reflns_odcompleteness_iscentric 1
_reflns_odcompleteness_theta     25.63
_olex2_refinement_description
;
1. Fixed Uiso
 At 1.2 times of:
  All C(H) groups, All C(H,H) groups
 At 1.5 times of:
  All C(H,H,H) groups
2. Restrained distances
 C1M-O1M
 1.38 with sigma of 0.02
 O1M-H1M
 0.82 with sigma of 0.02
3.a Secondary CH2 refined with riding coordinates:
 C25(H25A,H25B), C26(H26A,H26B), C52(H52A,H52B), C53(H53A,H53B)
3.b Aromatic/amide H refined with riding coordinates:
 C14(H14), C37(H37), C23(H23), C41(H41), C50(H50), C12(H12), C46(H46),
 C21(H21), C39(H39), C47(H47), C38(H38), C6(H6), C2(H2), C48(H48), C31(H31),
 C33(H33), C4(H4), C29(H29), C10(H10), C19(H19), C20(H20), C11(H11), C2D(H2D)
3.c Idealised Me refined as rotating group:
 C27(H27A,H27B,H27C), C4D(H4DA,H4DB,H4DC), C5D(H5DA,H5DB,H5DC), C54(H54A,H54B,
 H54C), C1M(H1MA,H1MB,H1MC)
;
_shelx_res_file
;
TITL gac321_a.res in P2/n
    gac321_sq.res
    created by SHELXL-2018/3 at 16:36:38 on 11-Oct-2019
REM Old TITL GAC321 in P2/n
REM SHELXT solution in P2/n
REM R1 0.168, Rweak 0.006, Alpha 0.040, Orientation as input
REM Formula found by SHELXT: C53 N7 O11 Cu2
CELL 0.71073 15.2966 17.7385 24.6648 90 95.051 90
ZERR 2 0.0004 0.0003 0.0005 0 0.002 0
LATT 1
SYMM 0.5-X,+Y,0.5-Z
SFAC C H Cu N O
UNIT 268 272 8 16 60
DFIX 1.38 C1M O1M
DFIX 0.82 O1M H1M

L.S. 10 0 135
PLAN  10
SIZE 0.05 0.2 0.3
TEMP -173.15
list 4
ABIN
fmap 2 53
acta
OMIT 3 0 1
OMIT 1 3 3
OMIT -3 1 5
REM <olex2.extras>
REM <HklSrc "%.\\GAC321_sq.hkl">
REM </olex2.extras>

WGHT    0.098600    5.294600
FVAR       0.22452
CU2   3   -0.009322    0.712147    0.400202    11.00000    0.04646    0.02839 =
         0.03605   -0.00313   -0.00302   -0.00047
CU1   3    0.011266    0.822549    0.331168    11.00000    0.04826    0.03422 =
         0.03569   -0.00066   -0.00180   -0.00211
O9    5   -0.032466    0.215665    0.544028    11.00000    0.05955    0.03008 =
         0.03567   -0.00186   -0.00394   -0.00593
O8    5   -0.055432    0.122215    0.602335    11.00000    0.06305    0.03589 =
         0.03716    0.00205   -0.00387   -0.00894
O2    5    0.108315    0.144814    0.657936    11.00000    0.05101    0.02771 =
         0.04911    0.00061    0.00098   -0.00156
O3    5    0.128604    0.241693    0.601907    11.00000    0.04668    0.03414 =
         0.04910    0.00461   -0.00158    0.00027
O6    5   -0.042825    0.749665    0.278340    11.00000    0.05559    0.04354 =
         0.04310   -0.01135   -0.00322   -0.00098
O7    5   -0.051085    0.653153    0.336337    11.00000    0.06447    0.04006 =
         0.04491   -0.01034   -0.01289   -0.00077
O1M   5    0.038325    0.915728    0.279611    11.00000    0.05777    0.05402 =
         0.05115    0.01153   -0.00046   -0.00631
O5    5    0.112686    0.685239    0.389471    11.00000    0.04958    0.04498 =
         0.04520   -0.00022    0.00322    0.00601
O1D   5   -0.041929    0.625674    0.457106    11.00000    0.05319    0.03762 =
         0.07834    0.01578   -0.00535   -0.01112
O1    5    0.724620    0.380416    0.447173    11.00000    0.05630    0.06033 =
         0.06490    0.01419    0.01669    0.01791
O4    5    0.126152    0.776611    0.327566    11.00000    0.05042    0.05337 =
         0.04508    0.00400    0.00028    0.00492
C13   1    0.249777    0.165576    0.630534    11.00000    0.05110    0.02512 =
         0.04636   -0.00140   -0.00728   -0.00721
O10   5   -0.153880    0.137928    0.113157    11.00000    0.10551    0.06183 =
         0.05727   -0.01669    0.00341   -0.01196
C14   1    0.300614    0.198158    0.593964    11.00000    0.05031    0.03275 =
         0.05106   -0.00197   -0.00525   -0.00006
AFIX  43
H14   2    0.273652    0.228593    0.565530    11.00000   -1.20000
AFIX   0
C51   1   -0.055983    0.149313    0.555369    11.00000    0.04231    0.03403 =
         0.03973    0.00064   -0.00115   -0.00053
C15   1    0.154812    0.184837    0.629752    11.00000    0.04997    0.02833 =
         0.03710   -0.00746   -0.00456   -0.00378
C40   1   -0.111567    0.637874    0.245695    11.00000    0.04706    0.04232 =
         0.03892   -0.01142   -0.00108    0.00521
C37   1   -0.202244    0.555286    0.164285    11.00000    0.06040    0.04257 =
         0.04133   -0.01241   -0.00782    0.00415
AFIX  43
H37   2   -0.233556    0.527124    0.136135    11.00000   -1.20000
AFIX   0
C23   1    0.281929    0.633638    0.375967    11.00000    0.04983    0.05156 =
         0.04088   -0.00516    0.00064    0.00477
AFIX  43
H23   2    0.246544    0.604040    0.397541    11.00000   -1.20000
AFIX   0
C41   1   -0.113077    0.560301    0.248842    11.00000    0.05647    0.04112 =
         0.03401   -0.00476   -0.00033    0.00450
AFIX  43
H41   2   -0.084295    0.535580    0.279590    11.00000   -1.20000
AFIX   0
C22   1    0.247172    0.698254    0.349695    11.00000    0.04767    0.05832 =
         0.03664   -0.00651   -0.00102    0.00156
C50   1   -0.090434    0.127835    0.456045    11.00000    0.05073    0.02771 =
         0.04086   -0.00178   -0.00454   -0.00045
AFIX  43
H50   2   -0.078099    0.179551    0.450232    11.00000   -1.20000
AFIX   0
C45   1   -0.114068    0.081008    0.411468    11.00000    0.06111    0.03199 =
         0.03891   -0.00057   -0.00648   -0.00163
C12   1    0.288865    0.119436    0.671326    11.00000    0.05645    0.03469 =
         0.05621    0.00376   -0.00963   -0.00655
AFIX  43
H12   2    0.253951    0.095777    0.696416    11.00000   -1.20000
AFIX   0
C49   1   -0.084866    0.099428    0.508598    11.00000    0.04520    0.03130 =
         0.03902   -0.00012   -0.00550   -0.00113
C42   1   -0.064125    0.684040    0.290408    11.00000    0.04701    0.03841 =
         0.04787   -0.01306   -0.00131    0.00687
C25   1    0.786545    0.327794    0.472052    11.00000    0.06057    0.05405 =
         0.04164    0.00378    0.00492    0.01446
AFIX  23
H25A  2    0.770585    0.275782    0.460474    11.00000   -1.20000
H25B  2    0.787611    0.330678    0.512189    11.00000   -1.20000
AFIX   0
C36   1   -0.156539    0.517931    0.207219    11.00000    0.05500    0.03527 =
         0.03797   -0.00456    0.00279    0.00075
C34   1   -0.150835    0.370336    0.207985    11.00000    0.07134    0.04759 =
         0.03542    0.00346   -0.00954   -0.00426
C44   1   -0.121149    0.111237    0.357227    11.00000    0.07145    0.03247 =
         0.04524   -0.00571   -0.00870   -0.00363
C46   1   -0.131088    0.005031    0.420847    11.00000    0.07554    0.03405 =
         0.04476   -0.00677   -0.00979   -0.00765
AFIX  43
H46   2   -0.146261   -0.027626    0.390966    11.00000   -1.20000
AFIX   0
C24   1    0.154770    0.721265    0.355985    11.00000    0.05003    0.04531 =
         0.03869   -0.00958   -0.00530    0.00354
C30   1   -0.146767    0.289461    0.208850    11.00000    0.06656    0.03866 =
         0.04324    0.00440   -0.00919   -0.00561
C35   1   -0.154113    0.437744    0.208281    11.00000    0.06605    0.04301 =
         0.03218   -0.00098   -0.00326   -0.00182
C21   1    0.298634    0.740233    0.317748    11.00000    0.05489    0.06744 =
         0.04895    0.00375   -0.00319    0.00290
AFIX  43
H21   2    0.274883    0.783706    0.299401    11.00000   -1.20000
AFIX   0
C39   1   -0.155948    0.674616    0.201919    11.00000    0.06172    0.03515 =
         0.05657   -0.01056   -0.01251    0.01098
AFIX  43
H39   2   -0.154321    0.728021    0.199300    11.00000   -1.20000
AFIX   0
C9    1    0.391367    0.187425    0.597743    11.00000    0.05341    0.04408 =
         0.06850   -0.00057    0.00202   -0.00224
C47   1   -0.126026   -0.022957    0.473203    11.00000    0.07545    0.02869 =
         0.05516    0.00156   -0.00601   -0.01123
AFIX  43
H47   2   -0.138123   -0.074671    0.479210    11.00000   -1.20000
AFIX   0
C3    1    0.516609    0.323308    0.498587    11.00000    0.05521    0.05740 =
         0.05881   -0.00701    0.00762    0.00264
C38   1   -0.202719    0.632229    0.162039    11.00000    0.07688    0.04057 =
         0.05116   -0.00834   -0.01746    0.01296
AFIX  43
H38   2   -0.235530    0.657003    0.132767    11.00000   -1.20000
AFIX   0
C32   1   -0.133435    0.174251    0.260511    11.00000    0.07240    0.04210 =
         0.03903    0.00009   -0.00862    0.00074
C6    1    0.585506    0.432477    0.434776    11.00000    0.06264    0.05402 =
         0.04701   -0.00067    0.01249    0.00730
AFIX  43
H6    2    0.609767    0.469891    0.412974    11.00000   -1.20000
AFIX   0
C2    1    0.605473    0.321690    0.490409    11.00000    0.06306    0.05106 =
         0.04713   -0.00477    0.00759    0.00996
AFIX  43
H2    2    0.642480    0.283486    0.506779    11.00000   -1.20000
AFIX   0
C43   1   -0.125871    0.137654    0.312692    11.00000    0.07952    0.03386 =
         0.04079   -0.00136   -0.01216   -0.00139
C48   1   -0.103514    0.023746    0.516798    11.00000    0.06143    0.03796 =
         0.04089    0.00406   -0.00499   -0.00744
AFIX  43
H48   2   -0.100696    0.004129    0.552749    11.00000   -1.20000
AFIX   0
C18   1    0.368960    0.612592    0.370447    11.00000    0.04767    0.06728 =
         0.04695   -0.00741   -0.00055    0.00801
C26   1    0.873943    0.348343    0.454152    11.00000    0.06178    0.04516 =
         0.05296   -0.00814   -0.00084    0.01015
AFIX  23
H26A  2    0.919381    0.315614    0.473038    11.00000   -1.20000
H26B  2    0.887663    0.401152    0.464742    11.00000   -1.20000
AFIX   0
C1    1    0.638944    0.375905    0.458440    11.00000    0.05276    0.05496 =
         0.04829   -0.00280    0.01454    0.01022
C31   1   -0.135559    0.251763    0.258859    11.00000    0.08192    0.03751 =
         0.04018   -0.00128   -0.00979   -0.00218
AFIX  43
H31   2   -0.129396    0.279822    0.291781    11.00000   -1.20000
AFIX   0
C5    1    0.497624    0.434564    0.442770    11.00000    0.05620    0.05958 =
         0.05378   -0.00783    0.00371    0.01517
C17   1    0.407406    0.547190    0.397445    11.00000    0.05032    0.06556 =
         0.05453   -0.00863    0.00684    0.01221
C33   1   -0.139935    0.132947    0.211900    11.00000    0.07882    0.03424 =
         0.04932   -0.00242   -0.00473   -0.00477
AFIX  43
H33   2   -0.138676    0.079411    0.212659    11.00000   -1.20000
AFIX   0
C27   1    0.877073    0.340100    0.392988    11.00000    0.06166    0.06187 =
         0.05360   -0.00474    0.00861    0.00356
AFIX 137
H27A  2    0.863731    0.287852    0.382319    11.00000   -1.50000
H27B  2    0.935819    0.353318    0.383109    11.00000   -1.50000
H27C  2    0.833688    0.373818    0.374118    11.00000   -1.50000
AFIX   0
C4    1    0.463385    0.379489    0.474509    11.00000    0.05492    0.06506 =
         0.06254   -0.00375    0.00956    0.00370
AFIX  43
H4    2    0.402649    0.380158    0.479879    11.00000   -1.20000
AFIX   0
C28   1   -0.148210    0.171073    0.162784    11.00000    0.07410    0.05152 =
         0.03902   -0.00630   -0.00638   -0.00954
C8    1    0.442240    0.228276    0.561345    11.00000    0.05062    0.05531 =
         0.07344    0.00178    0.00367    0.00132
C29   1   -0.152745    0.248997    0.161156    11.00000    0.07405    0.04216 =
         0.03758    0.00421   -0.00881   -0.00677
AFIX  43
H29   2   -0.159970    0.274428    0.127160    11.00000   -1.20000
AFIX   0
C10   1    0.430005    0.140757    0.639068    11.00000    0.04700    0.04626 =
         0.09249    0.00728   -0.01139    0.00178
AFIX  43
H10   2    0.491471    0.131803    0.641991    11.00000   -1.20000
AFIX   0
N3D   4   -0.143368    0.566444    0.506326    11.00000    0.06600    0.09192 =
         0.07828    0.03153    0.00139   -0.00087
C19   1    0.419794    0.656616    0.337940    11.00000    0.04742    0.08202 =
         0.05894   -0.00204    0.00527    0.01055
AFIX  43
H19   2    0.478802    0.642684    0.333797    11.00000   -1.20000
AFIX   0
C20   1    0.385088    0.719321    0.312222    11.00000    0.05490    0.08370 =
         0.05654    0.01124    0.00709   -0.00363
AFIX  43
H20   2    0.420149    0.748875    0.290417    11.00000   -1.20000
AFIX   0
C16   1    0.445035    0.495000    0.418049    11.00000    0.05611    0.06463 =
         0.05843   -0.00751    0.00599    0.01226
C7    1    0.478694    0.268792    0.532747    11.00000    0.05483    0.05606 =
         0.07220   -0.00316    0.00569    0.00391
C11   1    0.378105    0.108107    0.675291    11.00000    0.06252    0.03893 =
         0.08240    0.01376   -0.01707   -0.00017
AFIX  43
H11   2    0.404403    0.077116    0.703613    11.00000   -1.20000
AFIX   0
C2D   1   -0.116858    0.607144    0.464857    11.00000    0.08111    0.06336 =
         0.08607    0.02035   -0.01109    0.00530
AFIX  43
H2D   2   -0.161685    0.623505    0.438364    11.00000   -1.20000
AFIX   0
C52   1   -0.140846    0.063438    0.110647    11.00000    0.11100    0.06871 =
         0.08022    0.01140    0.00382    0.00621
AFIX  23
H52A  2   -0.188536    0.035783    0.126686    11.00000   -1.20000
H52B  2   -0.084139    0.049416    0.130541    11.00000   -1.20000
AFIX   0
C4D   1   -0.235017    0.548942    0.509405    11.00000    0.08330    0.09153 =
         0.10462    0.00721    0.00764    0.00296
AFIX 137
H4DA  2   -0.270593    0.577585    0.481552    11.00000   -1.50000
H4DB  2   -0.252141    0.562503    0.545506    11.00000   -1.50000
H4DC  2   -0.244500    0.494865    0.503247    11.00000   -1.50000
AFIX   0
C5D   1   -0.083212    0.533895    0.548795    11.00000    0.09326    0.09085 =
         0.09721    0.02058   -0.00968   -0.00159
AFIX 137
H5DA  2   -0.024832    0.529200    0.535656    11.00000   -1.50000
H5DB  2   -0.104352    0.483931    0.558455    11.00000   -1.50000
H5DC  2   -0.079844    0.566582    0.580944    11.00000   -1.50000
AFIX   0
C53   1   -0.140427    0.044713    0.048166    11.00000    0.13658    0.08523 =
         0.08376   -0.04093    0.01679    0.00117
AFIX  23
H53A  2   -0.141221   -0.010592    0.042753    11.00000   -1.20000
H53B  2   -0.193363    0.066200    0.027874    11.00000   -1.20000
AFIX   0
C54   1   -0.061710    0.076686    0.027819    11.00000    0.19182    0.18496 =
         0.10395   -0.03146    0.04427    0.00158
AFIX 137
H54A  2   -0.054739    0.129076    0.040054    11.00000   -1.50000
H54B  2   -0.067223    0.075118   -0.012052    11.00000   -1.50000
H54C  2   -0.010307    0.047335    0.041793    11.00000   -1.50000
AFIX   0
C1M   1    0.025042    0.987701    0.297527    11.00000    0.24597    0.04604 =
         0.07125    0.00855    0.01278    0.00221
AFIX 137
H1MA  2    0.050727    1.023788    0.273369    11.00000   -1.50000
H1MB  2    0.052992    0.993499    0.334594    11.00000   -1.50000
H1MC  2   -0.038081    0.997225    0.297415    11.00000   -1.50000
AFIX   0
H1M   2    0.084742    0.909656    0.263887    11.00000    0.11534
HKLF 4




REM  gac321_a.res in P2/n
REM wR2 = 0.1694, GooF = S = 1.039, Restrained GooF = 1.039 for all data
REM R1 = 0.0541 for 9661 Fo > 4sig(Fo) and 0.0701 for all 12664 data
REM 667 parameters refined using 2 restraints

END

WGHT      0.0985      5.2945

REM Highest difference peak  0.879,  deepest hole -0.557,  1-sigma level  0.073
Q1    1  -0.1474  0.1384  0.0661  11.00000  0.05    0.88
Q2    1  -0.0499  0.8342  0.3312  11.00000  0.05    0.73
Q3    1  -0.0628  0.7183  0.3891  11.00000  0.05    0.69
Q4    1   0.0785  1.0411  0.2714  11.00000  0.05    0.67
Q5    1  -0.0713  0.5017  0.6003  11.00000  0.05    0.66
Q6    1   0.0451  0.7157  0.3830  11.00000  0.05    0.64
Q7    1  -0.1409  0.0882 -0.0197  11.00000  0.05    0.56
Q8    1  -0.1217  0.1021  0.1344  11.00000  0.05    0.45
Q9    1  -0.0137  0.5472  0.4248  11.00000  0.05    0.44
Q10   1  -0.1432  0.6252  0.5269  11.00000  0.05    0.41
;
_shelx_res_checksum              9552
_shelx_fab_file
;
    2    0    0   -131.49      0.00
    4    0    0    -68.62      0.00
    6    0    0    -30.20      0.00
    8    0    0      4.45      0.00
   10    0    0     10.16      0.00
   12    0    0     -0.66      0.00
   14    0    0      2.68      0.00
   16    0    0     -1.15      0.00
   18    0    0     -2.60      0.00
    2    1    0    -42.70      0.00
    3    1    0    -69.00      0.00
    4    1    0      2.33      0.00
    5    1    0      5.51      0.00
    6    1    0      8.87      0.00
    7    1    0     22.35      0.00
    8    1    0     -2.69      0.00
    9    1    0      8.23      0.00
   10    1    0      0.54      0.00
   11    1    0      1.84      0.00
   12    1    0     -0.10      0.00
   13    1    0     -0.72      0.00
   14    1    0     -0.21      0.00
   15    1    0     -2.20      0.00
   16    1    0      0.70      0.00
   17    1    0     -2.00      0.00
   18    1    0      0.23      0.00
    0    2    0    -20.23      0.00
    1    2    0     18.88      0.00
    2    2    0    -43.22      0.00
    3    2    0    -26.85      0.00
    4    2    0     36.05      0.00
    5    2    0      5.59      0.00
    6    2    0      9.19      0.00
    7    2    0      9.69      0.00
    8    2    0      1.70      0.00
    9    2    0     -3.81      0.00
   10    2    0      0.55      0.00
   11    2    0      2.12      0.00
   12    2    0     -3.92      0.00
   13    2    0     -1.94      0.00
   14    2    0     -0.57      0.00
   15    2    0      0.39      0.00
   16    2    0     -0.02      0.00
   17    2    0      0.51      0.00
   18    2    0      0.24      0.00
    0    3    0    -49.64      0.00
    1    3    0     57.51      0.00
    2    3    0     -5.39      0.00
    3    3    0     21.09      0.00
    4    3    0     28.80      0.00
    5    3    0    -17.29      0.00
    6    3    0      2.86      0.00
    7    3    0     -1.35      0.00
    8    3    0     -6.70      0.00
    9    3    0      0.60      0.00
   10    3    0     -1.59      0.00
   11    3    0     -1.00      0.00
   12    3    0      0.09      0.00
   13    3    0     -0.09      0.00
   14    3    0      0.71      0.00
   15    3    0      0.20      0.00
   16    3    0      1.01      0.00
   17    3    0     -0.69      0.00
   18    3    0     -0.96      0.00
    0    4    0     44.43      0.00
    1    4    0     66.82      0.00
    2    4    0      6.23      0.00
    3    4    0     11.94      0.00
    4    4    0    -24.19      0.00
    5    4    0    -19.74      0.00
    6    4    0     -4.51      0.00
    7    4    0      3.60      0.00
    8    4    0      3.79      0.00
    9    4    0     -0.51      0.00
   10    4    0      0.25      0.00
   11    4    0      1.51      0.00
   12    4    0      0.10      0.00
   13    4    0     -2.13      0.00
   14    4    0      1.25      0.00
   15    4    0     -0.13      0.00
   16    4    0      0.16      0.00
   17    4    0     -0.82      0.00
   18    4    0      0.03      0.00
    0    5    0     -6.78      0.00
    1    5    0     10.12      0.00
    2    5    0     17.17      0.00
    3    5    0    -11.47      0.00
    4    5    0    -17.61      0.00
    5    5    0    -10.51      0.00
    6    5    0      7.02      0.00
    7    5    0      4.33      0.00
    8    5    0     -2.50      0.00
    9    5    0      4.61      0.00
   10    5    0     -2.47      0.00
   11    5    0     -0.56      0.00
   12    5    0     -0.01      0.00
   13    5    0      1.51      0.00
   14    5    0      2.50      0.00
   15    5    0     -0.48      0.00
   16    5    0      0.36      0.00
   17    5    0     -0.92      0.00
   18    5    0      0.89      0.00
    0    6    0    -30.60      0.00
    1    6    0     14.14      0.00
    2    6    0     20.96      0.00
    3    6    0    -13.85      0.00
    4    6    0    -11.84      0.00
    5    6    0      2.00      0.00
    6    6    0      6.16      0.00
    7    6    0      1.26      0.00
    8    6    0      0.27      0.00
    9    6    0      0.57      0.00
   10    6    0     -2.13      0.00
   11    6    0      1.10      0.00
   12    6    0      1.37      0.00
   13    6    0     -0.20      0.00
   14    6    0     -0.28      0.00
   15    6    0     -0.59      0.00
   16    6    0      0.27      0.00
   17    6    0      0.19      0.00
    0    7    0    -23.83      0.00
    1    7    0     26.14      0.00
    2    7    0      3.65      0.00
    3    7    0     -4.47      0.00
    4    7    0      5.70      0.00
    5    7    0     -2.74      0.00
    6    7    0      1.47      0.00
    7    7    0     -0.79      0.00
    8    7    0     -0.63      0.00
    9    7    0     -0.34      0.00
   10    7    0      0.80      0.00
   11    7    0      1.14      0.00
   12    7    0     -0.31      0.00
   13    7    0     -0.42      0.00
   14    7    0      0.39      0.00
   15    7    0      0.35      0.00
   16    7    0      0.56      0.00
   17    7    0     -0.96      0.00
    0    8    0      5.62      0.00
    1    8    0      4.78      0.00
    2    8    0      3.44      0.00
    3    8    0      8.29      0.00
    4    8    0     -6.39      0.00
    5    8    0     -3.18      0.00
    6    8    0      0.38      0.00
    7    8    0      3.05      0.00
    8    8    0     -3.28      0.00
    9    8    0      1.47      0.00
   10    8    0      3.10      0.00
   11    8    0     -2.73      0.00
   12    8    0     -2.22      0.00
   13    8    0      0.92      0.00
   14    8    0     -0.22      0.00
   15    8    0      1.36      0.00
   16    8    0      0.37      0.00
   17    8    0      0.16      0.00
    0    9    0      5.34      0.00
    1    9    0      2.28      0.00
    2    9    0      5.01      0.00
    3    9    0     -6.19      0.00
    4    9    0     -2.66      0.00
    5    9    0      0.02      0.00
    6    9    0     -2.57      0.00
    7    9    0      2.13      0.00
    8    9    0      1.16      0.00
    9    9    0      1.14      0.00
   10    9    0     -0.71      0.00
   11    9    0     -2.33      0.00
   12    9    0      1.02      0.00
   13    9    0      1.40      0.00
   14    9    0     -0.16      0.00
   15    9    0      1.43      0.00
   16    9    0     -0.98      0.00
    0   10    0      1.88      0.00
    1   10    0     -7.04      0.00
    2   10    0     -4.39      0.00
    3   10    0     -6.63      0.00
    4   10    0      3.42      0.00
    5   10    0     -0.58      0.00
    6   10    0      1.42      0.00
    7   10    0      6.20      0.00
    8   10    0     -3.09      0.00
    9   10    0     -0.79      0.00
   10   10    0      2.76      0.00
   11   10    0     -1.12      0.00
   12   10    0     -1.27      0.00
   13   10    0      0.11      0.00
   14   10    0      1.38      0.00
   15   10    0      0.19      0.00
   16   10    0     -1.52      0.00
    0   11    0     -3.82      0.00
    1   11    0     -1.18      0.00
    2   11    0     -3.51      0.00
    3   11    0      0.73      0.00
    4   11    0      6.32      0.00
    5   11    0      2.39      0.00
    6   11    0     -2.00      0.00
    7   11    0     -1.08      0.00
    8   11    0      1.49      0.00
    9   11    0      0.64      0.00
   10   11    0     -0.89      0.00
   11   11    0     -0.96      0.00
   12   11    0      0.16      0.00
   13   11    0      0.62      0.00
   14   11    0      0.03      0.00
   15   11    0     -1.00      0.00
   16   11    0     -1.94      0.00
    0   12    0     -0.49      0.00
    1   12    0     -0.62      0.00
    2   12    0     -0.61      0.00
    3   12    0      1.80      0.00
    4   12    0      3.91      0.00
    5   12    0     -2.48      0.00
    6   12    0     -3.40      0.00
    7   12    0      4.16      0.00
    8   12    0      0.01      0.00
    9   12    0     -1.06      0.00
   10   12    0      0.72      0.00
   11   12    0      0.07      0.00
   12   12    0     -2.17      0.00
   13   12    0     -1.05      0.00
   14   12    0      0.30      0.00
   15   12    0      0.30      0.00
    0   13    0      1.22      0.00
    1   13    0      4.45      0.00
    2   13    0     -0.62      0.00
    3   13    0      0.17      0.00
    4   13    0      0.50      0.00
    5   13    0     -1.90      0.00
    6   13    0     -0.90      0.00
    7   13    0     -1.51      0.00
    8   13    0      3.04      0.00
    9   13    0      0.80      0.00
   10   13    0     -3.25      0.00
   11   13    0     -0.20      0.00
   12   13    0     -0.93      0.00
   13   13    0      0.13      0.00
   14   13    0      1.00      0.00
    0   14    0      3.38      0.00
    1   14    0      1.62      0.00
    2   14    0     -2.26      0.00
    3   14    0     -0.27      0.00
    4   14    0      0.57      0.00
    5   14    0     -0.96      0.00
    6   14    0     -1.16      0.00
    7   14    0      1.11      0.00
    8   14    0      1.07      0.00
    9   14    0     -3.38      0.00
   10   14    0      0.51      0.00
   11   14    0      0.09      0.00
   12   14    0     -1.02      0.00
   13   14    0      0.99      0.00
   14   14    0      0.93      0.00
    0   15    0      0.79      0.00
    1   15    0      1.05      0.00
    2   15    0     -0.73      0.00
    3   15    0      1.51      0.00
    4   15    0      0.13      0.00
    5   15    0     -1.33      0.00
    6   15    0     -0.38      0.00
    7   15    0     -1.41      0.00
    8   15    0      0.14      0.00
    9   15    0      1.30      0.00
   10   15    0     -0.08      0.00
   11   15    0     -0.71      0.00
   12   15    0      2.53      0.00
   13   15    0      0.13      0.00
    0   16    0     -1.13      0.00
    1   16    0     -0.40      0.00
    2   16    0      0.15      0.00
    3   16    0      0.95      0.00
    4   16    0     -0.12      0.00
    5   16    0      0.10      0.00
    6   16    0     -0.33      0.00
    7   16    0      0.07      0.00
    8   16    0     -0.15      0.00
    9   16    0      0.17      0.00
   10   16    0     -0.17      0.00
   11   16    0      1.65      0.00
   12   16    0      0.90      0.00
    0   17    0     -3.30      0.00
    1   17    0      0.39      0.00
    2   17    0      1.78      0.00
    3   17    0      1.04      0.00
    4   17    0      0.99      0.00
    5   17    0     -0.08      0.00
    6   17    0     -0.10      0.00
    7   17    0      0.09      0.00
    8   17    0     -0.53      0.00
    9   17    0      0.38      0.00
   10   17    0     -0.47      0.00
   11   17    0      0.36      0.00
    0   18    0     -1.17      0.00
    1   18    0      1.41      0.00
    2   18    0      0.92      0.00
    3   18    0      0.26      0.00
    4   18    0      1.40      0.00
    5   18    0     -0.22      0.00
    6   18    0     -1.02      0.00
    7   18    0     -0.79      0.00
    8   18    0     -0.99      0.00
    9   18    0      0.10      0.00
   10   18    0      0.12      0.00
    0   19    0     -1.85      0.00
    1   19    0     -0.05      0.00
    2   19    0      1.01      0.00
    3   19    0      0.66      0.00
    4   19    0      0.22      0.00
    5   19    0     -1.24      0.00
    6   19    0      0.30      0.00
    7   19    0      0.94      0.00
    8   19    0      0.05      0.00
    0   20    0      0.32      0.00
    1   20    0      1.86      0.00
    2   20    0     -0.07      0.00
    3   20    0     -0.99      0.00
    4   20    0      0.91      0.00
    5   20    0      0.66      0.00
    6   20    0     -0.52      0.00
    7   20    0     -1.59      0.00
    0   21    0      0.71      0.00
    1   21    0      0.22      0.00
    2   21    0     -0.55      0.00
    3   21    0     -0.60      0.00
    4   21    0      0.43      0.00
  -17    0    1      4.09      0.00
  -15    0    1      2.02      0.00
  -13    0    1     -1.74      0.00
  -11    0    1      5.43      0.00
   -9    0    1    -13.59      0.00
   -7    0    1    -33.64      0.00
   -5    0    1    -14.94      0.00
   -3    0    1     71.28      0.00
    3    0    1    -19.09      0.00
    5    0    1      5.34      0.00
    7    0    1     19.46      0.00
    9    0    1      8.13      0.00
   11    0    1     -1.15      0.00
   13    0    1     -0.16      0.00
   15    0    1     -1.71      0.00
   17    0    1     -0.38      0.00
  -18    1    1      2.99      0.00
  -17    1    1     -0.14      0.00
  -16    1    1     -1.28      0.00
  -15    1    1      0.09      0.00
  -14    1    1     -1.09      0.00
  -13    1    1     -1.15      0.00
  -12    1    1     -2.11      0.00
  -11    1    1      0.43      0.00
  -10    1    1     -7.21      0.00
   -9    1    1      1.48      0.00
   -8    1    1     -2.79      0.00
   -7    1    1     -2.27      0.00
   -6    1    1     21.39      0.00
   -5    1    1      2.03      0.00
   -4    1    1     86.34      0.00
   -3    1    1    -44.29      0.00
   -2    1    1    -34.30      0.00
   -1    1    1     58.76      0.00
    1    1    1      4.00      0.00
    2    1    1     45.90      0.00
    3    1    1    -19.95      0.00
    4    1    1      3.55      0.00
    5    1    1     15.40      0.00
    6    1    1     24.84      0.00
    7    1    1    -11.49      0.00
    8    1    1      2.70      0.00
    9    1    1      3.38      0.00
   10    1    1     -2.89      0.00
   11    1    1     -0.25      0.00
   12    1    1     -2.29      0.00
   13    1    1     -0.80      0.00
   14    1    1     -0.56      0.00
   15    1    1      1.79      0.00
   16    1    1      1.67      0.00
   17    1    1     -0.93      0.00
   18    1    1      0.31      0.00
  -18    2    1     -0.32      0.00
  -17    2    1     -1.72      0.00
  -16    2    1      1.47      0.00
  -15    2    1      0.90      0.00
  -14    2    1     -0.02      0.00
  -13    2    1     -1.69      0.00
  -12    2    1     -1.76      0.00
  -11    2    1      3.25      0.00
  -10    2    1      0.51      0.00
   -9    2    1      1.72      0.00
   -8    2    1    -10.19      0.00
   -7    2    1     11.13      0.00
   -6    2    1      4.47      0.00
   -5    2    1     11.49      0.00
   -4    2    1     29.31      0.00
   -3    2    1    -79.18      0.00
   -2    2    1    -32.09      0.00
   -1    2    1     36.81      0.00
    0    2    1     24.56      0.00
    1    2    1    -12.40      0.00
    2    2    1    -13.26      0.00
    3    2    1     10.39      0.00
    4    2    1     -2.40      0.00
    5    2    1     12.33      0.00
    6    2    1      3.49      0.00
    7    2    1      4.16      0.00
    8    2    1     -1.51      0.00
    9    2    1     -6.50      0.00
   10    2    1      0.43      0.00
   11    2    1     -2.77      0.00
   12    2    1     -2.50      0.00
   13    2    1      1.18      0.00
   14    2    1      2.00      0.00
   15    2    1      1.48      0.00
   16    2    1      0.19      0.00
   17    2    1     -0.57      0.00
   18    2    1     -0.36      0.00
  -18    3    1      0.54      0.00
  -17    3    1      1.17      0.00
  -16    3    1      2.55      0.00
  -15    3    1     -0.13      0.00
  -14    3    1     -0.79      0.00
  -13    3    1     -0.87      0.00
  -12    3    1      0.38      0.00
  -11    3    1     -2.25      0.00
  -10    3    1     -1.50      0.00
   -9    3    1     -1.89      0.00
   -8    3    1      6.58      0.00
   -7    3    1     14.53      0.00
   -6    3    1    -10.32      0.00
   -5    3    1      9.31      0.00
   -4    3    1     -9.16      0.00
   -3    3    1    -43.86      0.00
   -2    3    1    -15.19      0.00
   -1    3    1     -1.98      0.00
    0    3    1     43.31      0.00
    1    3    1     31.98      0.00
    2    3    1      0.19      0.00
    3    3    1      1.22      0.00
    4    3    1    -26.92      0.00
    5    3    1     -7.85      0.00
    6    3    1     15.05      0.00
    7    3    1     -3.85      0.00
    8    3    1     -4.25      0.00
    9    3    1      0.26      0.00
   10    3    1      1.43      0.00
   11    3    1      0.75      0.00
   12    3    1      0.30      0.00
   13    3    1      0.58      0.00
   14    3    1      1.04      0.00
   15    3    1     -0.46      0.00
   16    3    1     -1.55      0.00
   17    3    1     -1.12      0.00
   18    3    1      1.30      0.00
  -18    4    1      1.24      0.00
  -17    4    1      1.12      0.00
  -16    4    1      1.00      0.00
  -15    4    1     -0.42      0.00
  -14    4    1      0.05      0.00
  -13    4    1     -1.22      0.00
  -12    4    1     -2.26      0.00
  -11    4    1      0.62      0.00
  -10    4    1      1.91      0.00
   -9    4    1     -0.73      0.00
   -8    4    1      1.85      0.00
   -7    4    1     -7.39      0.00
   -6    4    1      2.83      0.00
   -5    4    1      0.16      0.00
   -4    4    1    -17.21      0.00
   -3    4    1     23.29      0.00
   -2    4    1    -12.51      0.00
   -1    4    1     13.08      0.00
    0    4    1     63.98      0.00
    1    4    1    -28.77      0.00
    2    4    1    -24.26      0.00
    3    4    1     -7.66      0.00
    4    4    1    -15.38      0.00
    5    4    1      8.51      0.00
    6    4    1     11.05      0.00
    7    4    1      1.15      0.00
    8    4    1     -1.98      0.00
    9    4    1      1.16      0.00
   10    4    1      1.21      0.00
   11    4    1      1.27      0.00
   12    4    1     -2.01      0.00
   13    4    1      0.53      0.00
   14    4    1      1.48      0.00
   15    4    1     -1.26      0.00
   16    4    1     -0.36      0.00
   17    4    1      0.40      0.00
   18    4    1      1.45      0.00
  -18    5    1      0.80      0.00
  -17    5    1      0.60      0.00
  -16    5    1     -0.25      0.00
  -15    5    1      1.21      0.00
  -14    5    1     -0.58      0.00
  -13    5    1     -1.61      0.00
  -12    5    1      1.70      0.00
  -11    5    1     -0.91      0.00
  -10    5    1     -3.94      0.00
   -9    5    1      0.14      0.00
   -8    5    1      2.58      0.00
   -7    5    1      1.65      0.00
   -6    5    1      9.44      0.00
   -5    5    1    -11.37      0.00
   -4    5    1      3.86      0.00
   -3    5    1     26.11      0.00
   -2    5    1    -32.50      0.00
   -1    5    1    -15.49      0.00
    0    5    1     14.54      0.00
    1    5    1      2.18      0.00
    2    5    1      2.72      0.00
    3    5    1      3.11      0.00
    4    5    1    -11.78      0.00
    5    5    1     -0.36      0.00
    6    5    1      8.06      0.00
    7    5    1     -5.62      0.00
    8    5    1      2.52      0.00
    9    5    1     -0.14      0.00
   10    5    1     -1.02      0.00
   11    5    1      2.86      0.00
   12    5    1     -1.50      0.00
   13    5    1      1.82      0.00
   14    5    1     -1.47      0.00
   15    5    1     -0.67      0.00
   16    5    1      0.01      0.00
   17    5    1      0.43      0.00
   18    5    1      1.25      0.00
  -17    6    1      0.25      0.00
  -16    6    1     -0.67      0.00
  -15    6    1      0.82      0.00
  -14    6    1     -1.36      0.00
  -13    6    1      0.80      0.00
  -12    6    1     -0.87      0.00
  -11    6    1     -2.08      0.00
  -10    6    1      0.77      0.00
   -9    6    1      2.36      0.00
   -8    6    1     -2.56      0.00
   -7    6    1     -0.81      0.00
   -6    6    1      8.53      0.00
   -5    6    1     -5.60      0.00
   -4    6    1     10.99      0.00
   -3    6    1      7.80      0.00
   -2    6    1    -25.35      0.00
   -1    6    1    -12.95      0.00
    0    6    1     14.53      0.00
    1    6    1     18.54      0.00
    2    6    1      0.04      0.00
    3    6    1    -14.57      0.00
    4    6    1     -4.79      0.00
    5    6    1      8.89      0.00
    6    6    1     -0.40      0.00
    7    6    1     -3.39      0.00
    8    6    1      3.17      0.00
    9    6    1     -1.05      0.00
   10    6    1      1.37      0.00
   11    6    1      0.70      0.00
   12    6    1     -1.01      0.00
   13    6    1      0.28      0.00
   14    6    1     -0.61      0.00
   15    6    1      1.30      0.00
   16    6    1      0.14      0.00
   17    6    1     -0.46      0.00
  -17    7    1     -0.25      0.00
  -16    7    1     -0.58      0.00
  -15    7    1     -0.63      0.00
  -14    7    1     -0.21      0.00
  -13    7    1     -0.37      0.00
  -12    7    1     -0.71      0.00
  -11    7    1      0.17      0.00
  -10    7    1      1.24      0.00
   -9    7    1     -0.22      0.00
   -8    7    1     -5.36      0.00
   -7    7    1      3.09      0.00
   -6    7    1      5.38      0.00
   -5    7    1     -1.39      0.00
   -4    7    1     -3.38      0.00
   -3    7    1     -7.55      0.00
   -2    7    1     -9.13      0.00
   -1    7    1     -8.82      0.00
    0    7    1     24.50      0.00
    1    7    1     17.37      0.00
    2    7    1    -15.24      0.00
    3    7    1     -2.86      0.00
    4    7    1     -0.02      0.00
    5    7    1     -1.76      0.00
    6    7    1     -3.32      0.00
    7    7    1      1.30      0.00
    8    7    1      4.06      0.00
    9    7    1     -1.12      0.00
   10    7    1     -0.34      0.00
   11    7    1     -0.23      0.00
   12    7    1      0.02      0.00
   13    7    1      0.72      0.00
   14    7    1     -0.13      0.00
   15    7    1      0.20      0.00
   16    7    1     -0.79      0.00
   17    7    1     -0.75      0.00
  -17    8    1     -0.61      0.00
  -16    8    1     -1.77      0.00
  -15    8    1     -0.54      0.00
  -14    8    1      1.12      0.00
  -13    8    1     -0.76      0.00
  -12    8    1      0.75      0.00
  -11    8    1      2.50      0.00
  -10    8    1     -0.67      0.00
   -9    8    1     -3.67      0.00
   -8    8    1     -3.15      0.00
   -7    8    1      1.80      0.00
   -6    8    1      1.09      0.00
   -5    8    1     -1.41      0.00
   -4    8    1     -3.56      0.00
   -3    8    1      7.33      0.00
   -2    8    1      5.97      0.00
   -1    8    1     -2.63      0.00
    0    8    1      5.72      0.00
    1    8    1     -4.35      0.00
    2    8    1      1.07      0.00
    3    8    1     -5.87      0.00
    4    8    1     -1.82      0.00
    5    8    1      3.85      0.00
    6    8    1      3.26      0.00
    7    8    1      0.57      0.00
    8    8    1     -0.69      0.00
    9    8    1      2.81      0.00
   10    8    1     -3.65      0.00
   11    8    1     -1.35      0.00
   12    8    1      2.13      0.00
   13    8    1      0.33      0.00
   14    8    1     -0.82      0.00
   15    8    1     -0.11      0.00
   16    8    1     -0.33      0.00
   17    8    1     -0.50      0.00
  -16    9    1     -0.79      0.00
  -15    9    1      1.84      0.00
  -14    9    1      0.78      0.00
  -13    9    1      0.31      0.00
  -12    9    1      1.72      0.00
  -11    9    1     -0.75      0.00
  -10    9    1     -0.71      0.00
   -9    9    1      0.68      0.00
   -8    9    1     -2.45      0.00
   -7    9    1     -5.48      0.00
   -6    9    1      1.75      0.00
   -5    9    1      4.76      0.00
   -4    9    1      2.23      0.00
   -3    9    1      7.15      0.00
   -2    9    1     -3.81      0.00
   -1    9    1     -2.08      0.00
    0    9    1     -0.67      0.00
    1    9    1      0.49      0.00
    2    9    1     -3.77      0.00
    3    9    1     -3.28      0.00
    4    9    1      5.39      0.00
    5    9    1     -0.29      0.00
    6    9    1      0.66      0.00
    7    9    1     -0.98      0.00
    8    9    1      2.08      0.00
    9    9    1     -1.26      0.00
   10    9    1     -2.86      0.00
   11    9    1      1.82      0.00
   12    9    1      1.42      0.00
   13    9    1     -2.05      0.00
   14    9    1     -0.56      0.00
   15    9    1     -0.28      0.00
   16    9    1     -0.02      0.00
  -16   10    1     -1.20      0.00
  -15   10    1      0.75      0.00
  -14   10    1     -0.35      0.00
  -13   10    1     -1.31      0.00
  -12   10    1     -0.70      0.00
  -11   10    1      0.94      0.00
  -10   10    1     -0.16      0.00
   -9   10    1     -1.53      0.00
   -8   10    1     -3.79      0.00
   -7   10    1      0.95      0.00
   -6   10    1      6.24      0.00
   -5   10    1      0.38      0.00
   -4   10    1      5.02      0.00
   -3   10    1      0.27      0.00
   -2   10    1     -4.36      0.00
   -1   10    1     -1.37      0.00
    0   10    1    -10.23      0.00
    1   10    1     -2.33      0.00
    2   10    1      2.32      0.00
    3   10    1      6.43      0.00
    4   10    1      0.61      0.00
    5   10    1     -1.31      0.00
    6   10    1      4.07      0.00
    7   10    1     -2.61      0.00
    8   10    1     -2.42      0.00
    9   10    1      2.99      0.00
   10   10    1     -1.53      0.00
   11   10    1     -2.16      0.00
   12   10    1      1.10      0.00
   13   10    1      0.44      0.00
   14   10    1      1.18      0.00
   15   10    1     -0.81      0.00
   16   10    1      0.34      0.00
  -16   11    1     -0.02      0.00
  -15   11    1      0.91      0.00
  -14   11    1     -1.40      0.00
  -13   11    1      0.79      0.00
  -12   11    1      0.51      0.00
  -11   11    1     -0.21      0.00
  -10   11    1      0.14      0.00
   -9   11    1      2.83      0.00
   -8   11    1     -0.05      0.00
   -7   11    1     -1.78      0.00
   -6   11    1     -2.95      0.00
   -5   11    1      1.57      0.00
   -4   11    1      4.05      0.00
   -3   11    1     -5.90      0.00
   -2   11    1     -2.07      0.00
   -1   11    1      0.32      0.00
    0   11    1     -0.27      0.00
    1   11    1      2.01      0.00
    2   11    1      3.86      0.00
    3   11    1      3.37      0.00
    4   11    1     -2.36      0.00
    5   11    1     -1.79      0.00
    6   11    1     -0.40      0.00
    7   11    1      0.14      0.00
    8   11    1      1.82      0.00
    9   11    1     -0.85      0.00
   10   11    1     -2.23      0.00
   11   11    1      0.97      0.00
   12   11    1      0.69      0.00
   13   11    1     -0.19      0.00
   14   11    1     -0.50      0.00
   15   11    1     -1.07      0.00
  -15   12    1     -0.62      0.00
  -14   12    1      1.55      0.00
  -13   12    1     -0.70      0.00
  -12   12    1      0.01      0.00
  -11   12    1      1.20      0.00
  -10   12    1     -0.17      0.00
   -9   12    1     -0.08      0.00
   -8   12    1     -2.06      0.00
   -7   12    1      0.40      0.00
   -6   12    1      0.66      0.00
   -5   12    1      2.43      0.00
   -4   12    1      0.24      0.00
   -3   12    1     -2.21      0.00
   -2   12    1      1.22      0.00
   -1   12    1      0.72      0.00
    0   12    1     -1.89      0.00
    1   12    1     -1.04      0.00
    2   12    1      1.15      0.00
    3   12    1      1.10      0.00
    4   12    1     -2.16      0.00
    5   12    1     -3.86      0.00
    6   12    1      5.05      0.00
    7   12    1      1.13      0.00
    8   12    1     -3.38      0.00
    9   12    1      0.80      0.00
   10   12    1      0.41      0.00
   11   12    1     -1.73      0.00
   12   12    1     -0.06      0.00
   13   12    1      1.65      0.00
   14   12    1      0.56      0.00
   15   12    1      0.49      0.00
  -14   13    1     -0.21      0.00
  -13   13    1     -1.79      0.00
  -12   13    1      0.56      0.00
  -11   13    1     -1.18      0.00
  -10   13    1     -0.96      0.00
   -9   13    1      3.58      0.00
   -8   13    1      2.58      0.00
   -7   13    1     -1.78      0.00
   -6   13    1     -2.22      0.00
   -5   13    1      1.48      0.00
   -4   13    1     -1.14      0.00
   -3   13    1     -0.83      0.00
   -2   13    1     -1.43      0.00
   -1   13    1      0.49      0.00
    0   13    1      4.15      0.00
    1   13    1     -0.86      0.00
    2   13    1     -0.63      0.00
    3   13    1      1.47      0.00
    4   13    1     -2.66      0.00
    5   13    1      0.32      0.00
    6   13    1      1.89      0.00
    7   13    1     -0.37      0.00
    8   13    1      1.36      0.00
    9   13    1     -2.72      0.00
   10   13    1     -0.03      0.00
   11   13    1      0.21      0.00
   12   13    1     -0.28      0.00
   13   13    1     -0.12      0.00
   14   13    1      1.05      0.00
  -14   14    1     -1.22      0.00
  -13   14    1     -0.64      0.00
  -12   14    1      2.63      0.00
  -11   14    1      0.65      0.00
  -10   14    1      1.29      0.00
   -9   14    1      0.15      0.00
   -8   14    1     -1.37      0.00
   -7   14    1     -0.62      0.00
   -6   14    1      2.01      0.00
   -5   14    1     -0.33      0.00
   -4   14    1     -1.22      0.00
   -3   14    1      0.12      0.00
   -2   14    1     -1.62      0.00
   -1   14    1      2.86      0.00
    0   14    1      1.82      0.00
    1   14    1     -1.91      0.00
    2   14    1      0.24      0.00
    3   14    1      1.10      0.00
    4   14    1     -1.09      0.00
    5   14    1     -1.21      0.00
    6   14    1     -0.16      0.00
    7   14    1      1.88      0.00
    8   14    1     -2.93      0.00
    9   14    1     -0.76      0.00
   10   14    1      3.19      0.00
   11   14    1     -1.40      0.00
   12   14    1      0.05      0.00
   13   14    1      1.31      0.00
   14   14    1      2.01      0.00
  -13   15    1      1.58      0.00
  -12   15    1      0.38      0.00
  -11   15    1     -1.40      0.00
  -10   15    1     -1.12      0.00
   -9   15    1     -0.24      0.00
   -8   15    1      3.17      0.00
   -7   15    1     -0.34      0.00
   -6   15    1     -1.50      0.00
   -5   15    1     -0.62      0.00
   -4   15    1      0.15      0.00
   -3   15    1     -0.13      0.00
   -2   15    1     -0.42      0.00
   -1   15    1      1.01      0.00
    0   15    1      2.36      0.00
    1   15    1     -0.39      0.00
    2   15    1     -0.35      0.00
    3   15    1      0.07      0.00
    4   15    1     -2.82      0.00
    5   15    1     -0.79      0.00
    6   15    1      1.15      0.00
    7   15    1      0.85      0.00
    8   15    1     -0.82      0.00
    9   15    1      1.26      0.00
   10   15    1      0.48      0.00
   11   15    1      1.05      0.00
   12   15    1     -0.65      0.00
   13   15    1     -0.43      0.00
  -12   16    1      0.06      0.00
  -11   16    1      0.70      0.00
  -10   16    1      0.26      0.00
   -9   16    1     -0.24      0.00
   -8   16    1      0.25      0.00
   -7   16    1     -1.83      0.00
   -6   16    1     -0.56      0.00
   -5   16    1      1.55      0.00
   -4   16    1      0.92      0.00
   -3   16    1     -0.53      0.00
   -2   16    1     -0.79      0.00
   -1   16    1     -1.82      0.00
    0   16    1     -0.06      0.00
    1   16    1     -0.82      0.00
    2   16    1      0.81      0.00
    3   16    1      0.69      0.00
    4   16    1     -0.95      0.00
    5   16    1      0.71      0.00
    6   16    1      0.43      0.00
    7   16    1     -1.20      0.00
    8   16    1     -0.44      0.00
    9   16    1      0.94      0.00
   10   16    1      0.45      0.00
   11   16    1      0.27      0.00
   12   16    1     -1.85      0.00
  -11   17    1     -0.50      0.00
  -10   17    1     -1.24      0.00
   -9   17    1     -0.77      0.00
   -8   17    1     -0.15      0.00
   -7   17    1     -0.33      0.00
   -6   17    1      0.98      0.00
   -5   17    1      2.30      0.00
   -4   17    1     -0.88      0.00
   -3   17    1     -0.25      0.00
   -2   17    1     -1.03      0.00
   -1   17    1     -2.51      0.00
    0   17    1      1.66      0.00
    1   17    1      2.41      0.00
    2   17    1      2.71      0.00
    3   17    1     -0.03      0.00
    4   17    1     -0.82      0.00
    5   17    1     -0.56      0.00
    6   17    1     -0.14      0.00
    7   17    1     -1.14      0.00
    8   17    1      1.20      0.00
    9   17    1     -0.39      0.00
   10   17    1      0.19      0.00
   11   17    1     -0.10      0.00
  -10   18    1      0.57      0.00
   -9   18    1     -0.51      0.00
   -8   18    1      0.02      0.00
   -7   18    1      0.73      0.00
   -6   18    1      0.63      0.00
   -5   18    1      1.09      0.00
   -4   18    1     -0.59      0.00
   -3   18    1     -0.51      0.00
   -2   18    1     -1.29      0.00
   -1   18    1     -0.01      0.00
    0   18    1      1.17      0.00
    1   18    1      1.38      0.00
    2   18    1     -0.24      0.00
    3   18    1      0.02      0.00
    4   18    1     -0.72      0.00
    5   18    1     -1.00      0.00
    6   18    1     -1.04      0.00
    7   18    1      0.63      0.00
    8   18    1      1.33      0.00
    9   18    1     -0.13      0.00
   10   18    1      0.28      0.00
   -8   19    1      0.00      0.00
   -7   19    1      0.71      0.00
   -6   19    1      1.12      0.00
   -5   19    1      0.34      0.00
   -4   19    1     -0.95      0.00
   -3   19    1     -0.10      0.00
   -2   19    1      1.10      0.00
   -1   19    1     -1.13      0.00
    0   19    1     -0.51      0.00
    1   19    1      1.63      0.00
    2   19    1      0.03      0.00
    3   19    1     -0.81      0.00
    4   19    1     -0.05      0.00
    5   19    1     -0.17      0.00
    6   19    1      0.92      0.00
    7   19    1      0.21      0.00
    8   19    1     -0.44      0.00
   -7   20    1     -0.52      0.00
   -6   20    1     -1.27      0.00
   -5   20    1      1.19      0.00
   -4   20    1      0.09      0.00
   -3   20    1     -0.11      0.00
   -2   20    1     -0.56      0.00
   -1   20    1     -0.46      0.00
    0   20    1      1.39      0.00
    1   20    1     -0.03      0.00
    2   20    1     -1.98      0.00
    3   20    1      0.67      0.00
    4   20    1      1.41      0.00
    5   20    1     -0.93      0.00
    6   20    1     -1.37      0.00
   -4   21    1     -0.36      0.00
   -3   21    1     -0.26      0.00
   -2   21    1     -0.70      0.00
   -1   21    1     -0.17      0.00
    0   21    1     -0.16      0.00
    1   21    1     -0.33      0.00
    2   21    1     -0.50      0.00
    3   21    1      0.93      0.00
    4   21    1     -0.26      0.00
  -18    0    2      3.27      0.00
  -16    0    2     -2.79      0.00
  -14    0    2     -0.63      0.00
  -12    0    2      1.76      0.00
  -10    0    2    -12.43      0.00
   -8    0    2     -8.10      0.00
   -6    0    2     20.52      0.00
   -4    0    2     67.11      0.00
   -2    0    2      0.88      0.00
    2    0    2      0.70      0.00
    4    0    2     12.63      0.00
    6    0    2     16.47      0.00
    8    0    2     -2.36      0.00
   10    0    2     -2.49      0.00
   12    0    2     -0.25      0.00
   14    0    2      2.29      0.00
   16    0    2     -0.12      0.00
   18    0    2     -0.27      0.00
  -18    1    2     -0.17      0.00
  -17    1    2     -2.44      0.00
  -16    1    2      0.23      0.00
  -15    1    2      0.63      0.00
  -14    1    2     -0.88      0.00
  -13    1    2     -0.83      0.00
  -12    1    2      0.54      0.00
  -11    1    2     -2.95      0.00
  -10    1    2      0.49      0.00
   -9    1    2      9.00      0.00
   -8    1    2     -7.69      0.00
   -7    1    2     13.52      0.00
   -6    1    2      0.34      0.00
   -5    1    2     23.45      0.00
   -4    1    2    -20.22      0.00
   -3    1    2    -79.38      0.00
   -2    1    2     48.62      0.00
   -1    1    2     -6.60      0.00
    0    1    2     39.48      0.00
    1    1    2     17.86      0.00
    2    1    2    -74.92      0.00
    3    1    2    -14.97      0.00
    4    1    2     28.29      0.00
    5    1    2     30.55      0.00
    6    1    2    -12.31      0.00
    7    1    2     -2.97      0.00
    8    1    2      8.91      0.00
    9    1    2     -7.39      0.00
   10    1    2     -2.67      0.00
   11    1    2     -1.15      0.00
   12    1    2     -0.38      0.00
   13    1    2      1.08      0.00
   14    1    2      2.21      0.00
   15    1    2      0.79      0.00
   16    1    2     -1.67      0.00
   17    1    2     -0.46      0.00
   18    1    2      0.78      0.00
  -18    2    2      0.06      0.00
  -17    2    2      1.89      0.00
  -16    2    2      2.15      0.00
  -15    2    2     -0.89      0.00
  -14    2    2     -1.52      0.00
  -13    2    2     -0.37      0.00
  -12    2    2      1.83      0.00
  -11    2    2     -1.16      0.00
  -10    2    2      0.20      0.00
   -9    2    2     -2.50      0.00
   -8    2    2      3.26      0.00
   -7    2    2     10.49      0.00
   -6    2    2     -4.83      0.00
   -5    2    2      7.88      0.00
   -4    2    2    -22.97      0.00
   -3    2    2    -19.98      0.00
   -2    2    2     43.02      0.00
   -1    2    2     28.91      0.00
    0    2    2    -68.45      0.00
    1    2    2    -31.15      0.00
    2    2    2     27.01      0.00
    3    2    2    -11.83      0.00
    4    2    2     32.57      0.00
    5    2    2      6.19      0.00
    6    2    2     -4.43      0.00
    7    2    2      4.48      0.00
    8    2    2    -13.96      0.00
    9    2    2     -2.95      0.00
   10    2    2      2.43      0.00
   11    2    2      0.60      0.00
   12    2    2      1.45      0.00
   13    2    2      2.20      0.00
   14    2    2     -0.22      0.00
   15    2    2     -0.25      0.00
   16    2    2     -1.11      0.00
   17    2    2     -0.39      0.00
   18    2    2      0.63      0.00
  -18    3    2      0.71      0.00
  -17    3    2      2.30      0.00
  -16    3    2     -0.17      0.00
  -15    3    2     -2.96      0.00
  -14    3    2     -1.24      0.00
  -13    3    2     -0.30      0.00
  -12    3    2     -0.86      0.00
  -11    3    2      0.16      0.00
  -10    3    2      2.95      0.00
   -9    3    2      5.54      0.00
   -8    3    2     10.70      0.00
   -7    3    2    -10.65      0.00
   -6    3    2    -11.08      0.00
   -5    3    2     14.58      0.00
   -4    3    2    -20.46      0.00
   -3    3    2    -33.81      0.00
   -2    3    2     39.43      0.00
   -1    3    2     15.08      0.00
    0    3    2     -6.61      0.00
    1    3    2     36.35      0.00
    2    3    2    -23.42      0.00
    3    3    2    -23.47      0.00
    4    3    2     10.89      0.00
    5    3    2     14.43      0.00
    6    3    2      0.36      0.00
    7    3    2     -9.92      0.00
    8    3    2      3.35      0.00
    9    3    2      4.77      0.00
   10    3    2      3.11      0.00
   11    3    2     -2.27      0.00
   12    3    2      0.12      0.00
   13    3    2     -0.61      0.00
   14    3    2     -1.06      0.00
   15    3    2     -0.16      0.00
   16    3    2     -0.63      0.00
   17    3    2      1.79      0.00
   18    3    2      0.63      0.00
  -18    4    2      0.81      0.00
  -17    4    2      1.78      0.00
  -16    4    2     -0.78      0.00
  -15    4    2     -0.96      0.00
  -14    4    2     -0.11      0.00
  -13    4    2     -0.79      0.00
  -12    4    2      1.50      0.00
  -11    4    2      2.90      0.00
  -10    4    2     -2.47      0.00
   -9    4    2     -0.57      0.00
   -8    4    2      1.25      0.00
   -7    4    2     -3.30      0.00
   -6    4    2      7.77      0.00
   -5    4    2      1.97      0.00
   -4    4    2    -10.55      0.00
   -3    4    2     -0.92      0.00
   -2    4    2     16.66      0.00
   -1    4    2      9.06      0.00
    0    4    2    -12.25      0.00
    1    4    2    -13.96      0.00
    2    4    2      6.67      0.00
    3    4    2      3.50      0.00
    4    4    2      2.27      0.00
    5    4    2      3.76      0.00
    6    4    2     -6.00      0.00
    7    4    2     -1.04      0.00
    8    4    2      2.35      0.00
    9    4    2      2.29      0.00
   10    4    2     -1.59      0.00
   11    4    2     -1.53      0.00
   12    4    2     -1.15      0.00
   13    4    2      1.62      0.00
   14    4    2     -0.57      0.00
   15    4    2      0.14      0.00
   16    4    2      0.94      0.00
   17    4    2      1.44      0.00
   18    4    2      0.53      0.00
  -18    5    2      0.57      0.00
  -17    5    2     -0.29      0.00
  -16    5    2     -0.86      0.00
  -15    5    2     -0.81      0.00
  -14    5    2     -2.05      0.00
  -13    5    2      0.06      0.00
  -12    5    2     -0.66      0.00
  -11    5    2     -1.93      0.00
  -10    5    2     -0.20      0.00
   -9    5    2      4.53      0.00
   -8    5    2      1.12      0.00
   -7    5    2     -1.06      0.00
   -6    5    2      1.52      0.00
   -5    5    2     -5.04      0.00
   -4    5    2      0.36      0.00
   -3    5    2    -14.13      0.00
   -2    5    2     -9.96      0.00
   -1    5    2     31.57      0.00
    0    5    2     11.13      0.00
    1    5    2    -11.08      0.00
    2    5    2      9.45      0.00
    3    5    2    -16.41      0.00
    4    5    2    -20.12      0.00
    5    5    2     12.83      0.00
    6    5    2      2.81      0.00
    7    5    2      0.96      0.00
    8    5    2      3.79      0.00
    9    5    2     -2.18      0.00
   10    5    2      3.02      0.00
   11    5    2     -2.98      0.00
   12    5    2     -0.35      0.00
   13    5    2      0.52      0.00
   14    5    2     -1.30      0.00
   15    5    2      0.68      0.00
   16    5    2      0.01      0.00
   17    5    2      1.44      0.00
  -17    6    2     -1.62      0.00
  -16    6    2      0.44      0.00
  -15    6    2     -0.68      0.00
  -14    6    2     -0.65      0.00
  -13    6    2     -0.11      0.00
  -12    6    2     -1.00      0.00
  -11    6    2      1.61      0.00
  -10    6    2      0.88      0.00
   -9    6    2     -2.39      0.00
   -8    6    2     -4.32      0.00
   -7    6    2      8.79      0.00
   -6    6    2      6.42      0.00
   -5    6    2     -6.68      0.00
   -4    6    2      0.82      0.00
   -3    6    2    -12.73      0.00
   -2    6    2      3.70      0.00
   -1    6    2     22.93      0.00
    0    6    2     -9.75      0.00
    1    6    2     -2.79      0.00
    2    6    2      0.75      0.00
    3    6    2    -17.80      0.00
    4    6    2      7.41      0.00
    5    6    2      9.13      0.00
    6    6    2     -5.30      0.00
    7    6    2      1.52      0.00
    8    6    2      0.01      0.00
    9    6    2     -0.57      0.00
   10    6    2      0.25      0.00
   11    6    2     -1.10      0.00
   12    6    2      1.71      0.00
   13    6    2     -0.44      0.00
   14    6    2     -0.40      0.00
   15    6    2      0.20      0.00
   16    6    2     -1.12      0.00
   17    6    2     -0.79      0.00
  -17    7    2     -0.83      0.00
  -16    7    2      0.69      0.00
  -15    7    2     -0.48      0.00
  -14    7    2      0.38      0.00
  -13    7    2     -0.02      0.00
  -12    7    2     -0.43      0.00
  -11    7    2     -0.10      0.00
  -10    7    2      0.26      0.00
   -9    7    2     -3.19      0.00
   -8    7    2     -2.08      0.00
   -7    7    2      9.65      0.00
   -6    7    2     -3.65      0.00
   -5    7    2     -6.44      0.00
   -4    7    2      1.37      0.00
   -3    7    2     -1.58      0.00
   -2    7    2      1.73      0.00
   -1    7    2      7.35      0.00
    0    7    2      5.58      0.00
    1    7    2    -10.82      0.00
    2    7    2     -8.86      0.00
    3    7    2      2.19      0.00
    4    7    2      2.95      0.00
    5    7    2     -0.23      0.00
    6    7    2      2.50      0.00
    7    7    2      6.77      0.00
    8    7    2     -2.30      0.00
    9    7    2     -2.64      0.00
   10    7    2      2.63      0.00
   11    7    2      0.03      0.00
   12    7    2     -0.36      0.00
   13    7    2     -2.56      0.00
   14    7    2     -0.35      0.00
   15    7    2     -0.86      0.00
   16    7    2     -0.81      0.00
   17    7    2     -0.22      0.00
  -17    8    2     -0.08      0.00
  -16    8    2      0.71      0.00
  -15    8    2      2.77      0.00
  -14    8    2      0.19      0.00
  -13    8    2     -0.44      0.00
  -12    8    2      0.31      0.00
  -11    8    2      0.47      0.00
  -10    8    2     -0.06      0.00
   -9    8    2     -4.27      0.00
   -8    8    2      1.23      0.00
   -7    8    2      2.83      0.00
   -6    8    2     -0.97      0.00
   -5    8    2      4.31      0.00
   -4    8    2      4.42      0.00
   -3    8    2     -1.17      0.00
   -2    8    2     -9.28      0.00
   -1    8    2     -2.32      0.00
    0    8    2      0.09      0.00
    1    8    2      3.75      0.00
    2    8    2      1.96      0.00
    3    8    2      0.85      0.00
    4    8    2      4.59      0.00
    5    8    2     -0.44      0.00
    6    8    2      0.54      0.00
    7    8    2     -3.25      0.00
    8    8    2     -0.65      0.00
    9    8    2     -0.21      0.00
   10    8    2     -2.07      0.00
   11    8    2      1.82      0.00
   12    8    2     -0.58      0.00
   13    8    2     -1.44      0.00
   14    8    2     -0.40      0.00
   15    8    2      0.42      0.00
   16    8    2      0.45      0.00
   17    8    2     -0.42      0.00
  -16    9    2      0.78      0.00
  -15    9    2     -0.37      0.00
  -14    9    2     -1.29      0.00
  -13    9    2     -0.45      0.00
  -12    9    2     -1.85      0.00
  -11    9    2     -0.95      0.00
  -10    9    2      0.84      0.00
   -9    9    2     -2.52      0.00
   -8    9    2     -3.81      0.00
   -7    9    2      2.10      0.00
   -6    9    2      7.79      0.00
   -5    9    2      2.38      0.00
   -4    9    2     -1.40      0.00
   -3    9    2     -2.37      0.00
   -2    9    2     -6.16      0.00
   -1    9    2     -1.95      0.00
    0    9    2      5.26      0.00
    1    9    2      2.43      0.00
    2    9    2     -5.74      0.00
    3    9    2      4.31      0.00
    4    9    2     -2.10      0.00
    5    9    2     -2.23      0.00
    6    9    2     -0.43      0.00
    7    9    2      2.17      0.00
    8    9    2      1.58      0.00
    9    9    2     -5.20      0.00
   10    9    2      2.33      0.00
   11    9    2      1.54      0.00
   12    9    2     -1.96      0.00
   13    9    2     -0.25      0.00
   14    9    2      1.75      0.00
   15    9    2      1.62      0.00
   16    9    2      0.42      0.00
  -16   10    2     -1.24      0.00
  -15   10    2      0.15      0.00
  -14   10    2      0.70      0.00
  -13   10    2     -0.67      0.00
  -12   10    2      0.81      0.00
  -11   10    2      1.68      0.00
  -10   10    2      0.94      0.00
   -9   10    2     -0.44      0.00
   -8   10    2      0.69      0.00
   -7   10    2      4.53      0.00
   -6   10    2      0.24      0.00
   -5   10    2     -2.17      0.00
   -4   10    2      1.76      0.00
   -3   10    2     -3.88      0.00
   -2   10    2     -6.77      0.00
   -1   10    2     -4.06      0.00
    0   10    2      4.81      0.00
    1   10    2      6.24      0.00
    2   10    2      3.33      0.00
    3   10    2     -1.54      0.00
    4   10    2     -2.54      0.00
    5   10    2      3.81      0.00
    6   10    2     -0.31      0.00
    7   10    2     -2.36      0.00
    8   10    2      0.61      0.00
    9   10    2     -1.15      0.00
   10   10    2     -1.07      0.00
   11   10    2      1.62      0.00
   12   10    2      0.51      0.00
   13   10    2      0.84      0.00
   14   10    2      0.09      0.00
   15   10    2     -0.70      0.00
   16   10    2     -0.64      0.00
  -16   11    2      0.78      0.00
  -15   11    2      0.36      0.00
  -14   11    2      1.09      0.00
  -13   11    2      1.92      0.00
  -12   11    2      0.15      0.00
  -11   11    2     -0.59      0.00
  -10   11    2      1.79      0.00
   -9   11    2      0.16      0.00
   -8   11    2     -3.51      0.00
   -7   11    2     -1.35      0.00
   -6   11    2     -0.44      0.00
   -5   11    2      3.10      0.00
   -4   11    2      0.48      0.00
   -3   11    2     -4.10      0.00
   -2   11    2      1.90      0.00
   -1   11    2      2.02      0.00
    0   11    2      0.11      0.00
    1   11    2      1.29      0.00
    2   11    2     -1.09      0.00
    3   11    2     -3.86      0.00
    4   11    2      1.76      0.00
    5   11    2      1.88      0.00
    6   11    2     -2.47      0.00
    7   11    2      0.74      0.00
    8   11    2      0.14      0.00
    9   11    2     -3.25      0.00
   10   11    2      2.44      0.00
   11   11    2      1.73      0.00
   12   11    2     -0.91      0.00
   13   11    2      0.49      0.00
   14   11    2     -0.43      0.00
   15   11    2     -0.29      0.00
  -15   12    2      0.10      0.00
  -14   12    2      1.46      0.00
  -13   12    2     -0.54      0.00
  -12   12    2     -0.24      0.00
  -11   12    2     -0.91      0.00
  -10   12    2      0.03      0.00
   -9   12    2      0.02      0.00
   -8   12    2      1.21      0.00
   -7   12    2      0.98      0.00
   -6   12    2     -2.57      0.00
   -5   12    2      1.70      0.00
   -4   12    2     -0.35      0.00
   -3   12    2     -1.41      0.00
   -2   12    2      1.87      0.00
   -1   12    2     -2.59      0.00
    0   12    2     -1.87      0.00
    1   12    2      3.76      0.00
    2   12    2      1.49      0.00
    3   12    2     -0.58      0.00
    4   12    2     -0.77      0.00
    5   12    2      1.71      0.00
    6   12    2      0.23      0.00
    7   12    2     -3.25      0.00
    8   12    2      0.53      0.00
    9   12    2      2.21      0.00
   10   12    2     -1.44      0.00
   11   12    2     -0.58      0.00
   12   12    2      1.66      0.00
   13   12    2     -0.58      0.00
   14   12    2     -0.44      0.00
   15   12    2      0.09      0.00
  -14   13    2     -1.96      0.00
  -13   13    2      0.54      0.00
  -12   13    2      0.47      0.00
  -11   13    2     -0.80      0.00
  -10   13    2      2.20      0.00
   -9   13    2      1.83      0.00
   -8   13    2     -0.85      0.00
   -7   13    2     -4.09      0.00
   -6   13    2      0.91      0.00
   -5   13    2      1.88      0.00
   -4   13    2     -1.19      0.00
   -3   13    2      0.43      0.00
   -2   13    2      2.42      0.00
   -1   13    2      1.77      0.00
    0   13    2      0.06      0.00
    1   13    2     -0.11      0.00
    2   13    2      0.28      0.00
    3   13    2     -3.09      0.00
    4   13    2     -0.89      0.00
    5   13    2      3.39      0.00
    6   13    2     -2.54      0.00
    7   13    2     -0.03      0.00
    8   13    2      0.51      0.00
    9   13    2     -1.33      0.00
   10   13    2     -0.32      0.00
   11   13    2      0.40      0.00
   12   13    2     -0.05      0.00
   13   13    2      0.53      0.00
   14   13    2      1.87      0.00
  -14   14    2      0.75      0.00
  -13   14    2      2.34      0.00
  -12   14    2      1.76      0.00
  -11   14    2     -1.06      0.00
  -10   14    2     -0.03      0.00
   -9   14    2      0.07      0.00
   -8   14    2      0.00      0.00
   -7   14    2      1.16      0.00
   -6   14    2     -0.21      0.00
   -5   14    2     -2.41      0.00
   -4   14    2      1.05      0.00
   -3   14    2      0.64      0.00
   -2   14    2      0.32      0.00
   -1   14    2      2.11      0.00
    0   14    2     -1.40      0.00
    1   14    2     -0.06      0.00
    2   14    2     -0.50      0.00
    3   14    2     -2.72      0.00
    4   14    2     -0.45      0.00
    5   14    2      0.10      0.00
    6   14    2      0.83      0.00
    7   14    2     -0.31      0.00
    8   14    2     -1.06      0.00
    9   14    2      3.78      0.00
   10   14    2     -0.62      0.00
   11   14    2     -1.67      0.00
   12   14    2      0.53      0.00
   13   14    2      2.12      0.00
   14   14    2     -1.20      0.00
  -13   15    2      1.18      0.00
  -12   15    2      0.23      0.00
  -11   15    2     -0.53      0.00
  -10   15    2      0.49      0.00
   -9   15    2      1.43      0.00
   -8   15    2     -0.55      0.00
   -7   15    2     -2.11      0.00
   -6   15    2     -0.56      0.00
   -5   15    2      1.50      0.00
   -4   15    2      1.06      0.00
   -3   15    2     -2.12      0.00
   -2   15    2      0.08      0.00
   -1   15    2      1.91      0.00
    0   15    2     -1.20      0.00
    1   15    2     -2.91      0.00
    2   15    2     -0.72      0.00
    3   15    2     -0.94      0.00
    4   15    2     -0.31      0.00
    5   15    2      2.11      0.00
    6   15    2      1.44      0.00
    7   15    2     -2.05      0.00
    8   15    2      0.42      0.00
    9   15    2      1.54      0.00
   10   15    2     -1.83      0.00
   11   15    2     -1.61      0.00
   12   15    2      0.53      0.00
   13   15    2      1.18      0.00
  -12   16    2      0.51      0.00
  -11   16    2     -1.23      0.00
  -10   16    2     -2.26      0.00
   -9   16    2     -0.33      0.00
   -8   16    2     -0.43      0.00
   -7   16    2      0.14      0.00
   -6   16    2      2.03      0.00
   -5   16    2      1.14      0.00
   -4   16    2     -2.30      0.00
   -3   16    2     -2.20      0.00
   -2   16    2     -1.04      0.00
   -1   16    2      1.75      0.00
    0   16    2      0.59      0.00
    1   16    2      0.32      0.00
    2   16    2      2.91      0.00
    3   16    2     -0.72      0.00
    4   16    2     -0.83      0.00
    5   16    2      0.69      0.00
    6   16    2     -0.18      0.00
    7   16    2     -0.57      0.00
    8   16    2      2.30      0.00
    9   16    2     -0.06      0.00
   10   16    2     -0.49      0.00
   11   16    2     -0.86      0.00
   12   16    2      0.35      0.00
  -11   17    2     -0.30      0.00
  -10   17    2     -0.50      0.00
   -9   17    2      1.09      0.00
   -8   17    2      0.42      0.00
   -7   17    2      0.44      0.00
   -6   17    2      1.73      0.00
   -5   17    2     -1.40      0.00
   -4   17    2     -2.36      0.00
   -3   17    2      0.15      0.00
   -2   17    2     -0.56      0.00
   -1   17    2      2.83      0.00
    0   17    2      1.66      0.00
    1   17    2      0.89      0.00
    2   17    2     -0.10      0.00
    3   17    2     -2.55      0.00
    4   17    2     -0.64      0.00
    5   17    2      1.16      0.00
    6   17    2     -0.33      0.00
    7   17    2      0.23      0.00
    8   17    2     -0.33      0.00
    9   17    2     -0.68      0.00
   10   17    2      0.06      0.00
   11   17    2     -0.25      0.00
  -10   18    2     -1.18      0.00
   -9   18    2      0.06      0.00
   -8   18    2     -0.02      0.00
   -7   18    2      0.16      0.00
   -6   18    2      1.04      0.00
   -5   18    2     -0.77      0.00
   -4   18    2      0.05      0.00
   -3   18    2     -0.40      0.00
   -2   18    2      0.38      0.00
   -1   18    2      1.28      0.00
    0   18    2     -0.63      0.00
    1   18    2     -0.38      0.00
    2   18    2     -0.50      0.00
    3   18    2     -0.47      0.00
    4   18    2     -0.73      0.00
    5   18    2      0.22      0.00
    6   18    2     -0.24      0.00
    7   18    2      1.72      0.00
    8   18    2      0.23      0.00
    9   18    2     -0.31      0.00
   10   18    2      0.17      0.00
   -8   19    2     -0.05      0.00
   -7   19    2      0.86      0.00
   -6   19    2      0.21      0.00
   -5   19    2      0.34      0.00
   -4   19    2     -0.42      0.00
   -3   19    2      0.39      0.00
   -2   19    2     -0.17      0.00
   -1   19    2     -1.94      0.00
    0   19    2      1.13      0.00
    1   19    2      0.84      0.00
    2   19    2     -0.42      0.00
    3   19    2     -0.08      0.00
    4   19    2      0.64      0.00
    5   19    2     -0.42      0.00
    6   19    2     -0.37      0.00
    7   19    2     -0.82      0.00
    8   19    2     -0.93      0.00
   -7   20    2     -0.89      0.00
   -6   20    2      1.38      0.00
   -5   20    2      0.89      0.00
   -4   20    2     -1.00      0.00
   -3   20    2     -0.15      0.00
   -2   20    2     -1.30      0.00
   -1   20    2     -0.15      0.00
    0   20    2      0.87      0.00
    1   20    2     -0.83      0.00
    2   20    2      0.06      0.00
    3   20    2      1.24      0.00
    4   20    2     -1.43      0.00
    5   20    2     -1.29      0.00
    6   20    2     -0.53      0.00
   -4   21    2     -0.14      0.00
   -3   21    2     -0.23      0.00
   -2   21    2     -0.66      0.00
   -1   21    2     -0.30      0.00
    0   21    2      1.04      0.00
    1   21    2      0.27      0.00
    2   21    2      0.29      0.00
    3   21    2     -0.22      0.00
    4   21    2     -0.61      0.00
  -17    0    3     -1.62      0.00
  -15    0    3      2.40      0.00
  -13    0    3     -0.92      0.00
  -11    0    3     -5.69      0.00
   -9    0    3      0.06      0.00
   -7    0    3     10.10      0.00
   -5    0    3     31.86      0.00
   -3    0    3    -32.31      0.00
   -1    0    3     16.34      0.00
    1    0    3    -83.52      0.00
    3    0    3     39.95      0.00
    5    0    3      9.05      0.00
    7    0    3    -12.43      0.00
    9    0    3      1.51      0.00
   11    0    3     -0.07      0.00
   13    0    3      2.47      0.00
   15    0    3     -1.75      0.00
   17    0    3      0.66      0.00
  -18    1    3      0.41      0.00
  -17    1    3      0.61      0.00
  -16    1    3      0.96      0.00
  -15    1    3      0.07      0.00
  -14    1    3     -1.06      0.00
  -13    1    3      0.91      0.00
  -12    1    3     -0.41      0.00
  -11    1    3      0.12      0.00
  -10    1    3      6.28      0.00
   -9    1    3     -5.74      0.00
   -8    1    3      4.41      0.00
   -7    1    3      1.04      0.00
   -6    1    3      5.86      0.00
   -5    1    3      7.62      0.00
   -4    1    3    -22.32      0.00
   -3    1    3     30.83      0.00
   -2    1    3     -3.59      0.00
   -1    1    3     14.50      0.00
    0    1    3    -54.54      0.00
    1    1    3   -108.61      0.00
    2    1    3     46.68      0.00
    3    1    3     55.86      0.00
    4    1    3     22.21      0.00
    5    1    3     -7.78      0.00
    6    1    3     -9.39      0.00
    7    1    3      7.03      0.00
    8    1    3     -4.98      0.00
    9    1    3     -6.09      0.00
   10    1    3      0.80      0.00
   11    1    3      2.50      0.00
   12    1    3      0.54      0.00
   13    1    3      1.91      0.00
   14    1    3     -0.83      0.00
   15    1    3     -1.51      0.00
   16    1    3      0.79      0.00
   17    1    3      1.09      0.00
   18    1    3     -0.09      0.00
  -18    2    3      1.68      0.00
  -17    2    3     -0.35      0.00
  -16    2    3     -1.18      0.00
  -15    2    3     -0.97      0.00
  -14    2    3     -0.70      0.00
  -13    2    3      0.50      0.00
  -12    2    3     -0.48      0.00
  -11    2    3      0.51      0.00
  -10    2    3      3.32      0.00
   -9    2    3      3.43      0.00
   -8    2    3      8.30      0.00
   -7    2    3     -1.76      0.00
   -6    2    3     -4.63      0.00
   -5    2    3     -4.34      0.00
   -4    2    3      6.97      0.00
   -3    2    3    -38.94      0.00
   -2    2    3     -7.33      0.00
   -1    2    3    -12.07      0.00
    0    2    3    -33.58      0.00
    1    2    3     85.98      0.00
    2    2    3      7.48      0.00
    3    2    3      5.04      0.00
    4    2    3      9.98      0.00
    5    2    3    -21.10      0.00
    6    2    3      6.87      0.00
    7    2    3     -9.40      0.00
    8    2    3     -3.57      0.00
    9    2    3      8.00      0.00
   10    2    3      3.86      0.00
   11    2    3     -0.49      0.00
   12    2    3     -0.85      0.00
   13    2    3     -0.93      0.00
   14    2    3     -0.44      0.00
   15    2    3      0.50      0.00
   16    2    3     -0.07      0.00
   17    2    3      0.64      0.00
   18    2    3     -0.74      0.00
  -18    3    3      0.92      0.00
  -17    3    3     -0.21      0.00
  -16    3    3     -1.36      0.00
  -15    3    3     -1.49      0.00
  -14    3    3      0.41      0.00
  -13    3    3      0.44      0.00
  -12    3    3      2.12      0.00
  -11    3    3      3.33      0.00
  -10    3    3      2.26      0.00
   -9    3    3      2.13      0.00
   -8    3    3     -7.06      0.00
   -7    3    3     -7.25      0.00
   -6    3    3     -1.01      0.00
   -5    3    3      5.66      0.00
   -4    3    3    -37.16      0.00
   -3    3    3     11.68      0.00
   -2    3    3     72.50      0.00
   -1    3    3    -30.53      0.00
    0    3    3     34.92      0.00
    1    3    3     -5.59      0.00
    2    3    3    -53.36      0.00
    3    3    3     29.83      0.00
    4    3    3      7.96      0.00
    5    3    3     -4.00      0.00
    6    3    3     -5.05      0.00
    7    3    3      4.95      0.00
    8    3    3      3.98      0.00
    9    3    3     -0.47      0.00
   10    3    3     -4.64      0.00
   11    3    3     -3.20      0.00
   12    3    3      0.47      0.00
   13    3    3     -1.05      0.00
   14    3    3      2.96      0.00
   15    3    3     -0.04      0.00
   16    3    3      0.90      0.00
   17    3    3      0.90      0.00
   18    3    3     -0.65      0.00
  -18    4    3      1.09      0.00
  -17    4    3     -0.56      0.00
  -16    4    3     -2.20      0.00
  -15    4    3     -0.80      0.00
  -14    4    3     -0.57      0.00
  -13    4    3     -0.34      0.00
  -12    4    3      2.08      0.00
  -11    4    3     -3.14      0.00
  -10    4    3     -1.72      0.00
   -9    4    3      2.66      0.00
   -8    4    3      1.52      0.00
   -7    4    3     -0.45      0.00
   -6    4    3     -2.48      0.00
   -5    4    3    -13.47      0.00
   -4    4    3    -16.03      0.00
   -3    4    3     49.17      0.00
   -2    4    3      0.26      0.00
   -1    4    3    -35.33      0.00
    0    4    3     24.99      0.00
    1    4    3     -5.72      0.00
    2    4    3    -11.02      0.00
    3    4    3      1.29      0.00
    4    4    3     -3.80      0.00
    5    4    3     -6.30      0.00
    6    4    3      6.66      0.00
    7    4    3      4.63      0.00
    8    4    3     -1.55      0.00
    9    4    3     -0.92      0.00
   10    4    3     -3.25      0.00
   11    4    3      1.20      0.00
   12    4    3     -0.02      0.00
   13    4    3      0.20      0.00
   14    4    3      0.80      0.00
   15    4    3     -0.52      0.00
   16    4    3      0.25      0.00
   17    4    3      0.01      0.00
   18    4    3     -0.56      0.00
  -18    5    3     -0.28      0.00
  -17    5    3     -1.63      0.00
  -16    5    3     -1.64      0.00
  -15    5    3     -0.88      0.00
  -14    5    3     -0.37      0.00
  -13    5    3      0.02      0.00
  -12    5    3      0.26      0.00
  -11    5    3      1.27      0.00
  -10    5    3      1.70      0.00
   -9    5    3      1.26      0.00
   -8    5    3     -3.59      0.00
   -7    5    3      0.69      0.00
   -6    5    3      4.46      0.00
   -5    5    3    -11.73      0.00
   -4    5    3      2.47      0.00
   -3    5    3     21.98      0.00
   -2    5    3      3.19      0.00
   -1    5    3      6.67      0.00
    0    5    3    -18.93      0.00
    1    5    3    -14.74      0.00
    2    5    3     -0.80      0.00
    3    5    3    -11.38      0.00
    4    5    3     13.09      0.00
    5    5    3     14.08      0.00
    6    5    3     -2.03      0.00
    7    5    3     -1.31      0.00
    8    5    3     -3.02      0.00
    9    5    3     -0.20      0.00
   10    5    3     -1.02      0.00
   11    5    3     -1.60      0.00
   12    5    3      1.76      0.00
   13    5    3     -1.22      0.00
   14    5    3     -0.12      0.00
   15    5    3     -0.61      0.00
   16    5    3      0.91      0.00
   17    5    3     -1.08      0.00
  -17    6    3      0.36      0.00
  -16    6    3      0.94      0.00
  -15    6    3     -0.82      0.00
  -14    6    3     -0.27      0.00
  -13    6    3     -0.87      0.00
  -12    6    3      2.17      0.00
  -11    6    3     -0.41      0.00
  -10    6    3     -2.06      0.00
   -9    6    3      0.22      0.00
   -8    6    3      3.06      0.00
   -7    6    3     10.31      0.00
   -6    6    3     -6.56      0.00
   -5    6    3    -12.94      0.00
   -4    6    3      5.11      0.00
   -3    6    3      2.66      0.00
   -2    6    3      6.64      0.00
   -1    6    3    -13.92      0.00
    0    6    3    -11.02      0.00
    1    6    3     24.13      0.00
    2    6    3    -11.47      0.00
    3    6    3     -6.19      0.00
    4    6    3     16.65      0.00
    5    6    3     -4.23      0.00
    6    6    3     -3.10      0.00
    7    6    3      2.17      0.00
    8    6    3      1.13      0.00
    9    6    3      1.03      0.00
   10    6    3     -0.70      0.00
   11    6    3      1.20      0.00
   12    6    3     -1.56      0.00
   13    6    3     -2.99      0.00
   14    6    3     -0.39      0.00
   15    6    3      0.38      0.00
   16    6    3     -0.61      0.00
   17    6    3     -0.83      0.00
  -17    7    3      1.70      0.00
  -16    7    3     -0.03      0.00
  -15    7    3     -0.19      0.00
  -14    7    3     -0.06      0.00
  -13    7    3     -0.25      0.00
  -12    7    3      0.02      0.00
  -11    7    3      1.62      0.00
  -10    7    3      1.30      0.00
   -9    7    3     -3.71      0.00
   -8    7    3      2.61      0.00
   -7    7    3      4.45      0.00
   -6    7    3     -7.28      0.00
   -5    7    3      2.31      0.00
   -4    7    3      1.16      0.00
   -3    7    3     -6.27      0.00
   -2    7    3      2.96      0.00
   -1    7    3     -2.34      0.00
    0    7    3      0.96      0.00
    1    7    3     -0.30      0.00
    2    7    3     -2.48      0.00
    3    7    3      4.78      0.00
    4    7    3      2.87      0.00
    5    7    3      1.92      0.00
    6    7    3      2.04      0.00
    7    7    3     -1.69      0.00
    8    7    3     -5.30      0.00
    9    7    3      2.86      0.00
   10    7    3      0.21      0.00
   11    7    3     -3.69      0.00
   12    7    3     -1.34      0.00
   13    7    3      0.15      0.00
   14    7    3      1.80      0.00
   15    7    3     -0.07      0.00
   16    7    3      0.16      0.00
   17    7    3      0.69      0.00
  -17    8    3      0.28      0.00
  -16    8    3      1.20      0.00
  -15    8    3     -0.44      0.00
  -14    8    3     -1.51      0.00
  -13    8    3     -1.11      0.00
  -12    8    3      0.67      0.00
  -11    8    3      1.31      0.00
  -10    8    3     -2.99      0.00
   -9    8    3     -3.87      0.00
   -8    8    3      4.96      0.00
   -7    8    3      0.67      0.00
   -6    8    3      0.81      0.00
   -5    8    3      3.27      0.00
   -4    8    3    -10.13      0.00
   -3    8    3     -7.38      0.00
   -2    8    3      4.44      0.00
   -1    8    3      5.13      0.00
    0    8    3      9.39      0.00
    1    8    3      4.24      0.00
    2    8    3     -6.26      0.00
    3    8    3     -2.70      0.00
    4    8    3     -0.77      0.00
    5    8    3     -0.95      0.00
    6    8    3     -2.23      0.00
    7    8    3     -1.90      0.00
    8    8    3      3.00      0.00
    9    8    3     -0.10      0.00
   10    8    3     -1.74      0.00
   11    8    3      1.58      0.00
   12    8    3      0.12      0.00
   13    8    3      0.77      0.00
   14    8    3      0.34      0.00
   15    8    3      1.70      0.00
   16    8    3      0.04      0.00
   17    8    3      0.86      0.00
  -16    9    3     -0.74      0.00
  -15    9    3     -1.16      0.00
  -14    9    3      1.40      0.00
  -13    9    3     -0.95      0.00
  -12    9    3     -0.31      0.00
  -11    9    3      2.52      0.00
  -10    9    3     -0.23      0.00
   -9    9    3     -1.61      0.00
   -8    9    3      2.95      0.00
   -7    9    3      3.96      0.00
   -6    9    3      3.13      0.00
   -5    9    3     -2.25      0.00
   -4    9    3     -4.89      0.00
   -3    9    3      0.62      0.00
   -2    9    3     -2.39      0.00
   -1    9    3      2.93      0.00
    0    9    3      6.03      0.00
    1    9    3     -9.68      0.00
    2    9    3      0.12      0.00
    3    9    3      2.44      0.00
    4    9    3     -1.29      0.00
    5    9    3      2.01      0.00
    6    9    3      0.68      0.00
    7    9    3      1.93      0.00
    8    9    3     -5.04      0.00
    9    9    3     -0.38      0.00
   10    9    3      4.17      0.00
   11    9    3     -1.54      0.00
   12    9    3     -0.26      0.00
   13    9    3      1.13      0.00
   14    9    3      1.40      0.00
   15    9    3     -0.24      0.00
   16    9    3     -0.79      0.00
  -16   10    3     -0.19      0.00
  -15   10    3      3.69      0.00
  -14   10    3      0.33      0.00
  -13   10    3     -0.48      0.00
  -12   10    3      1.19      0.00
  -11   10    3      1.08      0.00
  -10   10    3     -0.24      0.00
   -9   10    3     -0.69      0.00
   -8   10    3      1.22      0.00
   -7   10    3     -1.73      0.00
   -6   10    3     -0.54      0.00
   -5   10    3      0.26      0.00
   -4   10    3     -0.89      0.00
   -3   10    3     -5.31      0.00
   -2   10    3     -4.62      0.00
   -1   10    3      9.43      0.00
    0   10    3      5.51      0.00
    1   10    3     -1.59      0.00
    2   10    3     -0.10      0.00
    3   10    3     -1.66      0.00
    4   10    3      1.90      0.00
    5   10    3     -0.74      0.00
    6   10    3     -3.04      0.00
    7   10    3     -0.99      0.00
    8   10    3     -0.41      0.00
    9   10    3      1.92      0.00
   10   10    3      1.97      0.00
   11   10    3      0.05      0.00
   12   10    3      0.14      0.00
   13   10    3      0.31      0.00
   14   10    3     -1.22      0.00
   15   10    3     -0.95      0.00
   16   10    3      0.25      0.00
  -16   11    3      1.21      0.00
  -15   11    3      1.18      0.00
  -14   11    3      0.49      0.00
  -13   11    3      0.11      0.00
  -12   11    3     -2.18      0.00
  -11   11    3      0.15      0.00
  -10   11    3      1.34      0.00
   -9   11    3     -1.83      0.00
   -8   11    3     -1.69      0.00
   -7   11    3      1.33      0.00
   -6   11    3      1.33      0.00
   -5   11    3      0.94      0.00
   -4   11    3     -1.02      0.00
   -3   11    3     -1.77      0.00
   -2   11    3      2.19      0.00
   -1   11    3      0.20      0.00
    0   11    3     -0.32      0.00
    1   11    3     -0.22      0.00
    2   11    3     -1.74      0.00
    3   11    3      2.66      0.00
    4   11    3      0.36      0.00
    5   11    3     -5.05      0.00
    6   11    3     -1.24      0.00
    7   11    3      3.03      0.00
    8   11    3     -2.32      0.00
    9   11    3      2.58      0.00
   10   11    3      2.38      0.00
   11   11    3     -2.39      0.00
   12   11    3      0.21      0.00
   13   11    3     -0.01      0.00
   14   11    3     -0.65      0.00
   15   11    3      0.45      0.00
  -15   12    3      0.95      0.00
  -14   12    3      0.14      0.00
  -13   12    3     -1.52      0.00
  -12   12    3     -1.41      0.00
  -11   12    3      0.73      0.00
  -10   12    3      1.45      0.00
   -9   12    3     -0.13      0.00
   -8   12    3      0.68      0.00
   -7   12    3     -2.85      0.00
   -6   12    3     -0.98      0.00
   -5   12    3      3.95      0.00
   -4   12    3     -0.85      0.00
   -3   12    3      0.26      0.00
   -2   12    3      0.78      0.00
   -1   12    3     -1.25      0.00
    0   12    3      3.97      0.00
    1   12    3      0.22      0.00
    2   12    3     -2.83      0.00
    3   12    3     -0.19      0.00
    4   12    3     -0.97      0.00
    5   12    3     -0.94      0.00
    6   12    3      0.73      0.00
    7   12    3      1.35      0.00
    8   12    3      1.01      0.00
    9   12    3     -0.45      0.00
   10   12    3     -2.43      0.00
   11   12    3      1.40      0.00
   12   12    3      0.02      0.00
   13   12    3     -0.86      0.00
   14   12    3      0.24      0.00
   15   12    3      0.03      0.00
  -14   13    3      0.93      0.00
  -13   13    3      1.20      0.00
  -12   13    3      0.73      0.00
  -11   13    3      1.00      0.00
  -10   13    3      1.27      0.00
   -9   13    3     -0.53      0.00
   -8   13    3     -2.16      0.00
   -7   13    3     -1.02      0.00
   -6   13    3      2.83      0.00
   -5   13    3      0.41      0.00
   -4   13    3     -1.49      0.00
   -3   13    3      2.41      0.00
   -2   13    3      0.67      0.00
   -1   13    3     -2.35      0.00
    0   13    3     -1.15      0.00
    1   13    3     -1.28      0.00
    2   13    3     -2.55      0.00
    3   13    3      0.39      0.00
    4   13    3      3.46      0.00
    5   13    3     -1.68      0.00
    6   13    3     -0.30      0.00
    7   13    3      1.88      0.00
    8   13    3     -1.20      0.00
    9   13    3     -1.81      0.00
   10   13    3      0.97      0.00
   11   13    3      0.99      0.00
   12   13    3     -0.78      0.00
   13   13    3      1.37      0.00
   14   13    3     -0.57      0.00
  -14   14    3      2.61      0.00
  -13   14    3      1.73      0.00
  -12   14    3     -1.27      0.00
  -11   14    3     -1.30      0.00
  -10   14    3      0.09      0.00
   -9   14    3      0.32      0.00
   -8   14    3     -0.64      0.00
   -7   14    3     -0.36      0.00
   -6   14    3     -1.97      0.00
   -5   14    3      1.04      0.00
   -4   14    3      0.73      0.00
   -3   14    3      0.04      0.00
   -2   14    3      0.11      0.00
   -1   14    3     -1.15      0.00
    0   14    3     -0.59      0.00
    1   14    3     -0.65      0.00
    2   14    3     -2.68      0.00
    3   14    3      1.43      0.00
    4   14    3      1.56      0.00
    5   14    3     -0.29      0.00
    6   14    3      1.23      0.00
    7   14    3     -0.76      0.00
    8   14    3      1.07      0.00
    9   14    3     -1.61      0.00
   10   14    3     -1.15      0.00
   11   14    3      0.62      0.00
   12   14    3      1.62      0.00
   13   14    3      0.45      0.00
  -13   15    3      0.85      0.00
  -12   15    3     -1.91      0.00
  -11   15    3     -1.58      0.00
  -10   15    3      0.57      0.00
   -9   15    3     -1.02      0.00
   -8   15    3     -0.40      0.00
   -7   15    3      0.07      0.00
   -6   15    3      0.45      0.00
   -5   15    3      0.57      0.00
   -4   15    3     -1.33      0.00
   -3   15    3     -0.79      0.00
   -2   15    3      1.87      0.00
   -1   15    3     -0.80      0.00
    0   15    3     -1.44      0.00
    1   15    3     -0.04      0.00
    2   15    3      0.88      0.00
    3   15    3      0.85      0.00
    4   15    3      1.33      0.00
    5   15    3      1.24      0.00
    6   15    3     -1.63      0.00
    7   15    3      0.01      0.00
    8   15    3      1.32      0.00
    9   15    3     -1.14      0.00
   10   15    3     -0.24      0.00
   11   15    3      1.83      0.00
   12   15    3      1.00      0.00
   13   15    3     -1.62      0.00
  -12   16    3     -2.67      0.00
  -11   16    3     -0.90      0.00
  -10   16    3      0.40      0.00
   -9   16    3      1.21      0.00
   -8   16    3      1.27      0.00
   -7   16    3     -0.59      0.00
   -6   16    3     -0.52      0.00
   -5   16    3     -1.37      0.00
   -4   16    3     -1.32      0.00
   -3   16    3      0.53      0.00
   -2   16    3      2.04      0.00
   -1   16    3      1.35      0.00
    0   16    3     -0.07      0.00
    1   16    3      1.74      0.00
    2   16    3     -0.24      0.00
    3   16    3     -2.26      0.00
    4   16    3      1.09      0.00
    5   16    3      0.92      0.00
    6   16    3     -0.67      0.00
    7   16    3      0.72      0.00
    8   16    3     -0.41      0.00
    9   16    3     -0.95      0.00
   10   16    3      0.18      0.00
   11   16    3     -0.44      0.00
   12   16    3     -0.59      0.00
  -11   17    3     -0.39      0.00
  -10   17    3     -0.38      0.00
   -9   17    3      0.40      0.00
   -8   17    3     -0.83      0.00
   -7   17    3      0.03      0.00
   -6   17    3      0.37      0.00
   -5   17    3     -2.04      0.00
   -4   17    3      1.47      0.00
   -3   17    3      0.44      0.00
   -2   17    3      1.20      0.00
   -1   17    3      0.45      0.00
    0   17    3     -1.18      0.00
    1   17    3      0.18      0.00
    2   17    3     -2.22      0.00
    3   17    3     -1.03      0.00
    4   17    3      1.57      0.00
    5   17    3      0.22      0.00
    6   17    3     -1.08      0.00
    7   17    3      0.35      0.00
    8   17    3      0.70      0.00
    9   17    3      1.46      0.00
   10   17    3     -1.51      0.00
   11   17    3      0.55      0.00
  -10   18    3      0.00      0.00
   -9   18    3      1.35      0.00
   -8   18    3     -0.44      0.00
   -7   18    3      2.29      0.00
   -6   18    3      1.16      0.00
   -5   18    3     -0.27      0.00
   -4   18    3     -0.04      0.00
   -3   18    3     -0.79      0.00
   -2   18    3      0.87      0.00
   -1   18    3     -0.46      0.00
    0   18    3     -0.59      0.00
    1   18    3      1.06      0.00
    2   18    3     -0.01      0.00
    3   18    3     -0.78      0.00
    4   18    3      0.56      0.00
    5   18    3     -0.33      0.00
    6   18    3      0.25      0.00
    7   18    3      1.06      0.00
    8   18    3     -0.14      0.00
    9   18    3     -1.98      0.00
   -8   19    3      0.61      0.00
   -7   19    3      1.78      0.00
   -6   19    3      0.27      0.00
   -5   19    3     -0.55      0.00
   -4   19    3     -1.46      0.00
   -3   19    3     -0.21      0.00
   -2   19    3     -1.09      0.00
   -1   19    3      0.24      0.00
    0   19    3      1.52      0.00
    1   19    3     -0.02      0.00
    2   19    3     -1.58      0.00
    3   19    3     -0.72      0.00
    4   19    3      0.13      0.00
    5   19    3     -1.21      0.00
    6   19    3     -0.14      0.00
    7   19    3      0.59      0.00
    8   19    3     -0.21      0.00
   -6   20    3      1.41      0.00
   -5   20    3     -1.45      0.00
   -4   20    3     -0.85      0.00
   -3   20    3     -0.81      0.00
   -2   20    3     -0.70      0.00
   -1   20    3      1.32      0.00
    0   20    3      0.64      0.00
    1   20    3     -0.27      0.00
    2   20    3     -0.06      0.00
    3   20    3     -0.57      0.00
    4   20    3      0.00      0.00
    5   20    3      0.15      0.00
    6   20    3      0.41      0.00
   -4   21    3      0.23      0.00
   -3   21    3     -0.76      0.00
   -2   21    3     -0.12      0.00
   -1   21    3      2.03      0.00
    0   21    3      1.34      0.00
    1   21    3     -0.39      0.00
    2   21    3     -0.49      0.00
    3   21    3     -0.01      0.00
  -18    0    4      1.25      0.00
  -16    0    4      1.47      0.00
  -14    0    4     -2.22      0.00
  -12    0    4     -0.60      0.00
  -10    0    4      1.09      0.00
   -8    0    4     10.13      0.00
   -6    0    4     28.60      0.00
   -4    0    4    -26.31      0.00
   -2    0    4    -22.90      0.00
    0    0    4    -68.11      0.00
    2    0    4     65.78      0.00
    4    0    4     -5.75      0.00
    6    0    4     -8.43      0.00
    8    0    4     10.71      0.00
   10    0    4     -2.55      0.00
   12    0    4      0.60      0.00
   14    0    4     -1.43      0.00
   16    0    4      0.99      0.00
   18    0    4      0.24      0.00
  -18    1    4      0.82      0.00
  -17    1    4     -1.64      0.00
  -16    1    4     -0.26      0.00
  -15    1    4     -0.81      0.00
  -14    1    4      0.20      0.00
  -13    1    4      1.11      0.00
  -12    1    4     -0.55      0.00
  -11    1    4      3.42      0.00
  -10    1    4     -2.11      0.00
   -9    1    4      6.49      0.00
   -8    1    4      1.08      0.00
   -7    1    4     -3.59      0.00
   -6    1    4     17.89      0.00
   -5    1    4    -17.62      0.00
   -4    1    4      1.01      0.00
   -3    1    4    -43.29      0.00
   -2    1    4    -24.70      0.00
   -1    1    4     16.01      0.00
    0    1    4    -51.46      0.00
    1    1    4     69.95      0.00
    2    1    4     69.30      0.00
    3    1    4    -17.62      0.00
    4    1    4    -12.57      0.00
    5    1    4     -1.02      0.00
    6    1    4     -3.61      0.00
    7    1    4      1.60      0.00
    8    1    4     -4.59      0.00
    9    1    4     -1.09      0.00
   10    1    4      4.77      0.00
   11    1    4      0.15      0.00
   12    1    4     -0.27      0.00
   13    1    4     -0.28      0.00
   14    1    4     -0.75      0.00
   15    1    4      1.09      0.00
   16    1    4      0.44      0.00
   17    1    4     -1.68      0.00
   18    1    4     -0.93      0.00
  -18    2    4     -0.85      0.00
  -17    2    4     -1.72      0.00
  -16    2    4      1.73      0.00
  -15    2    4     -1.30      0.00
  -14    2    4     -0.47      0.00
  -13    2    4      0.82      0.00
  -12    2    4      1.57      0.00
  -11    2    4      2.65      0.00
  -10    2    4      1.37      0.00
   -9    2    4      3.31      0.00
   -8    2    4     -8.12      0.00
   -7    2    4     -6.84      0.00
   -6    2    4     -9.50      0.00
   -5    2    4     11.62      0.00
   -4    2    4    -29.94      0.00
   -3    2    4    -35.07      0.00
   -2    2    4     86.98      0.00
   -1    2    4     16.13      0.00
    0    2    4     17.11      0.00
    1    2    4     12.46      0.00
    2    2    4    -36.84      0.00
    3    2    4      1.94      0.00
    4    2    4     -7.84      0.00
    5    2    4      6.89      0.00
    6    2    4      0.02      0.00
    7    2    4     -3.02      0.00
    8    2    4      5.33      0.00
    9    2    4     -0.02      0.00
   10    2    4     -2.02      0.00
   11    2    4     -4.61      0.00
   12    2    4      0.35      0.00
   13    2    4      0.98      0.00
   14    2    4      1.17      0.00
   15    2    4      0.17      0.00
   16    2    4     -0.48      0.00
   17    2    4     -1.29      0.00
   18    2    4     -0.07      0.00
  -18    3    4     -1.20      0.00
  -17    3    4     -0.14      0.00
  -16    3    4     -0.44      0.00
  -15    3    4     -1.22      0.00
  -14    3    4      1.58      0.00
  -13    3    4      1.92      0.00
  -12    3    4      1.90      0.00
  -11    3    4     -1.91      0.00
  -10    3    4     -2.13      0.00
   -9    3    4     -4.37      0.00
   -8    3    4     -0.43      0.00
   -7    3    4     -6.71      0.00
   -6    3    4     -3.03      0.00
   -5    3    4      8.44      0.00
   -4    3    4    -15.39      0.00
   -3    3    4     69.78      0.00
   -2    3    4      4.44      0.00
   -1    3    4    -52.72      0.00
    0    3    4      0.89      0.00
    1    3    4    -34.42      0.00
    2    3    4     29.87      0.00
    3    3    4     12.06      0.00
    4    3    4    -10.05      0.00
    5    3    4      2.43      0.00
    6    3    4      0.55      0.00
    7    3    4      0.09      0.00
    8    3    4     -7.15      0.00
    9    3    4     -1.15      0.00
   10    3    4     -2.34      0.00
   11    3    4      2.48      0.00
   12    3    4      0.97      0.00
   13    3    4      2.21      0.00
   14    3    4      0.39      0.00
   15    3    4     -1.68      0.00
   16    3    4      0.60      0.00
   17    3    4     -1.27      0.00
   18    3    4      0.47      0.00
  -18    4    4     -0.99      0.00
  -17    4    4     -0.89      0.00
  -16    4    4     -1.46      0.00
  -15    4    4     -0.15      0.00
  -14    4    4     -0.60      0.00
  -13    4    4      1.91      0.00
  -12    4    4     -0.34      0.00
  -11    4    4     -1.48      0.00
  -10    4    4      3.42      0.00
   -9    4    4      1.36      0.00
   -8    4    4      2.48      0.00
   -7    4    4    -14.40      0.00
   -6    4    4      1.09      0.00
   -5    4    4      2.27      0.00
   -4    4    4     24.05      0.00
   -3    4    4     17.40      0.00
   -2    4    4    -58.58      0.00
   -1    4    4     20.82      0.00
    0    4    4     13.82      0.00
    1    4    4    -31.71      0.00
    2    4    4      2.30      0.00
    3    4    4      9.03      0.00
    4    4    4     -3.78      0.00
    5    4    4      4.88      0.00
    6    4    4      6.83      0.00
    7    4    4     -8.83      0.00
    8    4    4      0.94      0.00
    9    4    4     -1.40      0.00
   10    4    4      0.92      0.00
   11    4    4      0.26      0.00
   12    4    4     -2.16      0.00
   13    4    4      2.08      0.00
   14    4    4     -1.05      0.00
   15    4    4     -1.05      0.00
   16    4    4      0.54      0.00
   17    4    4     -0.05      0.00
  -18    5    4     -0.68      0.00
  -17    5    4     -1.44      0.00
  -16    5    4     -0.25      0.00
  -15    5    4      0.45      0.00
  -14    5    4     -0.22      0.00
  -13    5    4      1.70      0.00
  -12    5    4      1.72      0.00
  -11    5    4      1.30      0.00
  -10    5    4     -1.41      0.00
   -9    5    4     -0.66      0.00
   -8    5    4      0.46      0.00
   -7    5    4      2.83      0.00
   -6    5    4     -1.83      0.00
   -5    5    4     -5.67      0.00
   -4    5    4     21.69      0.00
   -3    5    4     -9.42      0.00
   -2    5    4    -11.85      0.00
   -1    5    4      7.24      0.00
    0    5    4    -20.16      0.00
    1    5    4      3.01      0.00
    2    5    4     20.92      0.00
    3    5    4      5.52      0.00
    4    5    4      0.01      0.00
    5    5    4      0.96      0.00
    6    5    4     -5.01      0.00
    7    5    4     -2.98      0.00
    8    5    4      1.10      0.00
    9    5    4      0.49      0.00
   10    5    4     -1.46      0.00
   11    5    4     -0.02      0.00
   12    5    4     -1.06      0.00
   13    5    4      0.12      0.00
   14    5    4     -0.76      0.00
   15    5    4      0.94      0.00
   16    5    4      0.24      0.00
   17    5    4     -1.11      0.00
  -17    6    4      0.85      0.00
  -16    6    4     -0.28      0.00
  -15    6    4     -1.36      0.00
  -14    6    4     -0.78      0.00
  -13    6    4      2.32      0.00
  -12    6    4      1.92      0.00
  -11    6    4     -1.95      0.00
  -10    6    4      1.77      0.00
   -9    6    4      0.11      0.00
   -8    6    4      1.01      0.00
   -7    6    4      0.29      0.00
   -6    6    4    -14.23      0.00
   -5    6    4      1.98      0.00
   -4    6    4      9.05      0.00
   -3    6    4     -7.26      0.00
   -2    6    4     -1.20      0.00
   -1    6    4     -0.28      0.00
    0    6    4     13.03      0.00
    1    6    4     -4.73      0.00
    2    6    4    -16.52      0.00
    3    6    4      9.14      0.00
    4    6    4      3.34      0.00
    5    6    4     -2.71      0.00
    6    6    4      1.73      0.00
    7    6    4      1.49      0.00
    8    6    4      0.66      0.00
    9    6    4     -3.44      0.00
   10    6    4      0.25      0.00
   11    6    4     -1.08      0.00
   12    6    4     -1.96      0.00
   13    6    4      0.79      0.00
   14    6    4      2.41      0.00
   15    6    4      0.74      0.00
   16    6    4     -2.07      0.00
   17    6    4      1.48      0.00
  -17    7    4      0.24      0.00
  -16    7    4     -0.89      0.00
  -15    7    4      0.82      0.00
  -14    7    4      0.16      0.00
  -13    7    4      1.39      0.00
  -12    7    4      1.04      0.00
  -11    7    4      1.60      0.00
  -10    7    4     -3.38      0.00
   -9    7    4     -5.44      0.00
   -8    7    4      6.54      0.00
   -7    7    4      1.68      0.00
   -6    7    4     -6.66      0.00
   -5    7    4      0.80      0.00
   -4    7    4     -4.00      0.00
   -3    7    4      0.41      0.00
   -2    7    4      5.06      0.00
   -1    7    4      1.95      0.00
    0    7    4      3.10      0.00
    1    7    4     -5.84      0.00
    2    7    4      4.59      0.00
    3    7    4      4.90      0.00
    4    7    4      0.28      0.00
    5    7    4     -2.98      0.00
    6    7    4     -3.15      0.00
    7    7    4     -2.07      0.00
    8    7    4     -0.49      0.00
    9    7    4      2.82      0.00
   10    7    4     -3.57      0.00
   11    7    4      1.07      0.00
   12    7    4      2.28      0.00
   13    7    4      0.97      0.00
   14    7    4      0.45      0.00
   15    7    4     -0.76      0.00
   16    7    4      0.24      0.00
   17    7    4      1.08      0.00
  -17    8    4      0.06      0.00
  -16    8    4      0.15      0.00
  -15    8    4     -1.16      0.00
  -14    8    4     -0.62      0.00
  -13    8    4     -0.14      0.00
  -12    8    4      1.31      0.00
  -11    8    4     -1.25      0.00
  -10    8    4     -2.99      0.00
   -9    8    4      2.71      0.00
   -8    8    4      5.08      0.00
   -7    8    4     -1.82      0.00
   -6    8    4      0.01      0.00
   -5    8    4     -2.39      0.00
   -4    8    4     -4.62      0.00
   -3    8    4      9.64      0.00
   -2    8    4      3.38      0.00
   -1    8    4      3.29      0.00
    0    8    4      1.77      0.00
    1    8    4    -10.68      0.00
    2    8    4     -7.20      0.00
    3    8    4      1.87      0.00
    4    8    4      2.93      0.00
    5    8    4     -4.42      0.00
    6    8    4      0.65      0.00
    7    8    4      2.76      0.00
    8    8    4      2.34      0.00
    9    8    4     -2.80      0.00
   10    8    4      0.83      0.00
   11    8    4      3.00      0.00
   12    8    4     -1.66      0.00
   13    8    4     -0.81      0.00
   14    8    4      1.71      0.00
   15    8    4      1.09      0.00
   16    8    4      0.00      0.00
  -16    9    4     -0.98      0.00
  -15    9    4      2.58      0.00
  -14    9    4     -0.18      0.00
  -13    9    4     -1.64      0.00
  -12    9    4      1.00      0.00
  -11    9    4      2.63      0.00
  -10    9    4     -0.92      0.00
   -9    9    4      0.78      0.00
   -8    9    4      1.99      0.00
   -7    9    4      0.89      0.00
   -6    9    4      2.58      0.00
   -5    9    4     -7.82      0.00
   -4    9    4     -1.19      0.00
   -3    9    4      0.68      0.00
   -2    9    4     -5.04      0.00
   -1    9    4      7.89      0.00
    0    9    4     -2.44      0.00
    1    9    4     -1.25      0.00
    2    9    4      5.62      0.00
    3    9    4      0.36      0.00
    4    9    4     -1.26      0.00
    5    9    4     -1.71      0.00
    6    9    4      1.59      0.00
    7    9    4     -1.52      0.00
    8    9    4     -0.53      0.00
    9    9    4      4.34      0.00
   10    9    4     -0.54      0.00
   11    9    4     -1.91      0.00
   12    9    4      0.44      0.00
   13    9    4      0.82      0.00
   14    9    4      0.56      0.00
   15    9    4     -1.21      0.00
   16    9    4      0.08      0.00
  -16   10    4      2.01      0.00
  -15   10    4      1.26      0.00
  -14   10    4     -2.94      0.00
  -13   10    4     -0.58      0.00
  -12   10    4      0.96      0.00
  -11   10    4      0.87      0.00
  -10   10    4     -1.67      0.00
   -9   10    4      0.34      0.00
   -8   10    4     -2.48      0.00
   -7   10    4      0.57      0.00
   -6   10    4      1.32      0.00
   -5   10    4     -5.25      0.00
   -4   10    4      0.46      0.00
   -3   10    4     -1.74      0.00
   -2   10    4      7.03      0.00
   -1   10    4      8.68      0.00
    0   10    4     -4.66      0.00
    1   10    4     -0.79      0.00
    2   10    4     -3.25      0.00
    3   10    4     -2.82      0.00
    4   10    4     -1.44      0.00
    5   10    4     -1.13      0.00
    6   10    4      0.36      0.00
    7   10    4      1.16      0.00
    8   10    4      3.26      0.00
    9   10    4      0.28      0.00
   10   10    4     -1.15      0.00
   11   10    4     -0.36      0.00
   12   10    4      0.24      0.00
   13   10    4     -0.69      0.00
   14   10    4     -0.38      0.00
   15   10    4      1.22      0.00
   16   10    4      0.51      0.00
  -16   11    4      2.45      0.00
  -15   11    4      0.01      0.00
  -14   11    4      0.65      0.00
  -13   11    4     -1.23      0.00
  -12   11    4     -0.68      0.00
  -11   11    4      1.86      0.00
  -10   11    4     -0.22      0.00
   -9   11    4     -1.09      0.00
   -8   11    4     -0.46      0.00
   -7   11    4      2.27      0.00
   -6   11    4     -0.71      0.00
   -5   11    4      0.47      0.00
   -4   11    4      1.43      0.00
   -3   11    4     -0.68      0.00
   -2   11    4      0.94      0.00
   -1   11    4     -1.15      0.00
    0   11    4     -0.84      0.00
    1   11    4     -1.71      0.00
    2   11    4      0.97      0.00
    3   11    4     -0.84      0.00
    4   11    4     -2.17      0.00
    5   11    4      0.66      0.00
    6   11    4      4.50      0.00
    7   11    4      0.18      0.00
    8   11    4     -1.11      0.00
    9   11    4      2.48      0.00
   10   11    4     -2.94      0.00
   11   11    4     -0.73      0.00
   12   11    4      0.21      0.00
   13   11    4     -1.10      0.00
   14   11    4     -0.06      0.00
   15   11    4      0.76      0.00
  -15   12    4     -0.51      0.00
  -14   12    4     -1.23      0.00
  -13   12    4     -1.40      0.00
  -12   12    4      0.39      0.00
  -11   12    4      2.28      0.00
  -10   12    4     -0.38      0.00
   -9   12    4     -1.03      0.00
   -8   12    4     -0.69      0.00
   -7   12    4     -1.73      0.00
   -6   12    4      3.02      0.00
   -5   12    4      2.53      0.00
   -4   12    4     -2.47      0.00
   -3   12    4     -0.49      0.00
   -2   12    4     -0.24      0.00
   -1   12    4      0.75      0.00
    0   12    4     -1.54      0.00
    1   12    4     -2.25      0.00
    2   12    4      1.82      0.00
    3   12    4      0.28      0.00
    4   12    4      0.35      0.00
    5   12    4      2.58      0.00
    6   12    4      1.91      0.00
    7   12    4     -3.60      0.00
    8   12    4      0.17      0.00
    9   12    4     -1.71      0.00
   10   12    4      0.19      0.00
   11   12    4      1.06      0.00
   12   12    4     -0.88      0.00
   13   12    4     -0.28      0.00
   14   12    4      0.18      0.00
   15   12    4      0.57      0.00
  -14   13    4      2.25      0.00
  -13   13    4      0.43      0.00
  -12   13    4      0.01      0.00
  -11   13    4     -0.31      0.00
  -10   13    4     -1.67      0.00
   -9   13    4     -0.48      0.00
   -8   13    4     -0.86      0.00
   -7   13    4      0.25      0.00
   -6   13    4      1.38      0.00
   -5   13    4     -1.16      0.00
   -4   13    4     -0.78      0.00
   -3   13    4      1.32      0.00
   -2   13    4     -2.71      0.00
   -1   13    4     -1.94      0.00
    0   13    4      0.72      0.00
    1   13    4      0.52      0.00
    2   13    4      1.61      0.00
    3   13    4      1.83      0.00
    4   13    4     -1.48      0.00
    5   13    4     -0.21      0.00
    6   13    4      0.42      0.00
    7   13    4     -2.45      0.00
    8   13    4     -0.68      0.00
    9   13    4      1.07      0.00
   10   13    4      2.34      0.00
   11   13    4     -0.24      0.00
   12   13    4      0.31      0.00
   13   13    4      0.05      0.00
   14   13    4     -0.98      0.00
  -14   14    4     -0.68      0.00
  -13   14    4     -2.65      0.00
  -12   14    4     -2.56      0.00
  -11   14    4     -0.46      0.00
  -10   14    4      0.71      0.00
   -9   14    4      0.26      0.00
   -8   14    4     -0.82      0.00
   -7   14    4     -1.40      0.00
   -6   14    4      1.68      0.00
   -5   14    4      1.26      0.00
   -4   14    4      0.33      0.00
   -3   14    4      0.79      0.00
   -2   14    4     -1.08      0.00
   -1   14    4      0.02      0.00
    0   14    4      1.13      0.00
    1   14    4     -2.25      0.00
    2   14    4      1.45      0.00
    3   14    4      2.21      0.00
    4   14    4     -1.48      0.00
    5   14    4      1.96      0.00
    6   14    4     -0.94      0.00
    7   14    4     -0.67      0.00
    8   14    4     -0.79      0.00
    9   14    4      0.78      0.00
   10   14    4      2.55      0.00
   11   14    4     -0.73      0.00
   12   14    4     -0.22      0.00
   13   14    4     -1.19      0.00
  -13   15    4     -1.43      0.00
  -12   15    4     -1.04      0.00
  -11   15    4      0.49      0.00
  -10   15    4      1.39      0.00
   -9   15    4     -0.41      0.00
   -8   15    4      0.69      0.00
   -7   15    4     -1.29      0.00
   -6   15    4      0.54      0.00
   -5   15    4      0.01      0.00
   -4   15    4      0.20      0.00
   -3   15    4     -0.34      0.00
   -2   15    4     -1.08      0.00
   -1   15    4      0.43      0.00
    0   15    4      0.38      0.00
    1   15    4     -0.41      0.00
    2   15    4      2.04      0.00
    3   15    4      0.60      0.00
    4   15    4     -0.08      0.00
    5   15    4     -0.90      0.00
    6   15    4     -0.83      0.00
    7   15    4      1.16      0.00
    8   15    4     -1.07      0.00
    9   15    4      2.11      0.00
   10   15    4      0.18      0.00
   11   15    4     -1.74      0.00
   12   15    4     -1.93      0.00
  -12   16    4     -0.54      0.00
  -11   16    4      2.73      0.00
  -10   16    4      0.02      0.00
   -9   16    4      0.38      0.00
   -8   16    4     -1.32      0.00
   -7   16    4     -1.84      0.00
   -6   16    4      0.81      0.00
   -5   16    4      0.44      0.00
   -4   16    4     -0.15      0.00
   -3   16    4      0.19      0.00
   -2   16    4      1.29      0.00
   -1   16    4      0.59      0.00
    0   16    4     -0.30      0.00
    1   16    4     -0.64      0.00
    2   16    4     -1.22      0.00
    3   16    4      0.37      0.00
    4   16    4      1.03      0.00
    5   16    4     -0.81      0.00
    6   16    4      1.25      0.00
    7   16    4     -0.31      0.00
    8   16    4     -0.28      0.00
    9   16    4      0.16      0.00
   10   16    4     -1.75      0.00
   11   16    4     -1.53      0.00
   12   16    4      2.00      0.00
  -11   17    4     -1.43      0.00
  -10   17    4     -0.68      0.00
   -9   17    4      0.92      0.00
   -8   17    4     -0.26      0.00
   -7   17    4      1.99      0.00
   -6   17    4     -0.21      0.00
   -5   17    4      0.29      0.00
   -4   17    4      0.74      0.00
   -3   17    4     -0.49      0.00
   -2   17    4      0.73      0.00
   -1   17    4     -0.21      0.00
    0   17    4     -0.12      0.00
    1   17    4     -0.90      0.00
    2   17    4     -1.49      0.00
    3   17    4      1.77      0.00
    4   17    4      0.00      0.00
    5   17    4     -0.60      0.00
    6   17    4      0.41      0.00
    7   17    4      0.87      0.00
    8   17    4      1.02      0.00
    9   17    4     -2.40      0.00
   10   17    4     -0.47      0.00
   11   17    4      3.54      0.00
  -10   18    4      3.28      0.00
   -9   18    4      0.74      0.00
   -8   18    4      0.62      0.00
   -7   18    4      2.75      0.00
   -6   18    4     -1.69      0.00
   -5   18    4     -0.40      0.00
   -4   18    4     -1.58      0.00
   -3   18    4      0.73      0.00
   -2   18    4      1.00      0.00
   -1   18    4     -0.93      0.00
    0   18    4      0.21      0.00
    1   18    4     -0.49      0.00
    2   18    4     -1.62      0.00
    3   18    4      0.24      0.00
    4   18    4      0.53      0.00
    5   18    4     -0.34      0.00
    6   18    4      1.03      0.00
    7   18    4      0.53      0.00
    8   18    4     -2.31      0.00
    9   18    4     -1.59      0.00
   -8   19    4      1.81      0.00
   -7   19    4      0.11      0.00
   -6   19    4     -1.38      0.00
   -5   19    4     -1.68      0.00
   -4   19    4     -0.49      0.00
   -3   19    4     -0.09      0.00
   -2   19    4     -0.06      0.00
   -1   19    4      0.50      0.00
    0   19    4      0.56      0.00
    1   19    4     -1.90      0.00
    2   19    4     -1.12      0.00
    3   19    4      1.97      0.00
    4   19    4     -0.19      0.00
    5   19    4     -0.74      0.00
    6   19    4      0.64      0.00
    7   19    4     -0.01      0.00
    8   19    4     -1.34      0.00
   -6   20    4     -0.38      0.00
   -5   20    4     -1.13      0.00
   -4   20    4     -0.05      0.00
   -3   20    4     -0.16      0.00
   -2   20    4      1.73      0.00
   -1   20    4      1.34      0.00
    0   20    4      0.59      0.00
    1   20    4     -0.56      0.00
    2   20    4      0.35      0.00
    3   20    4      0.97      0.00
    4   20    4      0.48      0.00
    5   20    4     -0.71      0.00
    6   20    4      0.79      0.00
   -3   21    4     -0.10      0.00
   -2   21    4      1.24      0.00
   -1   21    4      1.05      0.00
    0   21    4     -1.14      0.00
    1   21    4     -0.58      0.00
    2   21    4     -0.07      0.00
    3   21    4      0.78      0.00
  -17    0    5     -1.16      0.00
  -15    0    5     -2.51      0.00
  -13    0    5      1.66      0.00
  -11    0    5      1.89      0.00
   -9    0    5      7.78      0.00
   -7    0    5      8.86      0.00
   -5    0    5    -33.30      0.00
   -3    0    5    -29.51      0.00
   -1    0    5     24.73      0.00
    1    0    5     19.36      0.00
    3    0    5      2.74      0.00
    5    0    5      2.94      0.00
    7    0    5      7.78      0.00
    9    0    5     -7.77      0.00
   11    0    5      0.40      0.00
   13    0    5      0.66      0.00
   15    0    5     -0.78      0.00
   17    0    5     -1.10      0.00
  -18    1    5     -0.84      0.00
  -17    1    5     -0.28      0.00
  -16    1    5      0.87      0.00
  -15    1    5      0.46      0.00
  -14    1    5      1.08      0.00
  -13    1    5     -0.62      0.00
  -12    1    5      0.53      0.00
  -11    1    5     -0.28      0.00
  -10    1    5      2.83      0.00
   -9    1    5      0.47      0.00
   -8    1    5    -13.71      0.00
   -7    1    5     15.82      0.00
   -6    1    5    -10.25      0.00
   -5    1    5    -15.98      0.00
   -4    1    5    -10.33      0.00
   -3    1    5    -27.42      0.00
   -2    1    5     55.44      0.00
   -1    1    5     24.83      0.00
    0    1    5      4.00      0.00
    1    1    5     23.35      0.00
    2    1    5    -16.84      0.00
    3    1    5    -16.03      0.00
    4    1    5      9.91      0.00
    5    1    5     -9.05      0.00
    6    1    5     -4.99      0.00
    7    1    5      2.52      0.00
    8    1    5     -4.64      0.00
    9    1    5      4.05      0.00
   10    1    5      2.33      0.00
   11    1    5     -2.54      0.00
   12    1    5      0.75      0.00
   13    1    5      0.22      0.00
   14    1    5      0.02      0.00
   15    1    5     -0.37      0.00
   16    1    5     -1.58      0.00
   17    1    5     -0.07      0.00
   18    1    5     -0.08      0.00
  -18    2    5     -1.37      0.00
  -17    2    5      1.74      0.00
  -16    2    5      0.65      0.00
  -15    2    5     -1.58      0.00
  -14    2    5      2.54      0.00
  -13    2    5      1.74      0.00
  -12    2    5      0.55      0.00
  -11    2    5     -1.42      0.00
  -10    2    5      0.73      0.00
   -9    2    5     -7.07      0.00
   -8    2    5     -6.44      0.00
   -7    2    5      0.91      0.00
   -6    2    5      4.08      0.00
   -5    2    5      4.40      0.00
   -4    2    5    -21.83      0.00
   -3    2    5     56.53      0.00
   -2    2    5     41.62      0.00
   -1    2    5    -52.87      0.00
    0    2    5    -24.28      0.00
    1    2    5     -1.37      0.00
    2    2    5      5.64      0.00
    3    2    5      4.68      0.00
    4    2    5      7.65      0.00
    5    2    5     -4.61      0.00
    6    2    5     -2.63      0.00
    7    2    5      1.75      0.00
    8    2    5     -4.33      0.00
    9    2    5     -0.39      0.00
   10    2    5     -1.14      0.00
   11    2    5      0.53      0.00
   12    2    5      2.73      0.00
   13    2    5      0.18      0.00
   14    2    5     -0.62      0.00
   15    2    5     -1.25      0.00
   16    2    5     -0.49      0.00
   17    2    5      0.59      0.00
  -18    3    5     -0.60      0.00
  -17    3    5      1.84      0.00
  -16    3    5     -1.71      0.00
  -15    3    5      1.63      0.00
  -14    3    5      1.24      0.00
  -13    3    5      0.04      0.00
  -12    3    5     -2.14      0.00
  -11    3    5     -2.67      0.00
  -10    3    5      0.97      0.00
   -9    3    5      1.15      0.00
   -8    3    5     -2.32      0.00
   -7    3    5     -8.76      0.00
   -6    3    5     21.31      0.00
   -5    3    5     -3.53      0.00
   -4    3    5      5.84      0.00
   -3    3    5     19.92      0.00
   -2    3    5    -56.55      0.00
   -1    3    5    -24.13      0.00
    0    3    5     28.84      0.00
    1    3    5     30.04      0.00
    2    3    5    -13.09      0.00
    3    3    5    -15.12      0.00
    4    3    5     10.08      0.00
    5    3    5     -6.48      0.00
    6    3    5     -2.29      0.00
    7    3    5     -4.95      0.00
    8    3    5      1.86      0.00
    9    3    5      4.45      0.00
   10    3    5      0.10      0.00
   11    3    5      1.60      0.00
   12    3    5     -0.53      0.00
   13    3    5     -0.16      0.00
   14    3    5     -1.09      0.00
   15    3    5      0.56      0.00
   16    3    5     -0.21      0.00
   17    3    5      0.86      0.00
  -18    4    5      0.13      0.00
  -17    4    5     -0.35      0.00
  -16    4    5     -1.71      0.00
  -15    4    5      0.08      0.00
  -14    4    5      1.51      0.00
  -13    4    5      2.50      0.00
  -12    4    5     -1.18      0.00
  -11    4    5      1.48      0.00
  -10    4    5     -1.09      0.00
   -9    4    5      0.52      0.00
   -8    4    5     -9.92      0.00
   -7    4    5     -3.12      0.00
   -6    4    5     23.90      0.00
   -5    4    5     -6.18      0.00
   -4    4    5      1.26      0.00
   -3    4    5    -11.05      0.00
   -2    4    5     -0.55      0.00
   -1    4    5     20.28      0.00
    0    4    5    -18.40      0.00
    1    4    5    -10.20      0.00
    2    4    5     18.49      0.00
    3    4    5     10.97      0.00
    4    4    5     -6.53      0.00
    5    4    5      4.62      0.00
    6    4    5     -5.36      0.00
    7    4    5     -2.49      0.00
    8    4    5      1.66      0.00
    9    4    5     -3.55      0.00
   10    4    5     -0.06      0.00
   11    4    5     -2.63      0.00
   12    4    5      1.92      0.00
   13    4    5      1.39      0.00
   14    4    5     -1.32      0.00
   15    4    5      0.40      0.00
   16    4    5      0.60      0.00
   17    4    5     -0.52      0.00
  -18    5    5     -0.62      0.00
  -17    5    5     -0.77      0.00
  -16    5    5      0.53      0.00
  -15    5    5      0.15      0.00
  -14    5    5      1.26      0.00
  -13    5    5      2.08      0.00
  -12    5    5     -0.03      0.00
  -11    5    5     -2.99      0.00
  -10    5    5     -3.35      0.00
   -9    5    5      4.26      0.00
   -8    5    5     -2.21      0.00
   -7    5    5      1.26      0.00
   -6    5    5     -0.25      0.00
   -5    5    5     -1.96      0.00
   -4    5    5      1.88      0.00
   -3    5    5     -3.61      0.00
   -2    5    5      5.35      0.00
   -1    5    5    -14.48      0.00
    0    5    5     -6.47      0.00
    1    5    5     27.05      0.00
    2    5    5      5.72      0.00
    3    5    5    -24.15      0.00
    4    5    5      2.97      0.00
    5    5    5      5.43      0.00
    6    5    5     -6.88      0.00
    7    5    5      0.61      0.00
    8    5    5      2.32      0.00
    9    5    5     -0.61      0.00
   10    5    5     -0.29      0.00
   11    5    5      1.43      0.00
   12    5    5      1.56      0.00
   13    5    5      0.04      0.00
   14    5    5     -0.39      0.00
   15    5    5      1.09      0.00
   16    5    5     -1.74      0.00
   17    5    5      0.22      0.00
  -17    6    5      1.04      0.00
  -16    6    5     -0.15      0.00
  -15    6    5     -0.65      0.00
  -14    6    5      2.77      0.00
  -13    6    5      3.55      0.00
  -12    6    5     -1.37      0.00
  -11    6    5     -1.28      0.00
  -10    6    5     -0.36      0.00
   -9    6    5     -1.95      0.00
   -8    6    5     -0.01      0.00
   -7    6    5     -2.47      0.00
   -6    6    5     -1.04      0.00
   -5    6    5      4.37      0.00
   -4    6    5     -1.91      0.00
   -3    6    5      1.89      0.00
   -2    6    5      3.64      0.00
   -1    6    5     -2.93      0.00
    0    6    5     -8.87      0.00
    1    6    5     -2.07      0.00
    2    6    5      7.42      0.00
    3    6    5      6.04      0.00
    4    6    5      2.42      0.00
    5    6    5     -2.28      0.00
    6    6    5     -3.48      0.00
    7    6    5      1.66      0.00
    8    6    5     -3.40      0.00
    9    6    5     -1.50      0.00
   10    6    5      3.30      0.00
   11    6    5     -1.28      0.00
   12    6    5      0.74      0.00
   13    6    5      1.14      0.00
   14    6    5      0.26      0.00
   15    6    5     -2.65      0.00
   16    6    5      0.33      0.00
   17    6    5      1.78      0.00
  -17    7    5     -0.50      0.00
  -16    7    5      0.51      0.00
  -15    7    5     -0.09      0.00
  -14    7    5     -0.41      0.00
  -13    7    5     -0.17      0.00
  -12    7    5     -0.13      0.00
  -11    7    5     -0.98      0.00
  -10    7    5     -5.06      0.00
   -9    7    5      3.65      0.00
   -8    7    5      8.65      0.00
   -7    7    5     -6.00      0.00
   -6    7    5     -5.04      0.00
   -5    7    5      3.94      0.00
   -4    7    5      1.73      0.00
   -3    7    5      2.89      0.00
   -2    7    5      4.75      0.00
   -1    7    5     -3.29      0.00
    0    7    5     -3.54      0.00
    1    7    5      8.25      0.00
    2    7    5      1.01      0.00
    3    7    5     -9.77      0.00
    4    7    5     -3.47      0.00
    5    7    5     -2.84      0.00
    6    7    5      3.39      0.00
    7    7    5      0.36      0.00
    8    7    5      1.91      0.00
    9    7    5      1.75      0.00
   10    7    5     -1.18      0.00
   11    7    5      2.04      0.00
   12    7    5     -1.20      0.00
   13    7    5      0.19      0.00
   14    7    5      0.38      0.00
   15    7    5      0.53      0.00
   16    7    5      1.64      0.00
   17    7    5     -0.24      0.00
  -17    8    5     -0.43      0.00
  -16    8    5     -0.47      0.00
  -15    8    5     -1.25      0.00
  -14    8    5     -0.37      0.00
  -13    8    5      0.50      0.00
  -12    8    5      1.50      0.00
  -11    8    5      0.35      0.00
  -10    8    5      0.18      0.00
   -9    8    5      3.37      0.00
   -8    8    5      0.28      0.00
   -7    8    5     -3.46      0.00
   -6    8    5      1.51      0.00
   -5    8    5      0.66      0.00
   -4    8    5     -0.23      0.00
   -3    8    5      1.79      0.00
   -2    8    5      0.23      0.00
   -1    8    5     -0.02      0.00
    0    8    5     -7.00      0.00
    1    8    5     -3.40      0.00
    2    8    5     -0.31      0.00
    3    8    5      6.93      0.00
    4    8    5     -1.65      0.00
    5    8    5      0.95      0.00
    6    8    5      5.07      0.00
    7    8    5      0.06      0.00
    8    8    5     -0.27      0.00
    9    8    5     -3.67      0.00
   10    8    5      2.09      0.00
   11    8    5     -1.93      0.00
   12    8    5     -1.89      0.00
   13    8    5      2.86      0.00
   14    8    5      2.09      0.00
   15    8    5     -1.39      0.00
   16    8    5     -0.93      0.00
  -16    9    5      0.62      0.00
  -15    9    5      1.17      0.00
  -14    9    5     -2.56      0.00
  -13    9    5     -0.56      0.00
  -12    9    5      2.94      0.00
  -11    9    5      1.13      0.00
  -10    9    5     -3.40      0.00
   -9    9    5      0.21      0.00
   -8    9    5      0.74      0.00
   -7    9    5      0.21      0.00
   -6    9    5     -5.08      0.00
   -5    9    5     -5.27      0.00
   -4    9    5      5.03      0.00
   -3    9    5     -1.85      0.00
   -2    9    5      7.80      0.00
   -1    9    5      5.64      0.00
    0    9    5     -3.17      0.00
    1    9    5      0.32      0.00
    2    9    5     -2.68      0.00
    3    9    5     -1.12      0.00
    4    9    5     -3.33      0.00
    5    9    5      3.85      0.00
    6    9    5      1.48      0.00
    7    9    5     -0.51      0.00
    8    9    5      1.74      0.00
    9    9    5     -2.33      0.00
   10    9    5     -1.38      0.00
   11    9    5      0.65      0.00
   12    9    5      1.27      0.00
   13    9    5      1.05      0.00
   14    9    5     -0.84      0.00
   15    9    5     -0.58      0.00
   16    9    5     -0.85      0.00
  -16   10    5      2.67      0.00
  -15   10    5     -1.23      0.00
  -14   10    5     -0.35      0.00
  -13   10    5      0.97      0.00
  -12   10    5      2.52      0.00
  -11   10    5     -1.49      0.00
  -10   10    5     -0.88      0.00
   -9   10    5      0.01      0.00
   -8   10    5     -1.59      0.00
   -7   10    5      3.58      0.00
   -6   10    5     -4.88      0.00
   -5   10    5      3.17      0.00
   -4   10    5      4.81      0.00
   -3   10    5     -0.49      0.00
   -2   10    5      5.54      0.00
   -1   10    5     -5.93      0.00
    0   10    5     -5.18      0.00
    1   10    5     -3.68      0.00
    2   10    5     -1.28      0.00
    3   10    5      2.98      0.00
    4   10    5      2.74      0.00
    5   10    5      1.81      0.00
    6   10    5     -0.10      0.00
    7   10    5      2.03      0.00
    8   10    5     -1.92      0.00
    9   10    5     -2.23      0.00
   10   10    5      1.20      0.00
   11   10    5     -0.67      0.00
   12   10    5     -1.40      0.00
   13   10    5     -0.19      0.00
   14   10    5      0.45      0.00
   15   10    5      0.22      0.00
  -15   11    5     -0.37      0.00
  -14   11    5     -1.32      0.00
  -13   11    5     -1.71      0.00
  -12   11    5      0.62      0.00
  -11   11    5     -0.04      0.00
  -10   11    5      0.37      0.00
   -9   11    5     -1.62      0.00
   -8   11    5      1.36      0.00
   -7   11    5      1.57      0.00
   -6   11    5     -1.23      0.00
   -5   11    5      2.68      0.00
   -4   11    5     -1.85      0.00
   -3   11    5     -3.57      0.00
   -2   11    5      0.17      0.00
   -1   11    5      0.65      0.00
    0   11    5      0.36      0.00
    1   11    5      0.71      0.00
    2   11    5      0.86      0.00
    3   11    5      0.60      0.00
    4   11    5      1.99      0.00
    5   11    5      0.52      0.00
    6   11    5      0.29      0.00
    7   11    5     -2.68      0.00
    8   11    5      0.46      0.00
    9   11    5      0.59      0.00
   10   11    5     -2.19      0.00
   11   11    5      0.23      0.00
   12   11    5     -0.21      0.00
   13   11    5      0.59      0.00
   14   11    5      1.30      0.00
   15   11    5      0.21      0.00
  -15   12    5     -1.33      0.00
  -14   12    5     -0.49      0.00
  -13   12    5      0.02      0.00
  -12   12    5      1.55      0.00
  -11   12    5      0.08      0.00
  -10   12    5     -1.41      0.00
   -9   12    5     -0.58      0.00
   -8   12    5     -0.12      0.00
   -7   12    5      0.83      0.00
   -6   12    5      1.32      0.00
   -5   12    5     -1.73      0.00
   -4   12    5     -2.56      0.00
   -3   12    5     -0.15      0.00
   -2   12    5      1.87      0.00
   -1   12    5     -0.61      0.00
    0   12    5     -0.69      0.00
    1   12    5      2.71      0.00
    2   12    5     -0.76      0.00
    3   12    5      0.61      0.00
    4   12    5      0.89      0.00
    5   12    5     -0.54      0.00
    6   12    5     -4.49      0.00
    7   12    5     -0.84      0.00
    8   12    5      3.24      0.00
    9   12    5     -0.65      0.00
   10   12    5      1.32      0.00
   11   12    5     -0.06      0.00
   12   12    5     -0.08      0.00
   13   12    5      0.12      0.00
   14   12    5      0.98      0.00
  -14   13    5      0.22      0.00
  -13   13    5     -2.39      0.00
  -12   13    5     -0.19      0.00
  -11   13    5     -1.28      0.00
  -10   13    5      0.14      0.00
   -9   13    5      1.21      0.00
   -8   13    5     -1.30      0.00
   -7   13    5      0.42      0.00
   -6   13    5      1.80      0.00
   -5   13    5     -0.34      0.00
   -4   13    5      0.32      0.00
   -3   13    5      0.49      0.00
   -2   13    5     -1.00      0.00
   -1   13    5      1.23      0.00
    0   13    5      1.93      0.00
    1   13    5     -0.30      0.00
    2   13    5     -0.44      0.00
    3   13    5     -0.67      0.00
    4   13    5      0.03      0.00
    5   13    5      0.34      0.00
    6   13    5     -3.13      0.00
    7   13    5      2.43      0.00
    8   13    5      1.69      0.00
    9   13    5      0.71      0.00
   10   13    5     -0.57      0.00
   11   13    5     -1.00      0.00
   12   13    5     -0.71      0.00
   13   13    5     -0.73      0.00
   14   13    5      0.58      0.00
  -14   14    5     -3.13      0.00
  -13   14    5     -1.46      0.00
  -12   14    5      1.42      0.00
  -11   14    5      0.39      0.00
  -10   14    5      1.67      0.00
   -9   14    5     -0.92      0.00
   -8   14    5     -1.62      0.00
   -7   14    5      2.02      0.00
   -6   14    5      2.70      0.00
   -5   14    5     -1.58      0.00
   -4   14    5     -0.18      0.00
   -3   14    5     -1.02      0.00
   -2   14    5     -1.80      0.00
   -1   14    5      1.63      0.00
    0   14    5     -1.38      0.00
    1   14    5      0.82      0.00
    2   14    5      2.62      0.00
    3   14    5     -1.34      0.00
    4   14    5      1.07      0.00
    5   14    5     -0.75      0.00
    6   14    5     -2.34      0.00
    7   14    5      1.53      0.00
    8   14    5      1.00      0.00
    9   14    5      2.23      0.00
   10   14    5     -2.17      0.00
   11   14    5     -1.81      0.00
   12   14    5      0.16      0.00
   13   14    5     -0.61      0.00
  -13   15    5      1.53      0.00
  -12   15    5      1.14      0.00
  -11   15    5      1.70      0.00
  -10   15    5      0.26      0.00
   -9   15    5     -0.73      0.00
   -8   15    5     -1.20      0.00
   -7   15    5     -0.21      0.00
   -6   15    5      0.33      0.00
   -5   15    5     -0.32      0.00
   -4   15    5     -1.11      0.00
   -3   15    5     -1.47      0.00
   -2   15    5      1.56      0.00
   -1   15    5      2.05      0.00
    0   15    5     -1.60      0.00
    1   15    5      1.92      0.00
    2   15    5      0.90      0.00
    3   15    5     -2.40      0.00
    4   15    5      0.67      0.00
    5   15    5     -0.66      0.00
    6   15    5      1.28      0.00
    7   15    5     -0.35      0.00
    8   15    5      1.35      0.00
    9   15    5     -0.91      0.00
   10   15    5     -3.88      0.00
   11   15    5      0.00      0.00
   12   15    5      2.21      0.00
  -12   16    5      0.37      0.00
  -11   16    5     -0.31      0.00
  -10   16    5     -2.86      0.00
   -9   16    5     -0.27      0.00
   -8   16    5     -1.34      0.00
   -7   16    5      1.37      0.00
   -6   16    5      1.02      0.00
   -5   16    5     -0.13      0.00
   -4   16    5     -0.21      0.00
   -3   16    5      1.71      0.00
   -2   16    5      1.97      0.00
   -1   16    5     -1.71      0.00
    0   16    5     -1.63      0.00
    1   16    5      0.71      0.00
    2   16    5     -0.56      0.00
    3   16    5     -0.03      0.00
    4   16    5      0.19      0.00
    5   16    5      0.57      0.00
    6   16    5     -0.01      0.00
    7   16    5     -1.80      0.00
    8   16    5      0.99      0.00
    9   16    5     -0.39      0.00
   10   16    5      0.15      0.00
   11   16    5      3.79      0.00
  -11   17    5     -0.14      0.00
  -10   17    5      2.31      0.00
   -9   17    5      2.24      0.00
   -8   17    5      0.93      0.00
   -7   17    5      0.56      0.00
   -6   17    5     -0.46      0.00
   -5   17    5      1.06      0.00
   -4   17    5     -0.77      0.00
   -3   17    5      0.88      0.00
   -2   17    5      0.32      0.00
   -1   17    5     -1.51      0.00
    0   17    5     -1.42      0.00
    1   17    5     -0.85      0.00
    2   17    5      1.41      0.00
    3   17    5      0.86      0.00
    4   17    5     -0.89      0.00
    5   17    5      1.45      0.00
    6   17    5     -0.17      0.00
    7   17    5     -0.14      0.00
    8   17    5     -1.24      0.00
    9   17    5     -1.24      0.00
   10   17    5      2.54      0.00
  -10   18    5      1.08      0.00
   -9   18    5     -2.07      0.00
   -8   18    5      0.98      0.00
   -7   18    5     -0.59      0.00
   -6   18    5     -1.12      0.00
   -5   18    5     -1.02      0.00
   -4   18    5     -0.80      0.00
   -3   18    5      1.98      0.00
   -2   18    5     -0.96      0.00
   -1   18    5     -1.76      0.00
    0   18    5      0.00      0.00
    1   18    5     -0.54      0.00
    2   18    5      1.19      0.00
    3   18    5      0.22      0.00
    4   18    5      0.04      0.00
    5   18    5      0.00      0.00
    6   18    5     -0.05      0.00
    7   18    5     -1.66      0.00
    8   18    5     -2.16      0.00
    9   18    5      2.28      0.00
   -8   19    5      1.82      0.00
   -7   19    5     -1.26      0.00
   -6   19    5     -0.18      0.00
   -5   19    5     -1.15      0.00
   -4   19    5      0.73      0.00
   -3   19    5      0.50      0.00
   -2   19    5      0.28      0.00
   -1   19    5      1.20      0.00
    0   19    5     -0.33      0.00
    1   19    5     -0.97      0.00
    2   19    5      2.81      0.00
    3   19    5      0.88      0.00
    4   19    5     -0.86      0.00
    5   19    5      0.59      0.00
    6   19    5      0.43      0.00
    7   19    5     -0.92      0.00
    8   19    5      0.13      0.00
   -6   20    5     -1.44      0.00
   -5   20    5     -0.44      0.00
   -4   20    5     -0.46      0.00
   -3   20    5      0.81      0.00
   -2   20    5      0.57      0.00
   -1   20    5      0.54      0.00
    0   20    5     -0.63      0.00
    1   20    5      0.08      0.00
    2   20    5      0.83      0.00
    3   20    5     -0.21      0.00
    4   20    5     -0.36      0.00
    5   20    5     -0.27      0.00
    6   20    5      0.85      0.00
   -3   21    5      0.91      0.00
   -2   21    5      0.24      0.00
   -1   21    5      0.16      0.00
    0   21    5     -0.26      0.00
    1   21    5      0.09      0.00
    2   21    5     -0.53      0.00
  -18    0    6      0.01      0.00
  -16    0    6     -0.61      0.00
  -14    0    6      2.33      0.00
  -12    0    6     -0.23      0.00
  -10    0    6      2.47      0.00
   -8    0    6     -1.34      0.00
   -6    0    6    -17.18      0.00
   -4    0    6    -13.39      0.00
   -2    0    6     39.62      0.00
    0    0    6    -19.38      0.00
    2    0    6     27.45      0.00
    4    0    6     -9.34      0.00
    6    0    6     -6.01      0.00
    8    0    6     -2.19      0.00
   10    0    6      3.14      0.00
   12    0    6      1.88      0.00
   14    0    6     -2.28      0.00
   16    0    6     -0.77      0.00
  -18    1    6      0.84      0.00
  -17    1    6      1.53      0.00
  -16    1    6      0.51      0.00
  -15    1    6      0.93      0.00
  -14    1    6     -0.86      0.00
  -13    1    6     -0.28      0.00
  -12    1    6      0.46      0.00
  -11    1    6      0.55      0.00
  -10    1    6      0.63      0.00
   -9    1    6     -9.81      0.00
   -8    1    6      8.30      0.00
   -7    1    6      1.20      0.00
   -6    1    6    -15.84      0.00
   -5    1    6      6.11      0.00
   -4    1    6     -8.37      0.00
   -3    1    6     19.97      0.00
   -2    1    6     46.76      0.00
   -1    1    6     -9.95      0.00
    0    1    6    -31.56      0.00
    1    1    6      3.08      0.00
    2    1    6      0.25      0.00
    3    1    6     -1.65      0.00
    4    1    6     -6.49      0.00
    5    1    6     -9.41      0.00
    6    1    6     10.01      0.00
    7    1    6      2.19      0.00
    8    1    6      1.88      0.00
    9    1    6      3.15      0.00
   10    1    6     -3.66      0.00
   11    1    6     -1.37      0.00
   12    1    6      1.11      0.00
   13    1    6     -0.70      0.00
   14    1    6     -1.19      0.00
   15    1    6      0.18      0.00
   16    1    6     -0.22      0.00
   17    1    6      0.27      0.00
  -18    2    6     -0.11      0.00
  -17    2    6      1.32      0.00
  -16    2    6     -1.14      0.00
  -15    2    6      0.51      0.00
  -14    2    6      1.19      0.00
  -13    2    6     -1.77      0.00
  -12    2    6     -2.13      0.00
  -11    2    6      0.07      0.00
  -10    2    6     -2.94      0.00
   -9    2    6     -3.68      0.00
   -8    2    6      4.61      0.00
   -7    2    6      1.63      0.00
   -6    2    6      5.48      0.00
   -5    2    6     -1.85      0.00
   -4    2    6      5.38      0.00
   -3    2    6     13.17      0.00
   -2    2    6    -18.60      0.00
   -1    2    6    -36.76      0.00
    0    2    6     10.95      0.00
    1    2    6     25.35      0.00
    2    2    6     -5.37      0.00
    3    2    6     -0.81      0.00
    4    2    6     -5.36      0.00
    5    2    6     -1.31      0.00
    6    2    6      3.22      0.00
    7    2    6     -3.94      0.00
    8    2    6     -0.93      0.00
    9    2    6      4.97      0.00
   10    2    6     -0.73      0.00
   11    2    6      0.41      0.00
   12    2    6      0.70      0.00
   13    2    6     -0.75      0.00
   14    2    6     -0.46      0.00
   15    2    6      0.54      0.00
   16    2    6      1.50      0.00
   17    2    6     -1.56      0.00
  -18    3    6      1.26      0.00
  -17    3    6     -0.08      0.00
  -16    3    6     -0.58      0.00
  -15    3    6      0.69      0.00
  -14    3    6     -1.20      0.00
  -13    3    6     -0.09      0.00
  -12    3    6     -1.24      0.00
  -11    3    6     -0.56      0.00
  -10    3    6      0.44      0.00
   -9    3    6     -3.08      0.00
   -8    3    6     -3.72      0.00
   -7    3    6     11.96      0.00
   -6    3    6      4.72      0.00
   -5    3    6    -11.46      0.00
   -4    3    6      4.28      0.00
   -3    3    6     -7.47      0.00
   -2    3    6    -14.46      0.00
   -1    3    6     19.97      0.00
    0    3    6     32.45      0.00
    1    3    6    -31.68      0.00
    2    3    6    -19.36      0.00
    3    3    6     28.36      0.00
    4    3    6     -4.60      0.00
    5    3    6     -9.16      0.00
    6    3    6      2.12      0.00
    7    3    6     -1.56      0.00
    8    3    6      3.72      0.00
    9    3    6     -1.70      0.00
   10    3    6     -2.56      0.00
   11    3    6     -0.28      0.00
   12    3    6      0.05      0.00
   13    3    6      1.06      0.00
   14    3    6      0.48      0.00
   15    3    6     -0.25      0.00
   16    3    6     -0.22      0.00
   17    3    6     -1.90      0.00
  -18    4    6      0.59      0.00
  -17    4    6     -2.11      0.00
  -16    4    6      0.52      0.00
  -15    4    6      1.50      0.00
  -14    4    6      3.18      0.00
  -13    4    6     -1.26      0.00
  -12    4    6     -3.20      0.00
  -11    4    6     -1.95      0.00
  -10    4    6     -1.41      0.00
   -9    4    6      0.40      0.00
   -8    4    6     -0.56      0.00
   -7    4    6     18.20      0.00
   -6    4    6     -5.10      0.00
   -5    4    6    -17.05      0.00
   -4    4    6     16.46      0.00
   -3    4    6      4.94      0.00
   -2    4    6    -21.47      0.00
   -1    4    6     -0.32      0.00
    0    4    6      0.40      0.00
    1    4    6      7.96      0.00
    2    4    6     22.47      0.00
    3    4    6    -12.06      0.00
    4    4    6    -11.50      0.00
    5    4    6      2.73      0.00
    6    4    6     -4.15      0.00
    7    4    6     -0.30      0.00
    8    4    6     -0.83      0.00
    9    4    6      3.10      0.00
   10    4    6      2.62      0.00
   11    4    6      1.97      0.00
   12    4    6      1.59      0.00
   13    4    6     -0.86      0.00
   14    4    6     -1.69      0.00
   15    4    6     -0.54      0.00
   16    4    6      0.00      0.00
   17    4    6     -1.97      0.00
  -18    5    6     -0.17      0.00
  -17    5    6      0.30      0.00
  -16    5    6      1.74      0.00
  -15    5    6      0.52      0.00
  -14    5    6      1.30      0.00
  -13    5    6      0.11      0.00
  -12    5    6     -2.15      0.00
  -11    5    6     -2.72      0.00
  -10    5    6      5.05      0.00
   -9    5    6      1.84      0.00
   -8    5    6     -5.10      0.00
   -7    5    6      5.71      0.00
   -6    5    6     -6.56      0.00
   -5    5    6     -4.12      0.00
   -4    5    6     16.64      0.00
   -3    5    6     -9.34      0.00
   -2    5    6    -19.67      0.00
   -1    5    6      9.44      0.00
    0    5    6     18.04      0.00
    1    5    6      2.51      0.00
    2    5    6    -26.08      0.00
    3    5    6      0.50      0.00
    4    5    6     16.52      0.00
    5    5    6     -7.55      0.00
    6    5    6     -4.18      0.00
    7    5    6      4.93      0.00
    8    5    6      2.51      0.00
    9    5    6     -1.61      0.00
   10    5    6      1.99      0.00
   11    5    6      0.37      0.00
   12    5    6     -1.89      0.00
   13    5    6     -1.23      0.00
   14    5    6     -0.02      0.00
   15    5    6     -0.61      0.00
   16    5    6     -0.28      0.00
   17    5    6      1.45      0.00
  -17    6    6      0.62      0.00
  -16    6    6     -1.39      0.00
  -15    6    6      0.05      0.00
  -14    6    6      3.09      0.00
  -13    6    6     -1.11      0.00
  -12    6    6     -3.02      0.00
  -11    6    6     -0.26      0.00
  -10    6    6      0.13      0.00
   -9    6    6     -1.24      0.00
   -8    6    6      0.73      0.00
   -7    6    6      7.05      0.00
   -6    6    6     -4.81      0.00
   -5    6    6     -3.82      0.00
   -4    6    6     11.62      0.00
   -3    6    6     -4.26      0.00
   -2    6    6     -6.10      0.00
   -1    6    6     -2.94      0.00
    0    6    6      7.10      0.00
    1    6    6      9.38      0.00
    2    6    6     -1.40      0.00
    3    6    6     -1.44      0.00
    4    6    6     -4.95      0.00
    5    6    6     -4.26      0.00
    6    6    6      3.09      0.00
    7    6    6      2.55      0.00
    8    6    6     -4.38      0.00
    9    6    6      3.93      0.00
   10    6    6      1.00      0.00
   11    6    6     -2.81      0.00
   12    6    6      1.20      0.00
   13    6    6      0.08      0.00
   14    6    6     -0.43      0.00
   15    6    6      0.53      0.00
   16    6    6      3.10      0.00
   17    6    6     -0.35      0.00
  -17    7    6     -0.56      0.00
  -16    7    6     -0.96      0.00
  -15    7    6     -0.94      0.00
  -14    7    6      0.02      0.00
  -13    7    6      0.81      0.00
  -12    7    6      1.88      0.00
  -11    7    6     -2.39      0.00
  -10    7    6      0.11      0.00
   -9    7    6      5.13      0.00
   -8    7    6     -1.55      0.00
   -7    7    6     -4.84      0.00
   -6    7    6     -0.50      0.00
   -5    7    6      7.34      0.00
   -4    7    6      0.80      0.00
   -3    7    6      1.15      0.00
   -2    7    6     -1.92      0.00
   -1    7    6     -6.32      0.00
    0    7    6      9.10      0.00
    1    7    6     -2.65      0.00
    2    7    6    -17.36      0.00
    3    7    6      2.15      0.00
    4    7    6     10.07      0.00
    5    7    6      3.66      0.00
    6    7    6      1.17      0.00
    7    7    6     -2.82      0.00
    8    7    6      1.12      0.00
    9    7    6     -2.49      0.00
   10    7    6     -2.46      0.00
   11    7    6      0.99      0.00
   12    7    6      0.59      0.00
   13    7    6      0.86      0.00
   14    7    6      1.06      0.00
   15    7    6      0.59      0.00
   16    7    6     -0.79      0.00
  -17    8    6      0.32      0.00
  -16    8    6     -0.21      0.00
  -15    8    6      0.05      0.00
  -14    8    6      0.70      0.00
  -13    8    6      1.83      0.00
  -12    8    6      0.81      0.00
  -11    8    6     -2.65      0.00
  -10    8    6     -1.24      0.00
   -9    8    6      1.28      0.00
   -8    8    6     -1.48      0.00
   -7    8    6      0.02      0.00
   -6    8    6      3.62      0.00
   -5    8    6     -3.00      0.00
   -4    8    6     -2.38      0.00
   -3    8    6      6.85      0.00
   -2    8    6     -2.48      0.00
   -1    8    6     -5.86      0.00
    0    8    6      4.16      0.00
    1    8    6     -0.42      0.00
    2    8    6      3.49      0.00
    3    8    6      7.48      0.00
    4    8    6     -3.35      0.00
    5    8    6      2.15      0.00
    6    8    6     -2.41      0.00
    7    8    6     -0.46      0.00
    8    8    6     -3.14      0.00
    9    8    6     -1.85      0.00
   10    8    6      2.70      0.00
   11    8    6     -0.30      0.00
   12    8    6      2.33      0.00
   13    8    6      1.46      0.00
   14    8    6     -1.78      0.00
   15    8    6     -2.33      0.00
   16    8    6     -0.56      0.00
  -16    9    6      1.63      0.00
  -15    9    6     -0.85      0.00
  -14    9    6     -1.45      0.00
  -13    9    6      1.80      0.00
  -12    9    6      2.66      0.00
  -11    9    6     -3.08      0.00
  -10    9    6     -1.05      0.00
   -9    9    6      2.21      0.00
   -8    9    6     -1.17      0.00
   -7    9    6     -2.74      0.00
   -6    9    6     -0.82      0.00
   -5    9    6      3.72      0.00
   -4    9    6      1.55      0.00
   -3    9    6      5.10      0.00
   -2    9    6      1.93      0.00
   -1    9    6     -6.37      0.00
    0    9    6     -1.98      0.00
    1    9    6     -4.54      0.00
    2    9    6      3.24      0.00
    3    9    6      0.05      0.00
    4    9    6      1.62      0.00
    5    9    6      3.16      0.00
    6    9    6     -2.68      0.00
    7    9    6      0.09      0.00
    8    9    6     -3.13      0.00
    9    9    6      0.02      0.00
   10    9    6      2.17      0.00
   11    9    6      0.02      0.00
   12    9    6     -0.20      0.00
   13    9    6     -0.71      0.00
   14    9    6     -1.65      0.00
   15    9    6     -0.33      0.00
   16    9    6     -0.40      0.00
  -16   10    6      0.73      0.00
  -15   10    6     -0.54      0.00
  -14   10    6     -0.37      0.00
  -13   10    6      1.22      0.00
  -12   10    6      0.19      0.00
  -11   10    6     -2.09      0.00
  -10   10    6      0.94      0.00
   -9   10    6     -1.09      0.00
   -8   10    6      1.72      0.00
   -7   10    6      0.37      0.00
   -6   10    6      1.28      0.00
   -5   10    6      3.24      0.00
   -4   10    6     -5.25      0.00
   -3   10    6      1.32      0.00
   -2   10    6     -2.59      0.00
   -1   10    6     -4.81      0.00
    0   10    6      0.43      0.00
    1   10    6      1.28      0.00
    2   10    6      5.80      0.00
    3   10    6      0.34      0.00
    4   10    6     -1.22      0.00
    5   10    6     -2.16      0.00
    6   10    6      0.09      0.00
    7   10    6      0.33      0.00
    8   10    6     -2.37      0.00
    9   10    6      2.88      0.00
   10   10    6     -0.96      0.00
   11   10    6     -1.98      0.00
   12   10    6      1.39      0.00
   13   10    6      1.29      0.00
   14   10    6      0.31      0.00
   15   10    6     -0.65      0.00
  -15   11    6     -1.74      0.00
  -14   11    6     -2.53      0.00
  -13   11    6      0.79      0.00
  -12   11    6      0.33      0.00
  -11   11    6      1.22      0.00
  -10   11    6     -0.07      0.00
   -9   11    6     -1.61      0.00
   -8   11    6      2.90      0.00
   -7   11    6     -2.49      0.00
   -6   11    6     -0.38      0.00
   -5   11    6     -0.79      0.00
   -4   11    6     -3.36      0.00
   -3   11    6      2.39      0.00
   -2   11    6      3.89      0.00
   -1   11    6      1.21      0.00
    0   11    6     -2.20      0.00
    1   11    6     -0.16      0.00
    2   11    6      1.01      0.00
    3   11    6      1.08      0.00
    4   11    6     -2.05      0.00
    5   11    6     -0.57      0.00
    6   11    6      0.48      0.00
    7   11    6     -0.62      0.00
    8   11    6      1.98      0.00
    9   11    6     -1.21      0.00
   10   11    6     -1.35      0.00
   11   11    6      0.96      0.00
   12   11    6      1.25      0.00
   13   11    6      0.31      0.00
   14   11    6      0.13      0.00
   15   11    6     -1.47      0.00
  -15   12    6     -0.08      0.00
  -14   12    6      1.92      0.00
  -13   12    6      0.91      0.00
  -12   12    6      0.33      0.00
  -11   12    6     -0.42      0.00
  -10   12    6     -0.84      0.00
   -9   12    6     -0.01      0.00
   -8   12    6      0.85      0.00
   -7   12    6      0.16      0.00
   -6   12    6     -0.44      0.00
   -5   12    6      0.80      0.00
   -4   12    6     -0.89      0.00
   -3   12    6      1.77      0.00
   -2   12    6      1.44      0.00
   -1   12    6     -2.47      0.00
    0   12    6      0.11      0.00
    1   12    6     -0.91      0.00
    2   12    6      0.73      0.00
    3   12    6      1.14      0.00
    4   12    6     -2.66      0.00
    5   12    6     -1.61      0.00
    6   12    6      0.22      0.00
    7   12    6      3.60      0.00
    8   12    6     -0.11      0.00
    9   12    6     -1.81      0.00
   10   12    6     -0.22      0.00
   11   12    6     -0.18      0.00
   12   12    6     -0.14      0.00
   13   12    6      0.14      0.00
   14   12    6     -0.01      0.00
  -14   13    6     -2.28      0.00
  -13   13    6     -1.15      0.00
  -12   13    6      0.08      0.00
  -11   13    6      0.14      0.00
  -10   13    6      1.20      0.00
   -9   13    6     -0.65      0.00
   -8   13    6     -0.17      0.00
   -7   13    6      2.24      0.00
   -6   13    6      0.59      0.00
   -5   13    6     -1.51      0.00
   -4   13    6     -1.57      0.00
   -3   13    6      1.18      0.00
   -2   13    6     -0.13      0.00
   -1   13    6      1.17      0.00
    0   13    6      0.17      0.00
    1   13    6     -0.07      0.00
    2   13    6      1.29      0.00
    3   13    6      0.10      0.00
    4   13    6     -0.45      0.00
    5   13    6     -1.44      0.00
    6   13    6      2.23      0.00
    7   13    6      2.44      0.00
    8   13    6     -1.45      0.00
    9   13    6     -0.53      0.00
   10   13    6      0.04      0.00
   11   13    6     -0.49      0.00
   12   13    6     -0.49      0.00
   13   13    6      0.19      0.00
   14   13    6      0.44      0.00
  -13   14    6      3.30      0.00
  -12   14    6      0.71      0.00
  -11   14    6     -0.14      0.00
  -10   14    6      0.53      0.00
   -9   14    6     -1.77      0.00
   -8   14    6      0.91      0.00
   -7   14    6      2.11      0.00
   -6   14    6     -2.95      0.00
   -5   14    6     -2.05      0.00
   -4   14    6      1.39      0.00
   -3   14    6     -1.40      0.00
   -2   14    6      0.75      0.00
   -1   14    6      1.75      0.00
    0   14    6      0.21      0.00
    1   14    6      1.11      0.00
    2   14    6     -2.15      0.00
    3   14    6     -0.62      0.00
    4   14    6     -0.09      0.00
    5   14    6     -2.45      0.00
    6   14    6      2.61      0.00
    7   14    6      0.94      0.00
    8   14    6      0.18      0.00
    9   14    6     -1.39      0.00
   10   14    6     -1.48      0.00
   11   14    6      1.49      0.00
   12   14    6     -0.07      0.00
   13   14    6      0.98      0.00
  -13   15    6      1.19      0.00
  -12   15    6     -1.85      0.00
  -11   15    6      0.08      0.00
  -10   15    6     -1.81      0.00
   -9   15    6     -1.31      0.00
   -8   15    6     -0.43      0.00
   -7   15    6      0.50      0.00
   -6   15    6      0.34      0.00
   -5   15    6      0.78      0.00
   -4   15    6      0.27      0.00
   -3   15    6      0.57      0.00
   -2   15    6      2.92      0.00
   -1   15    6     -1.38      0.00
    0   15    6      0.14      0.00
    1   15    6     -0.01      0.00
    2   15    6     -2.25      0.00
    3   15    6      0.82      0.00
    4   15    6      0.49      0.00
    5   15    6     -0.47      0.00
    6   15    6      1.05      0.00
    7   15    6      0.50      0.00
    8   15    6      0.13      0.00
    9   15    6     -2.06      0.00
   10   15    6      2.69      0.00
   11   15    6      2.22      0.00
   12   15    6     -0.10      0.00
  -12   16    6     -0.31      0.00
  -11   16    6     -1.06      0.00
  -10   16    6      0.89      0.00
   -9   16    6      1.10      0.00
   -8   16    6      1.75      0.00
   -7   16    6      1.27      0.00
   -6   16    6      0.30      0.00
   -5   16    6      0.27      0.00
   -4   16    6      1.36      0.00
   -3   16    6      0.16      0.00
   -2   16    6     -2.37      0.00
   -1   16    6     -2.32      0.00
    0   16    6      1.58      0.00
    1   16    6      0.08      0.00
    2   16    6     -1.11      0.00
    3   16    6      1.97      0.00
    4   16    6     -0.22      0.00
    5   16    6     -0.36      0.00
    6   16    6     -1.18      0.00
    7   16    6      0.68      0.00
    8   16    6      0.38      0.00
    9   16    6      0.03      0.00
   10   16    6      0.56      0.00
   11   16    6      0.34      0.00
  -11   17    6      1.54      0.00
  -10   17    6      2.25      0.00
   -9   17    6     -0.32      0.00
   -8   17    6     -1.14      0.00
   -7   17    6     -0.69      0.00
   -6   17    6      1.08      0.00
   -5   17    6     -0.59      0.00
   -4   17    6     -0.74      0.00
   -3   17    6      0.67      0.00
   -2   17    6     -1.85      0.00
   -1   17    6     -0.84      0.00
    0   17    6      1.02      0.00
    1   17    6      1.43      0.00
    2   17    6      1.05      0.00
    3   17    6     -1.07      0.00
    4   17    6      0.40      0.00
    5   17    6      0.35      0.00
    6   17    6     -1.63      0.00
    7   17    6     -0.36      0.00
    8   17    6      0.10      0.00
    9   17    6     -0.73      0.00
   10   17    6      0.59      0.00
   -9   18    6     -1.10      0.00
   -8   18    6      1.01      0.00
   -7   18    6      0.10      0.00
   -6   18    6     -0.51      0.00
   -5   18    6     -2.01      0.00
   -4   18    6      2.07      0.00
   -3   18    6      0.29      0.00
   -2   18    6     -2.57      0.00
   -1   18    6      0.37      0.00
    0   18    6      1.46      0.00
    1   18    6      1.16      0.00
    2   18    6     -0.46      0.00
    3   18    6      0.42      0.00
    4   18    6      1.33      0.00
    5   18    6     -1.11      0.00
    6   18    6     -1.88      0.00
    7   18    6     -0.47      0.00
    8   18    6      0.54      0.00
    9   18    6      1.05      0.00
   -8   19    6     -0.55      0.00
   -7   19    6     -1.15      0.00
   -6   19    6     -1.60      0.00
   -5   19    6     -0.91      0.00
   -4   19    6      1.07      0.00
   -3   19    6     -0.54      0.00
   -2   19    6      0.78      0.00
   -1   19    6      0.92      0.00
    0   19    6     -0.87      0.00
    1   19    6      1.56      0.00
    2   19    6      1.09      0.00
    3   19    6     -0.35      0.00
    4   19    6     -0.09      0.00
    5   19    6     -0.65      0.00
    6   19    6     -0.35      0.00
    7   19    6      0.53      0.00
   -6   20    6     -1.02      0.00
   -5   20    6      0.22      0.00
   -4   20    6     -0.03      0.00
   -3   20    6      0.40      0.00
   -2   20    6      1.19      0.00
   -1   20    6     -0.07      0.00
    0   20    6     -1.01      0.00
    1   20    6      0.52      0.00
    2   20    6     -0.97      0.00
    3   20    6      0.17      0.00
    4   20    6     -0.70      0.00
    5   20    6     -0.36      0.00
   -2   21    6      1.46      0.00
   -1   21    6      0.00      0.00
    0   21    6     -0.62      0.00
    1   21    6     -0.93      0.00
    2   21    6     -0.31      0.00
  -17    0    7      0.74      0.00
  -15    0    7      1.24      0.00
  -13    0    7     -0.95      0.00
  -11    0    7      1.14      0.00
   -9    0    7     -4.41      0.00
   -7    0    7     -5.81      0.00
   -5    0    7     -5.26      0.00
   -3    0    7     34.33      0.00
   -1    0    7    -13.93      0.00
    1    0    7     10.06      0.00
    3    0    7    -18.85      0.00
    5    0    7     -0.92      0.00
    7    0    7     10.80      0.00
    9    0    7     -2.32      0.00
   11    0    7     -0.30      0.00
   13    0    7     -2.23      0.00
   15    0    7      0.39      0.00
   17    0    7      1.65      0.00
  -18    1    7      0.37      0.00
  -17    1    7     -1.40      0.00
  -16    1    7     -0.63      0.00
  -15    1    7     -1.70      0.00
  -14    1    7     -0.62      0.00
  -13    1    7      0.57      0.00
  -12    1    7     -1.15      0.00
  -11    1    7      0.98      0.00
  -10    1    7     -4.94      0.00
   -9    1    7      2.98      0.00
   -8    1    7      3.76      0.00
   -7    1    7     -9.83      0.00
   -6    1    7      7.51      0.00
   -5    1    7     -1.03      0.00
   -4    1    7      2.63      0.00
   -3    1    7     24.45      0.00
   -2    1    7      5.08      0.00
   -1    1    7    -39.94      0.00
    0    1    7    -14.04      0.00
    1    1    7     17.95      0.00
    2    1    7      2.06      0.00
    3    1    7     -2.89      0.00
    4    1    7     -1.57      0.00
    5    1    7     10.41      0.00
    6    1    7      6.09      0.00
    7    1    7     -0.57      0.00
    8    1    7     -3.33      0.00
    9    1    7     -3.80      0.00
   10    1    7     -2.39      0.00
   11    1    7      2.32      0.00
   12    1    7      1.21      0.00
   13    1    7     -1.01      0.00
   14    1    7      0.98      0.00
   15    1    7     -1.00      0.00
   16    1    7     -0.22      0.00
   17    1    7     -0.03      0.00
  -18    2    7      0.39      0.00
  -17    2    7      0.03      0.00
  -16    2    7     -0.19      0.00
  -15    2    7      0.69      0.00
  -14    2    7     -0.57      0.00
  -13    2    7     -2.59      0.00
  -12    2    7      0.11      0.00
  -11    2    7     -1.57      0.00
  -10    2    7     -1.56      0.00
   -9    2    7      5.15      0.00
   -8    2    7     -0.11      0.00
   -7    2    7      3.52      0.00
   -6    2    7      1.63      0.00
   -5    2    7     -2.00      0.00
   -4    2    7    -12.20      0.00
   -3    2    7      9.10      0.00
   -2    2    7     -2.38      0.00
   -1    2    7    -21.09      0.00
    0    2    7     24.79      0.00
    1    2    7      8.07      0.00
    2    2    7     -9.65      0.00
    3    2    7     -7.14      0.00
    4    2    7      2.41      0.00
    5    2    7     -0.22      0.00
    6    2    7     -6.02      0.00
    7    2    7     -2.55      0.00
    8    2    7      4.86      0.00
    9    2    7      1.30      0.00
   10    2    7     -4.20      0.00
   11    2    7      2.54      0.00
   12    2    7      1.36      0.00
   13    2    7     -1.34      0.00
   14    2    7      0.60      0.00
   15    2    7      0.38      0.00
   16    2    7     -1.94      0.00
   17    2    7     -0.72      0.00
  -18    3    7      1.08      0.00
  -17    3    7     -0.29      0.00
  -16    3    7     -0.27      0.00
  -15    3    7     -0.39      0.00
  -14    3    7      0.71      0.00
  -13    3    7     -0.68      0.00
  -12    3    7     -2.75      0.00
  -11    3    7     -0.70      0.00
  -10    3    7      3.05      0.00
   -9    3    7      1.30      0.00
   -8    3    7      7.27      0.00
   -7    3    7     -0.82      0.00
   -6    3    7     -5.30      0.00
   -5    3    7     -2.25      0.00
   -4    3    7     -4.81      0.00
   -3    3    7     12.75      0.00
   -2    3    7     -5.32      0.00
   -1    3    7      9.30      0.00
    0    3    7     -6.94      0.00
    1    3    7    -12.17      0.00
    2    3    7     21.73      0.00
    3    3    7      1.12      0.00
    4    3    7    -17.42      0.00
    5    3    7      0.57      0.00
    6    3    7      3.07      0.00
    7    3    7     -0.02      0.00
    8    3    7      4.95      0.00
    9    3    7     -1.52      0.00
   10    3    7      0.57      0.00
   11    3    7      2.36      0.00
   12    3    7     -0.10      0.00
   13    3    7     -0.81      0.00
   14    3    7     -1.88      0.00
   15    3    7     -0.74      0.00
   16    3    7     -2.16      0.00
   17    3    7     -0.10      0.00
  -18    4    7     -0.41      0.00
  -17    4    7      0.41      0.00
  -16    4    7      0.81      0.00
  -15    4    7      1.65      0.00
  -14    4    7     -0.83      0.00
  -13    4    7     -4.37      0.00
  -12    4    7     -0.83      0.00
  -11    4    7      2.47      0.00
  -10    4    7      3.19      0.00
   -9    4    7      3.08      0.00
   -8    4    7      3.40      0.00
   -7    4    7     -4.14      0.00
   -6    4    7    -10.02      0.00
   -5    4    7      8.44      0.00
   -4    4    7     10.06      0.00
   -3    4    7    -25.58      0.00
   -2    4    7     -1.60      0.00
   -1    4    7     23.23      0.00
    0    4    7     -2.17      0.00
    1    4    7      5.02      0.00
    2    4    7    -10.57      0.00
    3    4    7    -18.14      0.00
    4    4    7      4.93      0.00
    5    4    7      6.13      0.00
    6    4    7     -2.81      0.00
    7    4    7      2.16      0.00
    8    4    7      7.80      0.00
    9    4    7      3.09      0.00
   10    4    7     -2.45      0.00
   11    4    7     -2.01      0.00
   12    4    7     -0.94      0.00
   13    4    7     -1.34      0.00
   14    4    7     -0.88      0.00
   15    4    7      1.87      0.00
   16    4    7     -0.74      0.00
   17    4    7      1.28      0.00
  -17    5    7      1.42      0.00
  -16    5    7     -0.98      0.00
  -15    5    7     -0.97      0.00
  -14    5    7      0.78      0.00
  -13    5    7     -0.11      0.00
  -12    5    7     -1.46      0.00
  -11    5    7      0.67      0.00
  -10    5    7      2.61      0.00
   -9    5    7     -5.25      0.00
   -8    5    7      2.26      0.00
   -7    5    7      3.75      0.00
   -6    5    7     -7.85      0.00
   -5    5    7     10.41      0.00
   -4    5    7     -2.16      0.00
   -3    5    7    -23.49      0.00
   -2    5    7     21.23      0.00
   -1    5    7     12.83      0.00
    0    5    7    -13.37      0.00
    1    5    7    -13.66      0.00
    2    5    7      5.95      0.00
    3    5    7     16.55      0.00
    4    5    7     -5.34      0.00
    5    5    7     -5.20      0.00
    6    5    7      3.78      0.00
    7    5    7      3.95      0.00
    8    5    7     -2.62      0.00
    9    5    7     -2.41      0.00
   10    5    7      0.65      0.00
   11    5    7     -3.21      0.00
   12    5    7      0.63      0.00
   13    5    7      0.74      0.00
   14    5    7      0.10      0.00
   15    5    7      1.03      0.00
   16    5    7      1.45      0.00
   17    5    7      0.43      0.00
  -17    6    7     -0.37      0.00
  -16    6    7     -1.49      0.00
  -15    6    7      2.35      0.00
  -14    6    7      1.03      0.00
  -13    6    7     -2.59      0.00
  -12    6    7     -0.71      0.00
  -11    6    7      0.20      0.00
  -10    6    7     -0.81      0.00
   -9    6    7     -0.25      0.00
   -8    6    7      9.34      0.00
   -7    6    7     -1.33      0.00
   -6    6    7    -16.13      0.00
   -5    6    7     17.32      0.00
   -4    6    7      0.42      0.00
   -3    6    7    -14.50      0.00
   -2    6    7      7.24      0.00
   -1    6    7      4.04      0.00
    0    6    7      3.24      0.00
    1    6    7     -3.52      0.00
    2    6    7     -1.96      0.00
    3    6    7     -5.72      0.00
    4    6    7      2.47      0.00
    5    6    7      4.28      0.00
    6    6    7      0.78      0.00
    7    6    7     -5.22      0.00
    8    6    7     -2.34      0.00
    9    6    7      5.39      0.00
   10    6    7     -3.43      0.00
   11    6    7      0.12      0.00
   12    6    7      2.10      0.00
   13    6    7     -0.48      0.00
   14    6    7      0.89      0.00
   15    6    7      1.86      0.00
   16    6    7     -0.29      0.00
  -17    7    7      0.06      0.00
  -16    7    7      0.15      0.00
  -15    7    7      0.57      0.00
  -14    7    7      0.48      0.00
  -13    7    7      1.54      0.00
  -12    7    7     -1.37      0.00
  -11    7    7     -3.18      0.00
  -10    7    7      1.77      0.00
   -9    7    7     -0.02      0.00
   -8    7    7      2.87      0.00
   -7    7    7     -3.57      0.00
   -6    7    7      2.72      0.00
   -5    7    7      9.17      0.00
   -4    7    7     -8.75      0.00
   -3    7    7     -2.85      0.00
   -2    7    7     -2.32      0.00
   -1    7    7      4.68      0.00
    0    7    7      0.37      0.00
    1    7    7     -8.18      0.00
    2    7    7      5.34      0.00
    3    7    7     15.89      0.00
    4    7    7     -0.04      0.00
    5    7    7     -8.43      0.00
    6    7    7     -2.52      0.00
    7    7    7     -0.94      0.00
    8    7    7      0.18      0.00
    9    7    7     -1.20      0.00
   10    7    7      2.68      0.00
   11    7    7      2.46      0.00
   12    7    7     -1.85      0.00
   13    7    7      0.29      0.00
   14    7    7      0.04      0.00
   15    7    7     -2.19      0.00
   16    7    7     -1.36      0.00
  -17    8    7      0.03      0.00
  -16    8    7      0.07      0.00
  -15    8    7     -0.27      0.00
  -14    8    7      0.56      0.00
  -13    8    7      0.22      0.00
  -12    8    7     -2.24      0.00
  -11    8    7     -0.89      0.00
  -10    8    7      1.39      0.00
   -9    8    7      1.28      0.00
   -8    8    7      0.93      0.00
   -7    8    7     -0.84      0.00
   -6    8    7     -1.08      0.00
   -5    8    7     -4.25      0.00
   -4    8    7      5.65      0.00
   -3    8    7      0.25      0.00
   -2    8    7     -8.04      0.00
   -1    8    7      8.41      0.00
    0    8    7      4.90      0.00
    1    8    7     -4.17      0.00
    2    8    7      5.87      0.00
    3    8    7     -4.03      0.00
    4    8    7     -6.43      0.00
    5    8    7      0.88      0.00
    6    8    7      0.83      0.00
    7    8    7     -0.58      0.00
    8    8    7     -2.64      0.00
    9    8    7      3.82      0.00
   10    8    7      2.25      0.00
   11    8    7     -1.11      0.00
   12    8    7     -0.66      0.00
   13    8    7     -0.63      0.00
   14    8    7     -1.94      0.00
   15    8    7     -0.67      0.00
   16    8    7      0.26      0.00
  -16    9    7      0.13      0.00
  -15    9    7     -0.68      0.00
  -14    9    7      1.50      0.00
  -13    9    7      2.39      0.00
  -12    9    7     -0.35      0.00
  -11    9    7     -1.99      0.00
  -10    9    7      0.61      0.00
   -9    9    7     -1.10      0.00
   -8    9    7     -1.52      0.00
   -7    9    7      2.03      0.00
   -6    9    7      1.79      0.00
   -5    9    7     -0.96      0.00
   -4    9    7      4.13      0.00
   -3    9    7     -1.44      0.00
   -2    9    7     -8.54      0.00
   -1    9    7      1.83      0.00
    0    9    7     -3.58      0.00
    1    9    7      0.50      0.00
    2    9    7      4.19      0.00
    3    9    7     -3.51      0.00
    4    9    7      2.35      0.00
    5    9    7     -2.31      0.00
    6    9    7     -0.61      0.00
    7    9    7     -0.25      0.00
    8    9    7     -0.18      0.00
    9    9    7      2.31      0.00
   10    9    7     -0.53      0.00
   11    9    7     -0.80      0.00
   12    9    7      0.10      0.00
   13    9    7     -0.66      0.00
   14    9    7     -0.35      0.00
   15    9    7      0.35      0.00
  -16   10    7     -0.40      0.00
  -15   10    7     -0.58      0.00
  -14   10    7     -0.97      0.00
  -13   10    7      1.20      0.00
  -12   10    7     -1.47      0.00
  -11   10    7     -0.12      0.00
  -10   10    7      0.19      0.00
   -9   10    7      0.52      0.00
   -8   10    7      1.39      0.00
   -7   10    7      0.08      0.00
   -6   10    7     -0.89      0.00
   -5   10    7     -4.82      0.00
   -4   10    7      4.29      0.00
   -3   10    7      0.25      0.00
   -2   10    7     -4.23      0.00
   -1   10    7      2.83      0.00
    0   10    7      0.86      0.00
    1   10    7      3.41      0.00
    2   10    7     -0.36      0.00
    3   10    7     -3.09      0.00
    4   10    7     -0.11      0.00
    5   10    7      0.56      0.00
    6   10    7      2.44      0.00
    7   10    7     -0.72      0.00
    8   10    7     -0.29      0.00
    9   10    7     -0.12      0.00
   10   10    7     -2.19      0.00
   11   10    7      1.84      0.00
   12   10    7      1.23      0.00
   13   10    7     -1.08      0.00
   14   10    7      0.07      0.00
   15   10    7     -0.69      0.00
  -15   11    7     -1.60      0.00
  -14   11    7      1.88      0.00
  -13   11    7      2.23      0.00
  -12   11    7      0.46      0.00
  -11   11    7      0.10      0.00
  -10   11    7     -2.08      0.00
   -9   11    7      0.52      0.00
   -8   11    7     -0.18      0.00
   -7   11    7     -0.92      0.00
   -6   11    7      0.93      0.00
   -5   11    7      0.15      0.00
   -4   11    7      2.47      0.00
   -3   11    7      1.52      0.00
   -2   11    7     -1.68      0.00
   -1   11    7     -3.24      0.00
    0   11    7     -1.82      0.00
    1   11    7      3.08      0.00
    2   11    7      1.07      0.00
    3   11    7     -2.04      0.00
    4   11    7     -0.01      0.00
    5   11    7      1.27      0.00
    6   11    7     -0.06      0.00
    7   11    7     -1.22      0.00
    8   11    7      0.01      0.00
    9   11    7     -1.90      0.00
   10   11    7      0.68      0.00
   11   11    7      1.43      0.00
   12   11    7     -0.23      0.00
   13   11    7      0.17      0.00
   14   11    7     -0.91      0.00
   15   11    7     -0.85      0.00
  -15   12    7      1.49      0.00
  -14   12    7      0.38      0.00
  -13   12    7     -1.55      0.00
  -12   12    7     -0.52      0.00
  -11   12    7      0.11      0.00
  -10   12    7     -0.70      0.00
   -9   12    7      1.97      0.00
   -8   12    7      0.56      0.00
   -7   12    7     -1.11      0.00
   -6   12    7      0.78      0.00
   -5   12    7     -1.44      0.00
   -4   12    7     -1.89      0.00
   -3   12    7      2.55      0.00
   -2   12    7     -0.19      0.00
   -1   12    7     -1.13      0.00
    0   12    7      2.03      0.00
    1   12    7      1.69      0.00
    2   12    7      1.11      0.00
    3   12    7     -2.84      0.00
    4   12    7      0.28      0.00
    5   12    7      2.15      0.00
    6   12    7      1.29      0.00
    7   12    7      0.05      0.00
    8   12    7     -0.76      0.00
    9   12    7     -0.10      0.00
   10   12    7      0.80      0.00
   11   12    7      0.71      0.00
   12   12    7     -0.32      0.00
   13   12    7      0.20      0.00
   14   12    7     -0.50      0.00
  -14   13    7     -1.65      0.00
  -13   13    7      0.11      0.00
  -12   13    7      0.83      0.00
  -11   13    7      0.60      0.00
  -10   13    7     -0.92      0.00
   -9   13    7      0.15      0.00
   -8   13    7      0.66      0.00
   -7   13    7     -0.97      0.00
   -6   13    7     -0.30      0.00
   -5   13    7     -1.83      0.00
   -4   13    7      1.98      0.00
   -3   13    7      3.54      0.00
   -2   13    7     -0.65      0.00
   -1   13    7      0.25      0.00
    0   13    7     -0.48      0.00
    1   13    7     -0.46      0.00
    2   13    7     -1.86      0.00
    3   13    7     -1.19      0.00
    4   13    7      0.09      0.00
    5   13    7      1.71      0.00
    6   13    7      0.43      0.00
    7   13    7     -1.13      0.00
    8   13    7     -0.27      0.00
    9   13    7      0.45      0.00
   10   13    7      0.35      0.00
   11   13    7     -0.60      0.00
   12   13    7      0.22      0.00
   13   13    7      1.04      0.00
  -13   14    7      0.32      0.00
  -12   14    7     -1.08      0.00
  -11   14    7      0.27      0.00
  -10   14    7      0.33      0.00
   -9   14    7     -0.27      0.00
   -8   14    7      0.95      0.00
   -7   14    7     -1.82      0.00
   -6   14    7     -0.01      0.00
   -5   14    7      2.47      0.00
   -4   14    7      0.45      0.00
   -3   14    7     -1.84      0.00
   -2   14    7      2.44      0.00
   -1   14    7     -0.21      0.00
    0   14    7     -1.55      0.00
    1   14    7     -3.00      0.00
    2   14    7      0.85      0.00
    3   14    7      0.71      0.00
    4   14    7     -0.70      0.00
    5   14    7      2.21      0.00
    6   14    7      1.34      0.00
    7   14    7      0.19      0.00
    8   14    7     -0.45      0.00
    9   14    7     -0.14      0.00
   10   14    7      0.10      0.00
   11   14    7     -0.16      0.00
   12   14    7     -0.77      0.00
   13   14    7      1.47      0.00
  -13   15    7     -1.18      0.00
  -12   15    7     -0.62      0.00
  -11   15    7      0.43      0.00
  -10   15    7     -0.99      0.00
   -9   15    7     -0.15      0.00
   -8   15    7      1.43      0.00
   -7   15    7      0.93      0.00
   -6   15    7      1.71      0.00
   -5   15    7      0.16      0.00
   -4   15    7     -1.75      0.00
   -3   15    7      0.80      0.00
   -2   15    7      0.30      0.00
   -1   15    7     -1.48      0.00
    0   15    7     -0.66      0.00
    1   15    7      0.02      0.00
    2   15    7      1.45      0.00
    3   15    7      0.03      0.00
    4   15    7     -1.05      0.00
    5   15    7      1.25      0.00
    6   15    7     -0.08      0.00
    7   15    7     -0.66      0.00
    8   15    7     -1.88      0.00
    9   15    7      1.14      0.00
   10   15    7      0.46      0.00
   11   15    7     -2.72      0.00
   12   15    7      1.50      0.00
  -12   16    7      0.92      0.00
  -11   16    7      1.47      0.00
  -10   16    7      1.08      0.00
   -9   16    7      0.77      0.00
   -8   16    7      0.47      0.00
   -7   16    7     -1.18      0.00
   -6   16    7     -0.16      0.00
   -5   16    7      0.98      0.00
   -4   16    7     -1.33      0.00
   -3   16    7     -2.34      0.00
   -2   16    7     -0.27      0.00
   -1   16    7      2.59      0.00
    0   16    7      0.43      0.00
    1   16    7     -0.75      0.00
    2   16    7      0.91      0.00
    3   16    7     -0.20      0.00
    4   16    7     -1.53      0.00
    5   16    7      0.27      0.00
    6   16    7      0.47      0.00
    7   16    7     -0.09      0.00
    8   16    7     -0.29      0.00
    9   16    7     -0.03      0.00
   10   16    7     -1.71      0.00
   11   16    7     -0.21      0.00
  -11   17    7      0.54      0.00
  -10   17    7     -2.33      0.00
   -9   17    7     -1.34      0.00
   -8   17    7     -1.32      0.00
   -7   17    7      1.93      0.00
   -6   17    7      0.18      0.00
   -5   17    7     -0.87      0.00
   -4   17    7     -0.75      0.00
   -3   17    7      0.11      0.00
   -2   17    7     -0.12      0.00
   -1   17    7      1.08      0.00
    0   17    7      0.55      0.00
    1   17    7      0.44      0.00
    2   17    7     -0.46      0.00
    3   17    7     -0.44      0.00
    4   17    7      0.22      0.00
    5   17    7     -1.42      0.00
    6   17    7     -1.47      0.00
    7   17    7      0.46      0.00
    8   17    7     -1.08      0.00
    9   17    7     -0.62      0.00
   10   17    7      1.52      0.00
   -9   18    7      0.06      0.00
   -8   18    7      1.07      0.00
   -7   18    7     -0.71      0.00
   -6   18    7     -2.67      0.00
   -5   18    7     -0.58      0.00
   -4   18    7      1.51      0.00
   -3   18    7     -2.12      0.00
   -2   18    7      0.25      0.00
   -1   18    7      2.23      0.00
    0   18    7      0.87      0.00
    1   18    7     -1.38      0.00
    2   18    7      0.85      0.00
    3   18    7      1.70      0.00
    4   18    7     -2.22      0.00
    5   18    7     -2.29      0.00
    6   18    7      1.47      0.00
    7   18    7      2.55      0.00
    8   18    7     -0.48      0.00
   -8   19    7     -1.55      0.00
   -7   19    7     -1.13      0.00
   -6   19    7     -1.36      0.00
   -5   19    7      1.15      0.00
   -4   19    7      0.29      0.00
   -3   19    7      0.64      0.00
   -2   19    7      1.37      0.00
   -1   19    7     -0.99      0.00
    0   19    7     -0.56      0.00
    1   19    7      0.52      0.00
    2   19    7      0.87      0.00
    3   19    7     -0.80      0.00
    4   19    7     -1.57      0.00
    5   19    7     -0.38      0.00
    6   19    7      2.11      0.00
    7   19    7      0.57      0.00
   -5   20    7      0.48      0.00
   -4   20    7      0.85      0.00
   -3   20    7      2.02      0.00
   -2   20    7     -0.08      0.00
   -1   20    7     -2.01      0.00
    0   20    7      0.05      0.00
    1   20    7     -0.22      0.00
    2   20    7     -0.16      0.00
    3   20    7     -0.51      0.00
    4   20    7     -1.51      0.00
    5   20    7      0.76      0.00
   -1   21    7     -1.96      0.00
    0   21    7     -0.03      0.00
  -18    0    8     -0.42      0.00
  -16    0    8     -1.22      0.00
  -14    0    8     -0.80      0.00
  -12    0    8      0.00      0.00
  -10    0    8     -2.02      0.00
   -8    0    8      2.01      0.00
   -6    0    8     -0.71      0.00
   -4    0    8     19.55      0.00
   -2    0    8    -18.23      0.00
    0    0    8     -3.57      0.00
    2    0    8      2.54      0.00
    4    0    8      5.82      0.00
    6    0    8      9.65      0.00
    8    0    8     -9.99      0.00
   10    0    8      1.09      0.00
   12    0    8     -0.20      0.00
   14    0    8      0.13      0.00
   16    0    8      0.55      0.00
  -18    1    8     -1.36      0.00
  -17    1    8     -0.48      0.00
  -16    1    8      0.39      0.00
  -15    1    8      0.23      0.00
  -14    1    8      1.46      0.00
  -13    1    8     -2.16      0.00
  -12    1    8      0.22      0.00
  -11    1    8      0.63      0.00
  -10    1    8     -0.28      0.00
   -9    1    8      5.12      0.00
   -8    1    8     -5.95      0.00
   -7    1    8      3.04      0.00
   -6    1    8      2.85      0.00
   -5    1    8     -4.87      0.00
   -4    1    8      9.60      0.00
   -3    1    8      1.55      0.00
   -2    1    8    -20.73      0.00
   -1    1    8    -13.42      0.00
    0    1    8     10.33      0.00
    1    1    8     16.97      0.00
    2    1    8      1.36      0.00
    3    1    8     -8.33      0.00
    4    1    8      2.72      0.00
    5    1    8      0.02      0.00
    6    1    8     -2.72      0.00
    7    1    8     -4.29      0.00
    8    1    8     -4.03      0.00
    9    1    8      2.01      0.00
   10    1    8      3.23      0.00
   11    1    8      1.85      0.00
   12    1    8     -0.61      0.00
   13    1    8     -0.31      0.00
   14    1    8     -1.48      0.00
   15    1    8     -0.91      0.00
   16    1    8      1.72      0.00
   17    1    8      0.17      0.00
  -18    2    8      0.43      0.00
  -17    2    8      0.82      0.00
  -16    2    8     -0.28      0.00
  -15    2    8     -0.17      0.00
  -14    2    8     -2.84      0.00
  -13    2    8     -0.81      0.00
  -12    2    8      2.12      0.00
  -11    2    8     -0.51      0.00
  -10    2    8      6.26      0.00
   -9    2    8     -0.79      0.00
   -8    2    8     -2.40      0.00
   -7    2    8      0.85      0.00
   -6    2    8     -3.79      0.00
   -5    2    8     -9.05      0.00
   -4    2    8      3.67      0.00
   -3    2    8     21.64      0.00
   -2    2    8    -17.73      0.00
   -1    2    8     -1.01      0.00
    0    2    8     21.10      0.00
    1    2    8     -5.03      0.00
    2    2    8    -18.27      0.00
    3    2    8      2.66      0.00
    4    2    8      4.47      0.00
    5    2    8     -8.08      0.00
    6    2    8      5.39      0.00
    7    2    8      5.66      0.00
    8    2    8      3.66      0.00
    9    2    8     -4.98      0.00
   10    2    8      0.20      0.00
   11    2    8      2.69      0.00
   12    2    8     -3.12      0.00
   13    2    8     -0.85      0.00
   14    2    8     -0.26      0.00
   15    2    8     -0.34      0.00
   16    2    8     -0.69      0.00
   17    2    8      1.29      0.00
  -18    3    8     -0.11      0.00
  -17    3    8     -1.46      0.00
  -16    3    8     -1.43      0.00
  -15    3    8      0.28      0.00
  -14    3    8     -0.83      0.00
  -13    3    8     -1.82      0.00
  -12    3    8     -0.90      0.00
  -11    3    8      5.48      0.00
  -10    3    8      2.75      0.00
   -9    3    8     -0.84      0.00
   -8    3    8     -2.47      0.00
   -7    3    8     -3.22      0.00
   -6    3    8      6.65      0.00
   -5    3    8    -11.67      0.00
   -4    3    8     15.99      0.00
   -3    3    8      7.76      0.00
   -2    3    8    -19.57      0.00
   -1    3    8      1.80      0.00
    0    3    8      1.37      0.00
    1    3    8      0.76      0.00
    2    3    8     -3.22      0.00
    3    3    8     -4.74      0.00
    4    3    8     -4.01      0.00
    5    3    8      9.24      0.00
    6    3    8      2.20      0.00
    7    3    8      3.68      0.00
    8    3    8      1.32      0.00
    9    3    8     -3.32      0.00
   10    3    8      2.38      0.00
   11    3    8     -1.24      0.00
   12    3    8     -2.32      0.00
   13    3    8     -0.04      0.00
   14    3    8      0.05      0.00
   15    3    8      0.15      0.00
   16    3    8      0.32      0.00
   17    3    8      1.99      0.00
  -18    4    8      0.20      0.00
  -17    4    8     -1.29      0.00
  -16    4    8     -0.03      0.00
  -15    4    8      0.46      0.00
  -14    4    8     -3.01      0.00
  -13    4    8      0.29      0.00
  -12    4    8      2.63      0.00
  -11    4    8      1.34      0.00
  -10    4    8      0.25      0.00
   -9    4    8      0.77      0.00
   -8    4    8     -4.08      0.00
   -7    4    8      0.62      0.00
   -6    4    8      0.18      0.00
   -5    4    8     -1.92      0.00
   -4    4    8     -5.64      0.00
   -3    4    8     -1.42      0.00
   -2    4    8     13.97      0.00
   -1    4    8     -4.96      0.00
    0    4    8     -2.10      0.00
    1    4    8     -8.17      0.00
    2    4    8     -2.73      0.00
    3    4    8      7.82      0.00
    4    4    8      8.75      0.00
    5    4    8     -0.60      0.00
    6    4    8     -4.25      0.00
    7    4    8      7.54      0.00
    8    4    8      1.43      0.00
    9    4    8     -7.99      0.00
   10    4    8     -3.33      0.00
   11    4    8      1.03      0.00
   12    4    8      0.94      0.00
   13    4    8     -0.67      0.00
   14    4    8      2.03      0.00
   15    4    8      0.09      0.00
   16    4    8     -0.06      0.00
   17    4    8      1.87      0.00
  -17    5    8     -0.05      0.00
  -16    5    8     -1.15      0.00
  -15    5    8      1.51      0.00
  -14    5    8      1.46      0.00
  -13    5    8     -1.33      0.00
  -12    5    8     -3.13      0.00
  -11    5    8      0.69      0.00
  -10    5    8      2.29      0.00
   -9    5    8      0.83      0.00
   -8    5    8      5.46      0.00
   -7    5    8     -4.43      0.00
   -6    5    8     -4.66      0.00
   -5    5    8      1.38      0.00
   -4    5    8     -7.65      0.00
   -3    5    8     14.02      0.00
   -2    5    8      3.56      0.00
   -1    5    8    -13.90      0.00
    0    5    8     -0.98      0.00
    1    5    8     11.65      0.00
    2    5    8     10.15      0.00
    3    5    8    -10.35      0.00
    4    5    8     -4.00      0.00
    5    5    8      0.80      0.00
    6    5    8     -0.55      0.00
    7    5    8     -0.07      0.00
    8    5    8     -3.83      0.00
    9    5    8      0.85      0.00
   10    5    8      0.95      0.00
   11    5    8      0.36      0.00
   12    5    8      0.89      0.00
   13    5    8     -0.60      0.00
   14    5    8      0.78      0.00
   15    5    8      0.85      0.00
   16    5    8      0.28      0.00
  -17    6    8     -0.87      0.00
  -16    6    8     -0.36      0.00
  -15    6    8      1.29      0.00
  -14    6    8     -2.07      0.00
  -13    6    8     -1.08      0.00
  -12    6    8     -0.29      0.00
  -11    6    8      1.42      0.00
  -10    6    8      1.62      0.00
   -9    6    8      4.21      0.00
   -8    6    8      2.72      0.00
   -7    6    8    -15.71      0.00
   -6    6    8      5.99      0.00
   -5    6    8     12.15      0.00
   -4    6    8    -16.56      0.00
   -3    6    8      3.76      0.00
   -2    6    8      7.84      0.00
   -1    6    8     -1.06      0.00
    0    6    8      0.11      0.00
    1    6    8      1.38      0.00
    2    6    8     -6.18      0.00
    3    6    8      1.45      0.00
    4    6    8      7.36      0.00
    5    6    8     -5.53      0.00
    6    6    8     -3.76      0.00
    7    6    8     -1.13      0.00
    8    6    8      6.17      0.00
    9    6    8      1.50      0.00
   10    6    8     -4.04      0.00
   11    6    8      2.28      0.00
   12    6    8     -0.59      0.00
   13    6    8     -0.66      0.00
   14    6    8      0.96      0.00
   15    6    8     -1.03      0.00
   16    6    8     -1.84      0.00
  -17    7    8     -0.31      0.00
  -16    7    8     -0.16      0.00
  -15    7    8     -0.79      0.00
  -14    7    8      1.13      0.00
  -13    7    8      0.05      0.00
  -12    7    8     -2.56      0.00
  -11    7    8      0.16      0.00
  -10    7    8      0.68      0.00
   -9    7    8      3.61      0.00
   -8    7    8      0.54      0.00
   -7    7    8     -7.76      0.00
   -6    7    8      9.79      0.00
   -5    7    8     -6.30      0.00
   -4    7    8     -9.58      0.00
   -3    7    8      8.79      0.00
   -2    7    8      3.27      0.00
   -1    7    8     -0.21      0.00
    0    7    8      1.61      0.00
    1    7    8      4.33      0.00
    2    7    8      1.27      0.00
    3    7    8     -2.49      0.00
    4    7    8    -11.28      0.00
    5    7    8     -0.49      0.00
    6    7    8      4.26      0.00
    7    7    8     -0.37      0.00
    8    7    8      2.33      0.00
    9    7    8      0.77      0.00
   10    7    8      1.29      0.00
   11    7    8     -2.71      0.00
   12    7    8     -0.87      0.00
   13    7    8      1.56      0.00
   14    7    8     -1.48      0.00
   15    7    8     -1.26      0.00
   16    7    8      0.80      0.00
  -16    8    8      0.06      0.00
  -15    8    8      0.80      0.00
  -14    8    8      0.96      0.00
  -13    8    8     -0.20      0.00
  -12    8    8     -0.15      0.00
  -11    8    8     -0.01      0.00
  -10    8    8     -0.94      0.00
   -9    8    8      2.24      0.00
   -8    8    8     -3.37      0.00
   -7    8    8     -3.23      0.00
   -6    8    8      1.74      0.00
   -5    8    8      1.85      0.00
   -4    8    8      1.90      0.00
   -3    8    8     -5.81      0.00
   -2    8    8      2.71      0.00
   -1    8    8      5.40      0.00
    0    8    8     -6.90      0.00
    1    8    8     -4.48      0.00
    2    8    8     -1.14      0.00
    3    8    8     -3.92      0.00
    4    8    8      3.53      0.00
    5    8    8      4.41      0.00
    6    8    8     -1.10      0.00
    7    8    8     -2.79      0.00
    8    8    8      2.67      0.00
    9    8    8      2.41      0.00
   10    8    8     -2.46      0.00
   11    8    8     -1.45      0.00
   12    8    8      0.97      0.00
   13    8    8     -0.62      0.00
   14    8    8     -1.14      0.00
   15    8    8      0.04      0.00
   16    8    8      0.73      0.00
  -16    9    8      0.57      0.00
  -15    9    8      1.69      0.00
  -14    9    8      0.20      0.00
  -13    9    8     -0.56      0.00
  -12    9    8     -1.57      0.00
  -11    9    8     -1.76      0.00
  -10    9    8     -0.06      0.00
   -9    9    8      1.77      0.00
   -8    9    8      1.75      0.00
   -7    9    8      1.95      0.00
   -6    9    8     -1.24      0.00
   -5    9    8      1.83      0.00
   -4    9    8     -1.16      0.00
   -3    9    8     -8.70      0.00
   -2    9    8      3.48      0.00
   -1    9    8      0.93      0.00
    0    9    8     -2.52      0.00
    1    9    8      7.21      0.00
    2    9    8     -1.54      0.00
    3    9    8     -0.27      0.00
    4    9    8     -0.53      0.00
    5    9    8     -1.14      0.00
    6    9    8      1.76      0.00
    7    9    8     -0.75      0.00
    8    9    8      0.12      0.00
    9    9    8      0.20      0.00
   10    9    8     -0.49      0.00
   11    9    8     -0.06      0.00
   12    9    8     -0.21      0.00
   13    9    8      0.03      0.00
   14    9    8      0.55      0.00
   15    9    8      0.11      0.00
  -16   10    8      0.20      0.00
  -15   10    8     -0.67      0.00
  -14   10    8     -0.41      0.00
  -13   10    8      0.73      0.00
  -12   10    8     -0.60      0.00
  -11   10    8      0.39      0.00
  -10   10    8      0.94      0.00
   -9   10    8      0.26      0.00
   -8   10    8     -0.22      0.00
   -7   10    8     -1.21      0.00
   -6   10    8     -2.17      0.00
   -5   10    8      4.49      0.00
   -4   10    8      0.69      0.00
   -3   10    8     -6.42      0.00
   -2   10    8      3.87      0.00
   -1   10    8      1.39      0.00
    0   10    8      0.22      0.00
    1   10    8      1.06      0.00
    2   10    8     -2.04      0.00
    3   10    8      0.68      0.00
    4   10    8      0.83      0.00
    5   10    8      1.29      0.00
    6   10    8      0.17      0.00
    7   10    8     -2.96      0.00
    8   10    8     -0.45      0.00
    9   10    8      0.76      0.00
   10   10    8      0.76      0.00
   11   10    8      1.24      0.00
   12   10    8     -0.69      0.00
   13   10    8      0.88      0.00
   14   10    8     -0.49      0.00
   15   10    8     -1.36      0.00
  -15   11    8      0.48      0.00
  -14   11    8      2.26      0.00
  -13   11    8     -0.52      0.00
  -12   11    8     -1.24      0.00
  -11   11    8     -0.52      0.00
  -10   11    8      0.11      0.00
   -9   11    8      0.54      0.00
   -8   11    8      0.27      0.00
   -7   11    8      0.12      0.00
   -6   11    8     -0.99      0.00
   -5   11    8      1.21      0.00
   -4   11    8     -1.12      0.00
   -3   11    8     -2.27      0.00
   -2   11    8      1.34      0.00
   -1   11    8      0.00      0.00
    0   11    8      2.07      0.00
    1   11    8      1.87      0.00
    2   11    8     -2.12      0.00
    3   11    8      0.29      0.00
    4   11    8      0.77      0.00
    5   11    8     -1.20      0.00
    6   11    8     -0.14      0.00
    7   11    8     -0.45      0.00
    8   11    8      1.34      0.00
    9   11    8      0.06      0.00
   10   11    8      1.60      0.00
   11   11    8      0.14      0.00
   12   11    8      0.34      0.00
   13   11    8      0.15      0.00
   14   11    8     -1.89      0.00
  -15   12    8      0.04      0.00
  -14   12    8     -1.66      0.00
  -13   12    8     -0.43      0.00
  -12   12    8      0.04      0.00
  -11   12    8      0.20      0.00
  -10   12    8     -0.03      0.00
   -9   12    8      0.63      0.00
   -8   12    8     -2.30      0.00
   -7   12    8     -0.77      0.00
   -6   12    8      1.20      0.00
   -5   12    8     -0.61      0.00
   -4   12    8      3.23      0.00
   -3   12    8      3.20      0.00
   -2   12    8     -0.80      0.00
   -1   12    8     -0.87      0.00
    0   12    8     -0.19      0.00
    1   12    8     -0.73      0.00
    2   12    8     -1.84      0.00
    3   12    8      1.43      0.00
    4   12    8      1.26      0.00
    5   12    8      0.16      0.00
    6   12    8     -1.46      0.00
    7   12    8      0.84      0.00
    8   12    8     -0.46      0.00
    9   12    8     -0.21      0.00
   10   12    8      0.92      0.00
   11   12    8     -0.91      0.00
   12   12    8     -0.26      0.00
   13   12    8     -0.73      0.00
   14   12    8      0.21      0.00
  -14   13    8     -0.26      0.00
  -13   13    8      0.51      0.00
  -12   13    8      1.06      0.00
  -11   13    8     -1.16      0.00
  -10   13    8      1.18      0.00
   -9   13    8      1.23      0.00
   -8   13    8     -1.58      0.00
   -7   13    8      1.92      0.00
   -6   13    8      0.53      0.00
   -5   13    8     -0.45      0.00
   -4   13    8      3.54      0.00
   -3   13    8     -1.47      0.00
   -2   13    8     -4.06      0.00
   -1   13    8     -1.06      0.00
    0   13    8     -1.47      0.00
    1   13    8     -1.04      0.00
    2   13    8      0.03      0.00
    3   13    8      2.11      0.00
    4   13    8      1.07      0.00
    5   13    8     -0.61      0.00
    6   13    8     -0.98      0.00
    7   13    8      1.44      0.00
    8   13    8     -1.06      0.00
    9   13    8     -0.21      0.00
   10   13    8     -1.12      0.00
   11   13    8     -0.88      0.00
   12   13    8      0.16      0.00
   13   13    8      0.57      0.00
  -13   14    8      0.53      0.00
  -12   14    8      0.24      0.00
  -11   14    8     -0.21      0.00
  -10   14    8     -0.01      0.00
   -9   14    8     -0.76      0.00
   -8   14    8     -1.05      0.00
   -7   14    8      0.98      0.00
   -6   14    8      1.55      0.00
   -5   14    8     -1.55      0.00
   -4   14    8     -2.03      0.00
   -3   14    8      0.71      0.00
   -2   14    8      0.67      0.00
   -1   14    8     -1.65      0.00
    0   14    8     -1.37      0.00
    1   14    8      2.01      0.00
    2   14    8      2.76      0.00
    3   14    8     -1.79      0.00
    4   14    8      1.76      0.00
    5   14    8     -0.25      0.00
    6   14    8     -0.46      0.00
    7   14    8     -0.58      0.00
    8   14    8     -1.44      0.00
    9   14    8     -0.71      0.00
   10   14    8     -0.25      0.00
   11   14    8      0.27      0.00
   12   14    8      0.91      0.00
  -12   15    8     -0.32      0.00
  -11   15    8     -0.15      0.00
  -10   15    8     -0.33      0.00
   -9   15    8      1.26      0.00
   -8   15    8      0.34      0.00
   -7   15    8      0.79      0.00
   -6   15    8     -0.79      0.00
   -5   15    8     -2.31      0.00
   -4   15    8      0.27      0.00
   -3   15    8      1.68      0.00
   -2   15    8     -1.13      0.00
   -1   15    8     -0.18      0.00
    0   15    8      0.18      0.00
    1   15    8      2.07      0.00
    2   15    8     -2.98      0.00
    3   15    8     -0.81      0.00
    4   15    8      1.47      0.00
    5   15    8     -0.92      0.00
    6   15    8     -0.09      0.00
    7   15    8     -0.93      0.00
    8   15    8      0.73      0.00
    9   15    8      0.27      0.00
   10   15    8     -0.98      0.00
   11   15    8      0.91      0.00
   12   15    8      1.96      0.00
  -11   16    8     -0.21      0.00
  -10   16    8     -1.83      0.00
   -9   16    8      0.12      0.00
   -8   16    8     -1.58      0.00
   -7   16    8      0.56      0.00
   -6   16    8      1.59      0.00
   -5   16    8     -0.19      0.00
   -4   16    8     -2.38      0.00
   -3   16    8      1.38      0.00
   -2   16    8      3.06      0.00
   -1   16    8     -0.50      0.00
    0   16    8     -0.97      0.00
    1   16    8     -0.25      0.00
    2   16    8     -0.03      0.00
    3   16    8     -0.98      0.00
    4   16    8      0.16      0.00
    5   16    8      0.23      0.00
    6   16    8     -0.26      0.00
    7   16    8     -0.93      0.00
    8   16    8      1.11      0.00
    9   16    8     -0.81      0.00
   10   16    8     -0.17      0.00
   11   16    8      3.07      0.00
  -10   17    8     -0.16      0.00
   -9   17    8      0.71      0.00
   -8   17    8      1.37      0.00
   -7   17    8      1.24      0.00
   -6   17    8     -1.70      0.00
   -5   17    8     -1.99      0.00
   -4   17    8      0.36      0.00
   -3   17    8      1.73      0.00
   -2   17    8     -0.50      0.00
   -1   17    8     -1.23      0.00
    0   17    8      1.02      0.00
    1   17    8      0.35      0.00
    2   17    8     -1.18      0.00
    3   17    8     -0.59      0.00
    4   17    8      0.03      0.00
    5   17    8     -0.31      0.00
    6   17    8      0.95      0.00
    7   17    8      1.25      0.00
    8   17    8      0.32      0.00
    9   17    8      1.22      0.00
   -9   18    8     -0.39      0.00
   -8   18    8     -0.33      0.00
   -7   18    8     -2.94      0.00
   -6   18    8     -1.07      0.00
   -5   18    8      0.87      0.00
   -4   18    8      1.23      0.00
   -3   18    8     -0.63      0.00
   -2   18    8      0.71      0.00
   -1   18    8      0.44      0.00
    0   18    8     -0.84      0.00
    1   18    8      0.10      0.00
    2   18    8      2.10      0.00
    3   18    8     -2.33      0.00
    4   18    8     -0.66      0.00
    5   18    8      2.11      0.00
    6   18    8      3.15      0.00
    7   18    8     -1.44      0.00
    8   18    8      0.54      0.00
   -7   19    8      0.73      0.00
   -6   19    8      0.46      0.00
   -5   19    8      2.06      0.00
   -4   19    8      0.79      0.00
   -3   19    8     -0.03      0.00
   -2   19    8     -1.40      0.00
   -1   19    8     -0.94      0.00
    0   19    8      0.10      0.00
    1   19    8      1.96      0.00
    2   19    8     -1.26      0.00
    3   19    8     -2.07      0.00
    4   19    8      0.24      0.00
    5   19    8      1.53      0.00
    6   19    8      0.65      0.00
   -5   20    8      0.10      0.00
   -4   20    8      0.49      0.00
   -3   20    8     -1.52      0.00
   -2   20    8     -2.11      0.00
   -1   20    8      0.71      0.00
    0   20    8      1.01      0.00
    1   20    8      0.07      0.00
    2   20    8     -0.41      0.00
    3   20    8     -0.76      0.00
    4   20    8      0.42      0.00
  -17    0    9     -0.17      0.00
  -15    0    9     -0.31      0.00
  -13    0    9      0.58      0.00
  -11    0    9      3.02      0.00
   -9    0    9     -0.52      0.00
   -7    0    9     -2.45      0.00
   -5    0    9      8.32      0.00
   -3    0    9    -12.99      0.00
   -1    0    9      1.48      0.00
    1    0    9      4.51      0.00
    3    0    9      0.42      0.00
    5    0    9      3.10      0.00
    7    0    9     -7.08      0.00
    9    0    9      2.84      0.00
   11    0    9      0.13      0.00
   13    0    9     -1.11      0.00
   15    0    9     -0.09      0.00
   17    0    9      0.88      0.00
  -18    1    9     -0.04      0.00
  -17    1    9      0.98      0.00
  -16    1    9     -0.60      0.00
  -15    1    9     -0.14      0.00
  -14    1    9     -1.54      0.00
  -13    1    9     -0.48      0.00
  -12    1    9      3.20      0.00
  -11    1    9      0.23      0.00
  -10    1    9     -0.83      0.00
   -9    1    9     -3.65      0.00
   -8    1    9     -3.35      0.00
   -7    1    9      4.56      0.00
   -6    1    9     -0.81      0.00
   -5    1    9      1.61      0.00
   -4    1    9      3.18      0.00
   -3    1    9     -9.05      0.00
   -2    1    9     -1.37      0.00
   -1    1    9      2.33      0.00
    0    1    9      3.82      0.00
    1    1    9     13.24      0.00
    2    1    9     -9.07      0.00
    3    1    9     -6.92      0.00
    4    1    9      2.94      0.00
    5    1    9      0.96      0.00
    6    1    9      1.74      0.00
    7    1    9     -2.29      0.00
    8    1    9      0.87      0.00
    9    1    9      2.09      0.00
   10    1    9     -1.38      0.00
   11    1    9     -0.88      0.00
   12    1    9      0.05      0.00
   13    1    9     -1.38      0.00
   14    1    9     -0.12      0.00
   15    1    9      2.74      0.00
   16    1    9      0.42      0.00
   17    1    9      0.03      0.00
  -18    2    9     -0.34      0.00
  -17    2    9     -1.94      0.00
  -16    2    9     -1.85      0.00
  -15    2    9     -1.34      0.00
  -14    2    9     -1.02      0.00
  -13    2    9      3.65      0.00
  -12    2    9     -0.14      0.00
  -11    2    9      0.76      0.00
  -10    2    9      1.27      0.00
   -9    2    9     -4.99      0.00
   -8    2    9      0.96      0.00
   -7    2    9      2.09      0.00
   -6    2    9     -0.52      0.00
   -5    2    9      0.91      0.00
   -4    2    9     14.06      0.00
   -3    2    9     -6.27      0.00
   -2    2    9    -13.24      0.00
   -1    2    9      1.43      0.00
    0    2    9      5.23      0.00
    1    2    9     -9.70      0.00
    2    2    9     -2.34      0.00
    3    2    9     13.65      0.00
    4    2    9     -5.10      0.00
    5    2    9      3.86      0.00
    6    2    9      7.23      0.00
    7    2    9     -3.23      0.00
    8    2    9     -3.96      0.00
    9    2    9     -1.59      0.00
   10    2    9      2.50      0.00
   11    2    9     -0.16      0.00
   12    2    9     -0.95      0.00
   13    2    9      0.15      0.00
   14    2    9      0.58      0.00
   15    2    9      0.03      0.00
   16    2    9     -0.82      0.00
   17    2    9      0.32      0.00
  -18    3    9     -1.77      0.00
  -17    3    9     -1.62      0.00
  -16    3    9      1.34      0.00
  -15    3    9      0.82      0.00
  -14    3    9      0.21      0.00
  -13    3    9     -0.75      0.00
  -12    3    9      2.11      0.00
  -11    3    9      3.83      0.00
  -10    3    9     -2.79      0.00
   -9    3    9     -0.88      0.00
   -8    3    9     -1.71      0.00
   -7    3    9      5.10      0.00
   -6    3    9     -9.70      0.00
   -5    3    9      0.25      0.00
   -4    3    9     15.77      0.00
   -3    3    9    -19.17      0.00
   -2    3    9     -9.30      0.00
   -1    3    9     13.81      0.00
    0    3    9      4.40      0.00
    1    3    9     -5.21      0.00
    2    3    9      6.46      0.00
    3    3    9     -1.64      0.00
    4    3    9     -0.29      0.00
    5    3    9      6.09      0.00
    6    3    9     -3.20      0.00
    7    3    9      0.34      0.00
    8    3    9     -2.79      0.00
    9    3    9      1.35      0.00
   10    3    9     -0.82      0.00
   11    3    9     -2.56      0.00
   12    3    9      1.60      0.00
   13    3    9      0.46      0.00
   14    3    9      0.54      0.00
   15    3    9      0.24      0.00
   16    3    9      1.03      0.00
   17    3    9      0.85      0.00
  -17    4    9      0.40      0.00
  -16    4    9      1.78      0.00
  -15    4    9     -1.32      0.00
  -14    4    9     -0.48      0.00
  -13    4    9      1.31      0.00
  -12    4    9      0.03      0.00
  -11    4    9      0.00      0.00
  -10    4    9      3.56      0.00
   -9    4    9     -1.36      0.00
   -8    4    9     -1.77      0.00
   -7    4    9     -2.46      0.00
   -6    4    9     -7.89      0.00
   -5    4    9      5.91      0.00
   -4    4    9      8.21      0.00
   -3    4    9      0.33      0.00
   -2    4    9     -6.89      0.00
   -1    4    9      6.42      0.00
    0    4    9     -2.08      0.00
    1    4    9     -3.35      0.00
    2    4    9      8.91      0.00
    3    4    9     -1.30      0.00
    4    4    9     -1.44      0.00
    5    4    9     -6.30      0.00
    6    4    9      3.01      0.00
    7    4    9      3.95      0.00
    8    4    9     -6.41      0.00
    9    4    9     -2.98      0.00
   10    4    9      3.00      0.00
   11    4    9      1.07      0.00
   12    4    9     -1.24      0.00
   13    4    9      0.41      0.00
   14    4    9      0.74      0.00
   15    4    9     -0.69      0.00
   16    4    9      1.55      0.00
  -17    5    9     -0.98      0.00
  -16    5    9     -1.05      0.00
  -15    5    9      0.30      0.00
  -14    5    9     -0.12      0.00
  -13    5    9     -2.70      0.00
  -12    5    9      0.31      0.00
  -11    5    9      6.67      0.00
  -10    5    9      1.54      0.00
   -9    5    9     -1.92      0.00
   -8    5    9     -3.06      0.00
   -7    5    9     -7.28      0.00
   -6    5    9      0.71      0.00
   -5    5    9      4.49      0.00
   -4    5    9     11.64      0.00
   -3    5    9     -7.29      0.00
   -2    5    9     -8.80      0.00
   -1    5    9     13.92      0.00
    0    5    9      1.29      0.00
    1    5    9     -0.98      0.00
    2    5    9     -9.58      0.00
    3    5    9     -2.81      0.00
    4    5    9      4.50      0.00
    5    5    9     -2.06      0.00
    6    5    9      1.95      0.00
    7    5    9      0.85      0.00
    8    5    9     -1.89      0.00
    9    5    9      2.68      0.00
   10    5    9     -0.64      0.00
   11    5    9     -2.17      0.00
   12    5    9      0.28      0.00
   13    5    9      1.55      0.00
   14    5    9      0.09      0.00
   15    5    9      0.14      0.00
   16    5    9      0.18      0.00
  -17    6    9     -3.01      0.00
  -16    6    9      0.43      0.00
  -15    6    9      0.01      0.00
  -14    6    9      0.19      0.00
  -13    6    9      0.17      0.00
  -12    6    9      0.70      0.00
  -11    6    9      2.12      0.00
  -10    6    9     -1.91      0.00
   -9    6    9      0.95      0.00
   -8    6    9     -5.33      0.00
   -7    6    9     -2.54      0.00
   -6    6    9      9.56      0.00
   -5    6    9     -4.52      0.00
   -4    6    9     -1.68      0.00
   -3    6    9      5.64      0.00
   -2    6    9      3.33      0.00
   -1    6    9     -2.13      0.00
    0    6    9     -2.16      0.00
    1    6    9     -4.09      0.00
    2    6    9     -1.42      0.00
    3    6    9      6.96      0.00
    4    6    9     -4.13      0.00
    5    6    9     -5.28      0.00
    6    6    9      3.79      0.00
    7    6    9      4.05      0.00
    8    6    9      1.08      0.00
    9    6    9     -4.14      0.00
   10    6    9      0.25      0.00
   11    6    9      1.50      0.00
   12    6    9     -0.22      0.00
   13    6    9      0.20      0.00
   14    6    9     -0.18      0.00
   15    6    9     -1.19      0.00
   16    6    9      0.93      0.00
  -17    7    9      0.09      0.00
  -16    7    9      0.68      0.00
  -15    7    9      1.33      0.00
  -14    7    9      1.47      0.00
  -13    7    9     -2.24      0.00
  -12    7    9     -0.85      0.00
  -11    7    9      0.37      0.00
  -10    7    9      0.58      0.00
   -9    7    9      3.58      0.00
   -8    7    9     -7.36      0.00
   -7    7    9     -0.09      0.00
   -6    7    9      2.37      0.00
   -5    7    9     -7.79      0.00
   -4    7    9      7.28      0.00
   -3    7    9      3.74      0.00
   -2    7    9     -7.63      0.00
   -1    7    9      3.45      0.00
    0    7    9      3.28      0.00
    1    7    9     -8.66      0.00
    2    7    9     -4.65      0.00
    3    7    9      0.81      0.00
    4    7    9      1.22      0.00
    5    7    9      6.07      0.00
    6    7    9     -0.36      0.00
    7    7    9      0.36      0.00
    8    7    9      0.61      0.00
    9    7    9     -1.06      0.00
   10    7    9     -0.36      0.00
   11    7    9     -0.87      0.00
   12    7    9      1.28      0.00
   13    7    9     -0.53      0.00
   14    7    9     -1.45      0.00
   15    7    9      0.06      0.00
   16    7    9      1.05      0.00
  -16    8    9      0.68      0.00
  -15    8    9      0.68      0.00
  -14    8    9     -0.80      0.00
  -13    8    9     -0.51      0.00
  -12    8    9     -1.36      0.00
  -11    8    9     -1.21      0.00
  -10    8    9      2.16      0.00
   -9    8    9      0.95      0.00
   -8    8    9     -3.61      0.00
   -7    8    9      5.01      0.00
   -6    8    9      2.87      0.00
   -5    8    9     -3.12      0.00
   -4    8    9     -3.17      0.00
   -3    8    9     -1.58      0.00
   -2    8    9      3.79      0.00
   -1    8    9     -0.38      0.00
    0    8    9     -4.86      0.00
    1    8    9     -0.27      0.00
    2    8    9      4.04      0.00
    3    8    9      2.77      0.00
    4    8    9     -0.14      0.00
    5    8    9     -2.07      0.00
    6    8    9     -2.97      0.00
    7    8    9      2.38      0.00
    8    8    9      1.98      0.00
    9    8    9     -2.01      0.00
   10    8    9     -0.75      0.00
   11    8    9      1.58      0.00
   12    8    9     -0.67      0.00
   13    8    9     -0.89      0.00
   14    8    9      0.19      0.00
   15    8    9      0.80      0.00
  -16    9    9      0.79      0.00
  -15    9    9     -1.32      0.00
  -14    9    9     -1.48      0.00
  -13    9    9     -0.21      0.00
  -12    9    9     -0.66      0.00
  -11    9    9      0.33      0.00
  -10    9    9      3.97      0.00
   -9    9    9      1.11      0.00
   -8    9    9     -0.38      0.00
   -7    9    9     -0.42      0.00
   -6    9    9     -2.27      0.00
   -5    9    9     -2.47      0.00
   -4    9    9     -2.97      0.00
   -3    9    9      3.56      0.00
   -2    9    9      4.30      0.00
   -1    9    9     -1.92      0.00
    0    9    9      5.13      0.00
    1    9    9     -0.63      0.00
    2    9    9     -3.13      0.00
    3    9    9     -0.58      0.00
    4    9    9     -1.19      0.00
    5    9    9      3.96      0.00
    6    9    9     -1.23      0.00
    7    9    9     -0.73      0.00
    8    9    9      1.18      0.00
    9    9    9     -0.14      0.00
   10    9    9      0.12      0.00
   11    9    9      0.13      0.00
   12    9    9      0.58      0.00
   13    9    9      0.45      0.00
   14    9    9     -0.53      0.00
   15    9    9      0.10      0.00
  -16   10    9      0.57      0.00
  -15   10    9     -1.37      0.00
  -14   10    9      0.87      0.00
  -13   10    9      0.93      0.00
  -12   10    9     -1.00      0.00
  -11   10    9      0.29      0.00
  -10   10    9     -0.07      0.00
   -9   10    9     -2.32      0.00
   -8   10    9      0.10      0.00
   -7   10    9     -0.59      0.00
   -6   10    9      1.78      0.00
   -5   10    9      0.45      0.00
   -4   10    9     -3.65      0.00
   -3   10    9      4.04      0.00
   -2   10    9      1.58      0.00
   -1   10    9     -1.93      0.00
    0   10    9      0.64      0.00
    1   10    9     -0.67      0.00
    2   10    9      0.96      0.00
    3   10    9     -1.32      0.00
    4   10    9     -0.14      0.00
    5   10    9     -0.47      0.00
    6   10    9     -2.14      0.00
    7   10    9     -0.14      0.00
    8   10    9      2.88      0.00
    9   10    9     -0.03      0.00
   10   10    9      0.16      0.00
   11   10    9      0.42      0.00
   12   10    9      0.58      0.00
   13   10    9     -1.11      0.00
   14   10    9     -1.83      0.00
   15   10    9      0.82      0.00
  -15   11    9     -0.21      0.00
  -14   11    9     -0.26      0.00
  -13   11    9     -1.40      0.00
  -12   11    9     -0.52      0.00
  -11   11    9      1.05      0.00
  -10   11    9     -1.06      0.00
   -9   11    9      0.43      0.00
   -8   11    9     -0.19      0.00
   -7   11    9     -0.69      0.00
   -6   11    9      0.59      0.00
   -5   11    9      0.82      0.00
   -4   11    9     -0.75      0.00
   -3   11    9      1.86      0.00
   -2   11    9      0.67      0.00
   -1   11    9     -2.31      0.00
    0   11    9      1.07      0.00
    1   11    9      0.54      0.00
    2   11    9     -0.72      0.00
    3   11    9      0.57      0.00
    4   11    9     -2.36      0.00
    5   11    9      1.96      0.00
    6   11    9      0.48      0.00
    7   11    9      0.07      0.00
    8   11    9      0.93      0.00
    9   11    9     -0.50      0.00
   10   11    9      0.00      0.00
   11   11    9     -1.07      0.00
   12   11    9     -0.17      0.00
   13   11    9     -3.05      0.00
   14   11    9     -0.05      0.00
  -14   12    9      0.63      0.00
  -13   12    9     -1.12      0.00
  -12   12    9      0.40      0.00
  -11   12    9      0.21      0.00
  -10   12    9     -0.64      0.00
   -9   12    9     -0.22      0.00
   -8   12    9     -0.36      0.00
   -7   12    9      2.71      0.00
   -6   12    9      0.85      0.00
   -5   12    9      0.62      0.00
   -4   12    9      0.17      0.00
   -3   12    9     -0.23      0.00
   -2   12    9     -4.08      0.00
   -1   12    9     -2.24      0.00
    0   12    9      1.25      0.00
    1   12    9      1.06      0.00
    2   12    9      0.40      0.00
    3   12    9      0.36      0.00
    4   12    9     -1.32      0.00
    5   12    9      0.51      0.00
    6   12    9     -1.40      0.00
    7   12    9      0.11      0.00
    8   12    9     -1.70      0.00
    9   12    9      0.41      0.00
   10   12    9     -1.41      0.00
   11   12    9     -1.21      0.00
   12   12    9      0.41      0.00
   13   12    9      0.05      0.00
  -14   13    9      0.08      0.00
  -13   13    9     -0.91      0.00
  -12   13    9      0.84      0.00
  -11   13    9      0.47      0.00
  -10   13    9      1.84      0.00
   -9   13    9     -1.94      0.00
   -8   13    9      0.31      0.00
   -7   13    9      1.16      0.00
   -6   13    9     -3.67      0.00
   -5   13    9      1.10      0.00
   -4   13    9     -0.25      0.00
   -3   13    9     -4.58      0.00
   -2   13    9     -0.88      0.00
   -1   13    9      0.86      0.00
    0   13    9      1.43      0.00
    1   13    9      0.03      0.00
    2   13    9      2.45      0.00
    3   13    9      0.23      0.00
    4   13    9     -0.81      0.00
    5   13    9     -1.73      0.00
    6   13    9      2.00      0.00
    7   13    9     -1.16      0.00
    8   13    9     -0.80      0.00
    9   13    9      1.13      0.00
   10   13    9     -0.38      0.00
   11   13    9      1.28      0.00
   12   13    9      0.93      0.00
   13   13    9      1.16      0.00
  -13   14    9      0.03      0.00
  -12   14    9     -1.81      0.00
  -11   14    9      0.22      0.00
  -10   14    9     -0.52      0.00
   -9   14    9     -1.22      0.00
   -8   14    9      1.08      0.00
   -7   14    9      0.38      0.00
   -6   14    9     -0.94      0.00
   -5   14    9     -0.64      0.00
   -4   14    9      1.04      0.00
   -3   14    9      0.82      0.00
   -2   14    9     -0.21      0.00
   -1   14    9     -0.25      0.00
    0   14    9      0.44      0.00
    1   14    9      1.80      0.00
    2   14    9     -1.47      0.00
    3   14    9     -0.58      0.00
    4   14    9      0.02      0.00
    5   14    9     -1.04      0.00
    6   14    9      1.04      0.00
    7   14    9     -1.59      0.00
    8   14    9     -0.15      0.00
    9   14    9      0.12      0.00
   10   14    9      1.69      0.00
   11   14    9     -0.49      0.00
   12   14    9      0.88      0.00
  -12   15    9     -0.63      0.00
  -11   15    9      1.11      0.00
  -10   15    9      0.91      0.00
   -9   15    9      0.09      0.00
   -8   15    9      0.06      0.00
   -7   15    9      0.70      0.00
   -6   15    9     -1.49      0.00
   -5   15    9      1.23      0.00
   -4   15    9      1.90      0.00
   -3   15    9     -1.89      0.00
   -2   15    9      0.65      0.00
   -1   15    9     -0.11      0.00
    0   15    9      0.35      0.00
    1   15    9     -1.67      0.00
    2   15    9     -1.45      0.00
    3   15    9      2.93      0.00
    4   15    9     -1.15      0.00
    5   15    9     -0.10      0.00
    6   15    9      1.52      0.00
    7   15    9      0.11      0.00
    8   15    9      0.47      0.00
    9   15    9      0.89      0.00
   10   15    9      0.31      0.00
   11   15    9     -0.14      0.00
  -11   16    9     -1.29      0.00
  -10   16    9      0.02      0.00
   -9   16    9      1.22      0.00
   -8   16    9      1.04      0.00
   -7   16    9      1.37      0.00
   -6   16    9     -0.24      0.00
   -5   16    9     -1.02      0.00
   -4   16    9     -0.25      0.00
   -3   16    9      2.43      0.00
   -2   16    9     -0.70      0.00
   -1   16    9     -2.52      0.00
    0   16    9      0.39      0.00
    1   16    9     -0.16      0.00
    2   16    9      0.56      0.00
    3   16    9      0.12      0.00
    4   16    9      0.40      0.00
    5   16    9      1.58      0.00
    6   16    9     -0.37      0.00
    7   16    9      0.93      0.00
    8   16    9      0.35      0.00
    9   16    9     -1.58      0.00
   10   16    9      0.58      0.00
  -10   17    9      1.92      0.00
   -9   17    9     -0.82      0.00
   -8   17    9     -0.14      0.00
   -7   17    9     -2.43      0.00
   -6   17    9     -1.74      0.00
   -5   17    9     -0.13      0.00
   -4   17    9      1.63      0.00
   -3   17    9     -1.63      0.00
   -2   17    9     -2.61      0.00
   -1   17    9      1.82      0.00
    0   17    9      1.67      0.00
    1   17    9     -1.69      0.00
    2   17    9     -0.95      0.00
    3   17    9      1.80      0.00
    4   17    9      0.83      0.00
    5   17    9      0.26      0.00
    6   17    9      1.26      0.00
    7   17    9      0.82      0.00
    8   17    9     -0.38      0.00
    9   17    9     -0.54      0.00
   -9   18    9     -0.31      0.00
   -8   18    9     -0.20      0.00
   -7   18    9      0.11      0.00
   -6   18    9      1.31      0.00
   -5   18    9      1.55      0.00
   -4   18    9     -0.39      0.00
   -3   18    9     -1.29      0.00
   -2   18    9      0.50      0.00
   -1   18    9      1.08      0.00
    0   18    9     -0.81      0.00
    1   18    9      0.69      0.00
    2   18    9     -0.45      0.00
    3   18    9      0.08      0.00
    4   18    9      0.65      0.00
    5   18    9      1.00      0.00
    6   18    9     -1.34      0.00
    7   18    9     -1.15      0.00
    8   18    9      0.70      0.00
   -7   19    9     -0.50      0.00
   -6   19    9     -0.57      0.00
   -5   19    9      0.54      0.00
   -4   19    9     -1.73      0.00
   -3   19    9     -1.07      0.00
   -2   19    9      1.26      0.00
   -1   19    9      0.94      0.00
    0   19    9      1.32      0.00
    1   19    9     -0.63      0.00
    2   19    9     -2.30      0.00
    3   19    9      0.82      0.00
    4   19    9     -1.01      0.00
    5   19    9     -0.10      0.00
    6   19    9     -1.49      0.00
   -4   20    9     -0.78      0.00
   -3   20    9      0.72      0.00
   -2   20    9      1.75      0.00
   -1   20    9      0.84      0.00
    0   20    9     -0.65      0.00
    1   20    9     -1.05      0.00
    2   20    9     -0.27      0.00
    3   20    9     -0.05      0.00
  -18    0   10      0.05      0.00
  -16    0   10     -2.32      0.00
  -14    0   10      2.07      0.00
  -12    0   10      0.78      0.00
  -10    0   10     -8.90      0.00
   -8    0   10      2.13      0.00
   -6    0   10      8.04      0.00
   -4    0   10     -9.43      0.00
   -2    0   10     -2.70      0.00
    0    0   10      4.98      0.00
    2    0   10      8.75      0.00
    4    0   10     -0.64      0.00
    6    0   10     -3.78      0.00
    8    0   10     -2.51      0.00
   10    0   10      0.70      0.00
   12    0   10     -0.01      0.00
   14    0   10      0.82      0.00
   16    0   10      1.98      0.00
  -18    1   10     -0.37      0.00
  -17    1   10     -1.52      0.00
  -16    1   10     -1.13      0.00
  -15    1   10      0.71      0.00
  -14    1   10      0.11      0.00
  -13    1   10      0.63      0.00
  -12    1   10      1.29      0.00
  -11    1   10     -3.38      0.00
  -10    1   10     -2.35      0.00
   -9    1   10      1.68      0.00
   -8    1   10      4.91      0.00
   -7    1   10      3.71      0.00
   -6    1   10     -2.43      0.00
   -5    1   10     -3.18      0.00
   -4    1   10     -5.74      0.00
   -3    1   10     -1.65      0.00
   -2    1   10      3.27      0.00
   -1    1   10     -2.17      0.00
    0    1   10     14.33      0.00
    1    1   10      5.95      0.00
    2    1   10    -15.25      0.00
    3    1   10     -0.49      0.00
    4    1   10      6.67      0.00
    5    1   10     -1.23      0.00
    6    1   10     -1.68      0.00
    7    1   10     -2.66      0.00
    8    1   10      1.06      0.00
    9    1   10     -0.02      0.00
   10    1   10      0.51      0.00
   11    1   10      2.55      0.00
   12    1   10     -0.97      0.00
   13    1   10     -0.50      0.00
   14    1   10      1.73      0.00
   15    1   10     -0.15      0.00
   16    1   10     -0.91      0.00
  -17    2   10     -0.79      0.00
  -16    2   10      2.12      0.00
  -15    2   10      0.56      0.00
  -14    2   10      2.77      0.00
  -13    2   10      0.14      0.00
  -12    2   10     -1.09      0.00
  -11    2   10      2.87      0.00
  -10    2   10     -0.46      0.00
   -9    2   10     -2.65      0.00
   -8    2   10      0.74      0.00
   -7    2   10      1.88      0.00
   -6    2   10     -2.92      0.00
   -5    2   10      2.26      0.00
   -4    2   10     -1.61      0.00
   -3    2   10     -3.95      0.00
   -2    2   10     -2.52      0.00
   -1    2   10      2.90      0.00
    0    2   10     10.29      0.00
    1    2   10     -4.32      0.00
    2    2   10      3.70      0.00
    3    2   10      1.23      0.00
    4    2   10     -6.48      0.00
    5    2   10      3.81      0.00
    6    2   10     -3.35      0.00
    7    2   10     -2.83      0.00
    8    2   10      1.40      0.00
    9    2   10      1.64      0.00
   10    2   10      1.81      0.00
   11    2   10     -0.50      0.00
   12    2   10     -1.73      0.00
   13    2   10      0.30      0.00
   14    2   10      0.46      0.00
   15    2   10     -0.78      0.00
   16    2   10      1.30      0.00
  -17    3   10      2.18      0.00
  -16    3   10      1.52      0.00
  -15    3   10     -0.73      0.00
  -14    3   10     -0.88      0.00
  -13    3   10     -1.11      0.00
  -12    3   10      3.99      0.00
  -11    3   10      0.30      0.00
  -10    3   10     -2.20      0.00
   -9    3   10     -3.74      0.00
   -8    3   10      0.49      0.00
   -7    3   10     -1.78      0.00
   -6    3   10     -3.67      0.00
   -5    3   10     14.60      0.00
   -4    3   10     -4.39      0.00
   -3    3   10     -7.72      0.00
   -2    3   10      8.30      0.00
   -1    3   10      6.80      0.00
    0    3   10     -5.01      0.00
    1    3   10     -1.52      0.00
    2    3   10     -1.18      0.00
    3    3   10     -6.51      0.00
    4    3   10      4.34      0.00
    5    3   10      0.97      0.00
    6    3   10     -2.06      0.00
    7    3   10      1.63      0.00
    8    3   10      1.83      0.00
    9    3   10     -2.35      0.00
   10    3   10     -2.83      0.00
   11    3   10      1.71      0.00
   12    3   10      0.39      0.00
   13    3   10     -0.43      0.00
   14    3   10      1.19      0.00
   15    3   10      0.98      0.00
   16    3   10      0.81      0.00
  -17    4   10     -0.04      0.00
  -16    4   10     -2.17      0.00
  -15    4   10     -0.33      0.00
  -14    4   10      1.05      0.00
  -13    4   10      0.94      0.00
  -12    4   10      0.28      0.00
  -11    4   10      2.95      0.00
  -10    4   10     -0.70      0.00
   -9    4   10     -6.33      0.00
   -8    4   10     -1.45      0.00
   -7    4   10     -1.85      0.00
   -6    4   10      8.79      0.00
   -5    4   10      8.45      0.00
   -4    4   10     -2.88      0.00
   -3    4   10     -9.71      0.00
   -2    4   10      3.71      0.00
   -1    4   10      0.83      0.00
    0    4   10     -8.60      0.00
    1    4   10      5.01      0.00
    2    4   10      1.16      0.00
    3    4   10     -1.33      0.00
    4    4   10      0.42      0.00
    5    4   10      0.21      0.00
    6    4   10      2.73      0.00
    7    4   10     -2.57      0.00
    8    4   10     -3.45      0.00
    9    4   10     -0.12      0.00
   10    4   10      1.11      0.00
   11    4   10     -0.81      0.00
   12    4   10     -0.21      0.00
   13    4   10      1.70      0.00
   14    4   10     -0.47      0.00
   15    4   10      0.76      0.00
   16    4   10      0.11      0.00
  -17    5   10     -2.56      0.00
  -16    5   10      0.01      0.00
  -15    5   10      2.14      0.00
  -14    5   10     -0.35      0.00
  -13    5   10     -1.59      0.00
  -12    5   10      3.51      0.00
  -11    5   10      1.66      0.00
  -10    5   10     -5.66      0.00
   -9    5   10     -1.39      0.00
   -8    5   10     -2.62      0.00
   -7    5   10      2.50      0.00
   -6    5   10      2.97      0.00
   -5    5   10      8.46      0.00
   -4    5   10     -6.06      0.00
   -3    5   10    -11.78      0.00
   -2    5   10     17.61      0.00
   -1    5   10     -2.66      0.00
    0    5   10    -12.22      0.00
    1    5   10      1.51      0.00
    2    5   10      3.31      0.00
    3    5   10      2.64      0.00
    4    5   10     -1.25      0.00
    5    5   10     -1.03      0.00
    6    5   10      1.51      0.00
    7    5   10     -0.99      0.00
    8    5   10      0.03      0.00
    9    5   10      1.36      0.00
   10    5   10     -2.51      0.00
   11    5   10      1.90      0.00
   12    5   10      3.70      0.00
   13    5   10     -1.21      0.00
   14    5   10     -1.01      0.00
   15    5   10      0.61      0.00
   16    5   10     -0.43      0.00
  -17    6   10      0.05      0.00
  -16    6   10      2.46      0.00
  -15    6   10      1.20      0.00
  -14    6   10      0.19      0.00
  -13    6   10     -0.92      0.00
  -12    6   10      1.64      0.00
  -11    6   10     -1.89      0.00
  -10    6   10      0.24      0.00
   -9    6   10      1.53      0.00
   -8    6   10     -3.66      0.00
   -7    6   10      0.17      0.00
   -6    6   10      0.91      0.00
   -5    6   10      2.73      0.00
   -4    6   10     -3.24      0.00
   -3    6   10      1.55      0.00
   -2    6   10      1.09      0.00
   -1    6   10     -7.63      0.00
    0    6   10     -0.89      0.00
    1    6   10      4.67      0.00
    2    6   10      0.89      0.00
    3    6   10     -1.84      0.00
    4    6   10     -2.04      0.00
    5    6   10      2.87      0.00
    6    6   10      5.22      0.00
    7    6   10     -2.49      0.00
    8    6   10     -2.11      0.00
    9    6   10      1.01      0.00
   10    6   10      1.25      0.00
   11    6   10      0.13      0.00
   12    6   10     -0.84      0.00
   13    6   10     -1.01      0.00
   14    6   10     -0.43      0.00
   15    6   10      0.51      0.00
   16    6   10     -0.05      0.00
  -17    7   10      1.31      0.00
  -16    7   10      0.01      0.00
  -15    7   10     -0.29      0.00
  -14    7   10     -1.86      0.00
  -13    7   10     -1.52      0.00
  -12    7   10      1.34      0.00
  -11    7   10     -0.76      0.00
  -10    7   10      2.90      0.00
   -9    7   10     -0.75      0.00
   -8    7   10     -5.66      0.00
   -7    7   10      2.49      0.00
   -6    7   10      1.20      0.00
   -5    7   10      1.68      0.00
   -4    7   10     -0.29      0.00
   -3    7   10     -5.24      0.00
   -2    7   10      4.42      0.00
   -1    7   10      4.99      0.00
    0    7   10     -7.65      0.00
    1    7   10     -5.85      0.00
    2    7   10      4.79      0.00
    3    7   10      3.96      0.00
    4    7   10     -0.93      0.00
    5    7   10      0.06      0.00
    6    7   10     -1.08      0.00
    7    7   10     -0.40      0.00
    8    7   10      0.25      0.00
    9    7   10      1.13      0.00
   10    7   10     -0.97      0.00
   11    7   10      0.19      0.00
   12    7   10     -0.22      0.00
   13    7   10     -0.63      0.00
   14    7   10      0.27      0.00
   15    7   10      0.85      0.00
  -16    8   10     -0.13      0.00
  -15    8   10     -1.04      0.00
  -14    8   10     -0.41      0.00
  -13    8   10     -0.31      0.00
  -12    8   10      0.29      0.00
  -11    8   10      1.00      0.00
  -10    8   10      3.05      0.00
   -9    8   10     -0.51      0.00
   -8    8   10      0.44      0.00
   -7    8   10      1.11      0.00
   -6    8   10     -4.69      0.00
   -5    8   10     -2.52      0.00
   -4    8   10      2.66      0.00
   -3    8   10      3.06      0.00
   -2    8   10      3.48      0.00
   -1    8   10     -3.39      0.00
    0    8   10     -2.03      0.00
    1    8   10      2.90      0.00
    2    8   10      2.03      0.00
    3    8   10     -4.69      0.00
    4    8   10     -1.11      0.00
    5    8   10      1.93      0.00
    6    8   10      1.85      0.00
    7    8   10      1.38      0.00
    8    8   10     -1.81      0.00
    9    8   10     -0.42      0.00
   10    8   10      1.27      0.00
   11    8   10     -1.53      0.00
   12    8   10     -1.00      0.00
   13    8   10      1.20      0.00
   14    8   10      1.25      0.00
   15    8   10      1.16      0.00
  -16    9   10     -0.67      0.00
  -15    9   10     -1.05      0.00
  -14    9   10      0.35      0.00
  -13    9   10     -0.27      0.00
  -12    9   10     -0.03      0.00
  -11    9   10      0.82      0.00
  -10    9   10      0.58      0.00
   -9    9   10     -2.28      0.00
   -8    9   10     -1.61      0.00
   -7    9   10     -1.65      0.00
   -6    9   10     -1.17      0.00
   -5    9   10      3.50      0.00
   -4    9   10      3.85      0.00
   -3    9   10      0.60      0.00
   -2    9   10     -2.38      0.00
   -1    9   10      2.48      0.00
    0    9   10     -1.51      0.00
    1    9   10     -3.89      0.00
    2    9   10      1.30      0.00
    3    9   10     -1.64      0.00
    4    9   10      3.48      0.00
    5    9   10     -0.42      0.00
    6    9   10     -2.33      0.00
    7    9   10      2.47      0.00
    8    9   10     -1.05      0.00
    9    9   10     -0.15      0.00
   10    9   10      0.46      0.00
   11    9   10     -0.07      0.00
   12    9   10      0.21      0.00
   13    9   10     -0.45      0.00
   14    9   10      0.53      0.00
   15    9   10      0.47      0.00
  -15   10   10     -0.46      0.00
  -14   10   10      0.37      0.00
  -13   10   10     -1.27      0.00
  -12   10   10     -1.34      0.00
  -11   10   10      1.20      0.00
  -10   10   10     -1.55      0.00
   -9   10   10      0.95      0.00
   -8   10   10      2.33      0.00
   -7   10   10     -0.19      0.00
   -6   10   10     -1.22      0.00
   -5   10   10     -0.86      0.00
   -4   10   10      1.57      0.00
   -3   10   10     -1.14      0.00
   -2   10   10     -2.01      0.00
   -1   10   10      2.15      0.00
    0   10   10     -0.21      0.00
    1   10   10      2.15      0.00
    2   10   10     -2.15      0.00
    3   10   10     -2.82      0.00
    4   10   10      2.07      0.00
    5   10   10     -0.76      0.00
    6   10   10      2.38      0.00
    7   10   10      2.21      0.00
    8   10   10     -1.45      0.00
    9   10   10     -0.77      0.00
   10   10   10      0.45      0.00
   11   10   10     -0.65      0.00
   12   10   10     -2.01      0.00
   13   10   10     -1.57      0.00
   14   10   10      0.82      0.00
  -15   11   10     -0.63      0.00
  -14   11   10      0.49      0.00
  -13   11   10     -0.27      0.00
  -12   11   10      0.73      0.00
  -11   11   10     -0.54      0.00
  -10   11   10     -1.43      0.00
   -9   11   10      1.18      0.00
   -8   11   10     -0.73      0.00
   -7   11   10     -0.48      0.00
   -6   11   10      0.07      0.00
   -5   11   10      1.13      0.00
   -4   11   10     -0.39      0.00
   -3   11   10      0.01      0.00
   -2   11   10     -0.20      0.00
   -1   11   10      0.07      0.00
    0   11   10      1.99      0.00
    1   11   10     -1.26      0.00
    2   11   10     -1.82      0.00
    3   11   10     -0.27      0.00
    4   11   10      1.52      0.00
    5   11   10      2.04      0.00
    6   11   10     -3.30      0.00
    7   11   10      0.24      0.00
    8   11   10     -0.80      0.00
    9   11   10     -1.42      0.00
   10   11   10     -1.09      0.00
   11   11   10     -0.03      0.00
   12   11   10     -1.01      0.00
   13   11   10      0.26      0.00
   14   11   10      1.75      0.00
  -14   12   10     -0.77      0.00
  -13   12   10     -1.37      0.00
  -12   12   10      2.02      0.00
  -11   12   10     -0.92      0.00
  -10   12   10      0.86      0.00
   -9   12   10      0.51      0.00
   -8   12   10      1.50      0.00
   -7   12   10     -0.18      0.00
   -6   12   10     -1.43      0.00
   -5   12   10     -1.41      0.00
   -4   12   10     -0.23      0.00
   -3   12   10     -0.57      0.00
   -2   12   10     -3.91      0.00
   -1   12   10      1.82      0.00
    0   12   10      3.09      0.00
    1   12   10     -2.36      0.00
    2   12   10      0.13      0.00
    3   12   10     -0.25      0.00
    4   12   10      1.66      0.00
    5   12   10     -2.62      0.00
    6   12   10     -1.29      0.00
    7   12   10      1.94      0.00
    8   12   10      0.65      0.00
    9   12   10      0.55      0.00
   10   12   10      0.02      0.00
   11   12   10      1.96      0.00
   12   12   10      0.73      0.00
   13   12   10      1.26      0.00
  -14   13   10     -2.58      0.00
  -13   13   10      1.99      0.00
  -12   13   10      1.93      0.00
  -11   13   10     -0.57      0.00
  -10   13   10     -1.26      0.00
   -9   13   10     -1.43      0.00
   -8   13   10      1.38      0.00
   -7   13   10     -2.36      0.00
   -6   13   10      1.18      0.00
   -5   13   10      1.20      0.00
   -4   13   10     -1.59      0.00
   -3   13   10     -1.08      0.00
   -2   13   10      1.48      0.00
   -1   13   10      1.83      0.00
    0   13   10      0.05      0.00
    1   13   10     -0.37      0.00
    2   13   10      2.43      0.00
    3   13   10     -2.17      0.00
    4   13   10     -1.13      0.00
    5   13   10      0.32      0.00
    6   13   10      0.64      0.00
    7   13   10     -1.38      0.00
    8   13   10      1.28      0.00
    9   13   10     -0.36      0.00
   10   13   10     -0.84      0.00
   11   13   10      1.04      0.00
   12   13   10     -0.08      0.00
  -13   14   10     -0.15      0.00
  -12   14   10      0.76      0.00
  -11   14   10      0.81      0.00
  -10   14   10      0.16      0.00
   -9   14   10      1.29      0.00
   -8   14   10      0.56      0.00
   -7   14   10      0.01      0.00
   -6   14   10      1.02      0.00
   -5   14   10     -1.33      0.00
   -4   14   10      0.12      0.00
   -3   14   10      0.15      0.00
   -2   14   10     -0.70      0.00
   -1   14   10     -0.19      0.00
    0   14   10      0.10      0.00
    1   14   10      1.58      0.00
    2   14   10     -1.87      0.00
    3   14   10     -0.30      0.00
    4   14   10     -0.02      0.00
    5   14   10      2.28      0.00
    6   14   10     -0.90      0.00
    7   14   10      0.29      0.00
    8   14   10      0.88      0.00
    9   14   10      0.83      0.00
   10   14   10     -0.03      0.00
   11   14   10     -0.91      0.00
   12   14   10      0.77      0.00
  -12   15   10      2.23      0.00
  -11   15   10      0.88      0.00
  -10   15   10     -0.15      0.00
   -9   15   10     -0.80      0.00
   -8   15   10      0.75      0.00
   -7   15   10      0.55      0.00
   -6   15   10     -0.27      0.00
   -5   15   10      1.44      0.00
   -4   15   10     -2.55      0.00
   -3   15   10     -0.23      0.00
   -2   15   10      1.58      0.00
   -1   15   10     -1.49      0.00
    0   15   10      0.22      0.00
    1   15   10     -0.31      0.00
    2   15   10      1.82      0.00
    3   15   10      0.35      0.00
    4   15   10      0.45      0.00
    5   15   10      2.24      0.00
    6   15   10      0.23      0.00
    7   15   10     -1.23      0.00
    8   15   10     -0.33      0.00
    9   15   10     -0.02      0.00
   10   15   10     -3.25      0.00
   11   15   10      0.66      0.00
  -11   16   10     -0.71      0.00
  -10   16   10      1.20      0.00
   -9   16   10      0.46      0.00
   -8   16   10     -0.50      0.00
   -7   16   10     -1.42      0.00
   -6   16   10     -0.34      0.00
   -5   16   10     -1.37      0.00
   -4   16   10     -1.64      0.00
   -3   16   10      1.29      0.00
   -2   16   10     -2.28      0.00
   -1   16   10     -0.04      0.00
    0   16   10      1.11      0.00
    1   16   10      0.83      0.00
    2   16   10     -0.35      0.00
    3   16   10      0.16      0.00
    4   16   10      0.74      0.00
    5   16   10      0.72      0.00
    6   16   10     -1.22      0.00
    7   16   10      0.45      0.00
    8   16   10     -0.76      0.00
    9   16   10     -1.03      0.00
   10   16   10      0.95      0.00
  -10   17   10     -0.49      0.00
   -9   17   10     -1.75      0.00
   -8   17   10     -0.64      0.00
   -7   17   10     -0.48      0.00
   -6   17   10      0.95      0.00
   -5   17   10     -0.53      0.00
   -4   17   10     -0.55      0.00
   -3   17   10     -0.48      0.00
   -2   17   10      1.72      0.00
   -1   17   10      1.85      0.00
    0   17   10     -1.79      0.00
    1   17   10     -1.11      0.00
    2   17   10      2.42      0.00
    3   17   10      0.32      0.00
    4   17   10     -0.79      0.00
    5   17   10      0.20      0.00
    6   17   10      0.06      0.00
    7   17   10     -1.63      0.00
    8   17   10     -1.85      0.00
    9   17   10      0.84      0.00
   -8   18   10      0.37      0.00
   -7   18   10      0.13      0.00
   -6   18   10     -0.19      0.00
   -5   18   10     -0.09      0.00
   -4   18   10      0.27      0.00
   -3   18   10      1.32      0.00
   -2   18   10      1.44      0.00
   -1   18   10     -0.57      0.00
    0   18   10     -0.49      0.00
    1   18   10      1.13      0.00
    2   18   10     -0.26      0.00
    3   18   10     -2.13      0.00
    4   18   10     -1.58      0.00
    5   18   10      0.21      0.00
    6   18   10     -1.93      0.00
    7   18   10      0.70      0.00
   -6   19   10      0.87      0.00
   -5   19   10      0.70      0.00
   -4   19   10      0.74      0.00
   -3   19   10      1.59      0.00
   -2   19   10      0.50      0.00
   -1   19   10     -0.59      0.00
    0   19   10     -1.15      0.00
    1   19   10     -1.93      0.00
    2   19   10      0.94      0.00
    3   19   10     -1.92      0.00
    4   19   10      0.44      0.00
    5   19   10      0.99      0.00
   -4   20   10      0.78      0.00
   -3   20   10      0.95      0.00
   -2   20   10     -1.30      0.00
   -1   20   10     -0.53      0.00
    0   20   10     -1.10      0.00
    1   20   10      0.64      0.00
    2   20   10      0.04      0.00
  -17    0   11     -1.51      0.00
  -15    0   11      3.29      0.00
  -13    0   11     -3.12      0.00
  -11    0   11     -3.86      0.00
   -9    0   11      9.19      0.00
   -7    0   11     -0.74      0.00
   -5    0   11    -14.53      0.00
   -3    0   11      2.66      0.00
   -1    0   11     18.65      0.00
    1    0   11      4.57      0.00
    3    0   11    -13.64      0.00
    5    0   11     -1.65      0.00
    7    0   11     -2.47      0.00
    9    0   11      4.71      0.00
   11    0   11      0.17      0.00
   13    0   11      0.25      0.00
   15    0   11      1.30      0.00
  -17    1   11     -0.07      0.00
  -16    1   11      2.16      0.00
  -15    1   11      0.85      0.00
  -14    1   11     -1.15      0.00
  -13    1   11      1.52      0.00
  -12    1   11      2.06      0.00
  -11    1   11     -3.23      0.00
  -10    1   11      3.17      0.00
   -9    1   11      2.31      0.00
   -8    1   11     -1.79      0.00
   -7    1   11     -2.38      0.00
   -6    1   11     -3.37      0.00
   -5    1   11      0.00      0.00
   -4    1   11      5.39      0.00
   -3    1   11      6.42      0.00
   -2    1   11      0.84      0.00
   -1    1   11      3.70      0.00
    0    1   11      0.96      0.00
    1    1   11    -13.52      0.00
    2    1   11     -8.27      0.00
    3    1   11      9.74      0.00
    4    1   11     -2.02      0.00
    5    1   11     -3.28      0.00
    6    1   11      2.02      0.00
    7    1   11     -0.11      0.00
    8    1   11      2.21      0.00
    9    1   11      0.50      0.00
   10    1   11      1.42      0.00
   11    1   11     -0.48      0.00
   12    1   11     -1.91      0.00
   13    1   11      0.50      0.00
   14    1   11      0.09      0.00
   15    1   11     -0.54      0.00
   16    1   11     -0.35      0.00
  -17    2   11      1.70      0.00
  -16    2   11      0.32      0.00
  -15    2   11     -0.07      0.00
  -14    2   11      0.44      0.00
  -13    2   11     -1.03      0.00
  -12    2   11      1.89      0.00
  -11    2   11     -0.64      0.00
  -10    2   11     -4.90      0.00
   -9    2   11     -2.62      0.00
   -8    2   11      4.63      0.00
   -7    2   11      2.37      0.00
   -6    2   11     -0.89      0.00
   -5    2   11     -0.54      0.00
   -4    2   11      2.91      0.00
   -3    2   11     -1.37      0.00
   -2    2   11     -8.32      0.00
   -1    2   11      8.84      0.00
    0    2   11      1.45      0.00
    1    2   11     -5.33      0.00
    2    2   11      4.05      0.00
    3    2   11     -6.00      0.00
    4    2   11     -4.11      0.00
    5    2   11      5.92      0.00
    6    2   11     -0.09      0.00
    7    2   11      1.27      0.00
    8    2   11      0.02      0.00
    9    2   11      0.86      0.00
   10    2   11     -0.34      0.00
   11    2   11     -2.55      0.00
   12    2   11      0.16      0.00
   13    2   11      1.50      0.00
   14    2   11      0.75      0.00
   15    2   11      2.02      0.00
   16    2   11      0.44      0.00
  -17    3   11      0.42      0.00
  -16    3   11     -1.75      0.00
  -15    3   11      0.78      0.00
  -14    3   11     -1.09      0.00
  -13    3   11      2.04      0.00
  -12    3   11      1.59      0.00
  -11    3   11     -3.58      0.00
  -10    3   11     -3.95      0.00
   -9    3   11      0.74      0.00
   -8    3   11      6.31      0.00
   -7    3   11     -0.64      0.00
   -6    3   11      5.15      0.00
   -5    3   11      1.96      0.00
   -4    3   11     -6.48      0.00
   -3    3   11     -1.87      0.00
   -2    3   11     -2.75      0.00
   -1    3   11     -1.28      0.00
    0    3   11      0.76      0.00
    1    3   11     -1.91      0.00
    2    3   11      0.83      0.00
    3    3   11      2.21      0.00
    4    3   11      4.44      0.00
    5    3   11     -2.26      0.00
    6    3   11     -1.09      0.00
    7    3   11      1.01      0.00
    8    3   11     -3.39      0.00
    9    3   11     -3.20      0.00
   10    3   11      2.03      0.00
   11    3   11      0.96      0.00
   12    3   11     -1.52      0.00
   13    3   11      0.82      0.00
   14    3   11      1.32      0.00
   15    3   11     -0.28      0.00
   16    3   11     -1.64      0.00
  -17    4   11     -0.98      0.00
  -16    4   11      0.57      0.00
  -15    4   11      2.13      0.00
  -14    4   11     -0.58      0.00
  -13    4   11     -0.94      0.00
  -12    4   11      0.34      0.00
  -11    4   11      1.05      0.00
  -10    4   11     -4.75      0.00
   -9    4   11      0.17      0.00
   -8    4   11      2.87      0.00
   -7    4   11      3.84      0.00
   -6    4   11      1.64      0.00
   -5    4   11     -5.95      0.00
   -4    4   11     -4.88      0.00
   -3    4   11     -1.61      0.00
   -2    4   11      0.21      0.00
   -1    4   11      2.10      0.00
    0    4   11      5.49      0.00
    1    4   11      3.16      0.00
    2    4   11      0.37      0.00
    3    4   11     -0.82      0.00
    4    4   11     -2.09      0.00
    5    4   11     -3.07      0.00
    6    4   11      0.15      0.00
    7    4   11      0.42      0.00
    8    4   11     -1.81      0.00
    9    4   11      2.26      0.00
   10    4   11      1.98      0.00
   11    4   11     -0.76      0.00
   12    4   11      1.03      0.00
   13    4   11      0.55      0.00
   14    4   11     -0.26      0.00
   15    4   11      0.42      0.00
   16    4   11     -0.54      0.00
  -17    5   11     -0.15      0.00
  -16    5   11      2.87      0.00
  -15    5   11      0.34      0.00
  -14    5   11     -1.78      0.00
  -13    5   11      1.01      0.00
  -12    5   11      3.52      0.00
  -11    5   11     -2.13      0.00
  -10    5   11     -0.79      0.00
   -9    5   11     -0.89      0.00
   -8    5   11      0.62      0.00
   -7    5   11      1.31      0.00
   -6    5   11      0.91      0.00
   -5    5   11      3.55      0.00
   -4    5   11     -9.46      0.00
   -3    5   11      7.60      0.00
   -2    5   11      2.40      0.00
   -1    5   11    -11.31      0.00
    0    5   11      3.13      0.00
    1    5   11      6.87      0.00
    2    5   11     -3.13      0.00
    3    5   11     -2.37      0.00
    4    5   11      0.26      0.00
    5    5   11     -0.62      0.00
    6    5   11      2.96      0.00
    7    5   11     -0.45      0.00
    8    5   11      0.29      0.00
    9    5   11     -0.30      0.00
   10    5   11      1.13      0.00
   11    5   11      2.61      0.00
   12    5   11     -1.75      0.00
   13    5   11     -2.75      0.00
   14    5   11      1.42      0.00
   15    5   11      0.45      0.00
   16    5   11     -0.44      0.00
  -17    6   11      1.53      0.00
  -16    6   11     -0.01      0.00
  -15    6   11     -0.70      0.00
  -14    6   11     -0.80      0.00
  -13    6   11      0.68      0.00
  -12    6   11     -0.05      0.00
  -11    6   11     -0.82      0.00
  -10    6   11      2.24      0.00
   -9    6   11     -5.10      0.00
   -8    6   11     -1.58      0.00
   -7    6   11      0.04      0.00
   -6    6   11      7.11      0.00
   -5    6   11     -2.27      0.00
   -4    6   11     -5.73      0.00
   -3    6   11      5.30      0.00
   -2    6   11     -3.82      0.00
   -1    6   11     -2.69      0.00
    0    6   11      6.83      0.00
    1    6   11     -2.41      0.00
    2    6   11     -7.64      0.00
    3    6   11      5.41      0.00
    4    6   11      1.11      0.00
    5    6   11      1.58      0.00
    6    6   11     -1.27      0.00
    7    6   11     -3.11      0.00
    8    6   11      3.06      0.00
    9    6   11      0.24      0.00
   10    6   11     -0.49      0.00
   11    6   11     -0.59      0.00
   12    6   11     -0.81      0.00
   13    6   11      0.69      0.00
   14    6   11      0.45      0.00
   15    6   11      0.46      0.00
  -16    7   11     -0.81      0.00
  -15    7   11     -0.56      0.00
  -14    7   11     -0.39      0.00
  -13    7   11      1.26      0.00
  -12    7   11     -0.83      0.00
  -11    7   11      1.07      0.00
  -10    7   11      1.88      0.00
   -9    7   11     -4.32      0.00
   -8    7   11     -1.47      0.00
   -7    7   11      4.48      0.00
   -6    7   11      2.98      0.00
   -5    7   11     -3.11      0.00
   -4    7   11     -1.69      0.00
   -3    7   11      6.19      0.00
   -2    7   11      1.98      0.00
   -1    7   11     -7.77      0.00
    0    7   11     -2.54      0.00
    1    7   11      0.73      0.00
    2    7   11      5.75      0.00
    3    7   11     -0.91      0.00
    4    7   11     -1.67      0.00
    5    7   11      2.09      0.00
    6    7   11     -1.75      0.00
    7    7   11      1.12      0.00
    8    7   11      1.32      0.00
    9    7   11     -2.19      0.00
   10    7   11     -0.87      0.00
   11    7   11      0.71      0.00
   12    7   11     -0.58      0.00
   13    7   11      0.79      0.00
   14    7   11      1.14      0.00
   15    7   11      0.15      0.00
  -16    8   11     -0.77      0.00
  -15    8   11     -0.35      0.00
  -14    8   11     -0.08      0.00
  -13    8   11      0.20      0.00
  -12    8   11     -0.40      0.00
  -11    8   11      0.87      0.00
  -10    8   11      2.46      0.00
   -9    8   11     -2.90      0.00
   -8    8   11     -2.73      0.00
   -7    8   11      0.03      0.00
   -6    8   11      1.31      0.00
   -5    8   11      3.55      0.00
   -4    8   11      1.31      0.00
   -3    8   11     -0.40      0.00
   -2    8   11     -3.45      0.00
   -1    8   11     -0.28      0.00
    0    8   11      1.27      0.00
    1    8   11      0.06      0.00
    2    8   11     -3.13      0.00
    3    8   11      0.16      0.00
    4    8   11      5.52      0.00
    5    8   11      1.15      0.00
    6    8   11     -1.40      0.00
    7    8   11     -1.43      0.00
    8    8   11     -0.44      0.00
    9    8   11      0.52      0.00
   10    8   11     -1.08      0.00
   11    8   11     -0.62      0.00
   12    8   11      1.86      0.00
   13    8   11      2.65      0.00
   14    8   11     -0.30      0.00
   15    8   11     -1.22      0.00
  -16    9   11     -1.22      0.00
  -15    9   11      0.07      0.00
  -14    9   11     -1.24      0.00
  -13    9   11      0.10      0.00
  -12    9   11     -0.97      0.00
  -11    9   11      0.96      0.00
  -10    9   11      1.42      0.00
   -9    9   11     -2.13      0.00
   -8    9   11     -0.81      0.00
   -7    9   11      2.08      0.00
   -6    9   11      1.78      0.00
   -5    9   11     -0.09      0.00
   -4    9   11     -3.40      0.00
   -3    9   11     -1.02      0.00
   -2    9   11      3.84      0.00
   -1    9   11      0.41      0.00
    0    9   11     -4.29      0.00
    1    9   11      2.69      0.00
    2    9   11      0.03      0.00
    3    9   11     -0.02      0.00
    4    9   11      2.06      0.00
    5    9   11     -1.78      0.00
    6    9   11      2.00      0.00
    7    9   11     -0.58      0.00
    8    9   11     -1.21      0.00
    9    9   11      0.86      0.00
   10    9   11     -0.93      0.00
   11    9   11      0.48      0.00
   12    9   11     -0.65      0.00
   13    9   11      0.71      0.00
   14    9   11     -0.83      0.00
  -15   10   11     -0.19      0.00
  -14   10   11     -0.46      0.00
  -13   10   11      0.59      0.00
  -12   10   11      1.00      0.00
  -11   10   11      0.28      0.00
  -10   10   11      0.20      0.00
   -9   10   11      0.39      0.00
   -8   10   11     -1.82      0.00
   -7   10   11     -3.28      0.00
   -6   10   11     -0.18      0.00
   -5   10   11      2.77      0.00
   -4   10   11      0.43      0.00
   -3   10   11     -0.38      0.00
   -2   10   11      3.86      0.00
   -1   10   11     -2.23      0.00
    0   10   11     -0.99      0.00
    1   10   11     -0.84      0.00
    2   10   11     -4.74      0.00
    3   10   11      3.26      0.00
    4   10   11      1.87      0.00
    5   10   11      0.67      0.00
    6   10   11      1.08      0.00
    7   10   11     -4.26      0.00
    8   10   11     -0.60      0.00
    9   10   11      0.34      0.00
   10   10   11     -0.84      0.00
   11   10   11     -1.27      0.00
   12   10   11      0.05      0.00
   13   10   11      0.97      0.00
   14   10   11      0.44      0.00
  -15   11   11      1.11      0.00
  -14   11   11      1.11      0.00
  -13   11   11     -0.45      0.00
  -12   11   11     -0.89      0.00
  -11   11   11     -1.57      0.00
  -10   11   11      0.98      0.00
   -9   11   11      0.83      0.00
   -8   11   11     -0.66      0.00
   -7   11   11     -0.07      0.00
   -6   11   11      3.05      0.00
   -5   11   11     -0.39      0.00
   -4   11   11     -2.43      0.00
   -3   11   11      2.14      0.00
   -2   11   11     -0.96      0.00
   -1   11   11     -2.33      0.00
    0   11   11     -0.40      0.00
    1   11   11     -0.46      0.00
    2   11   11      1.55      0.00
    3   11   11      0.97      0.00
    4   11   11     -0.07      0.00
    5   11   11     -2.81      0.00
    6   11   11     -0.92      0.00
    7   11   11      1.85      0.00
    8   11   11     -0.14      0.00
    9   11   11      0.25      0.00
   10   11   11      0.83      0.00
   11   11   11      0.30      0.00
   12   11   11      0.79      0.00
   13   11   11      1.05      0.00
  -14   12   11     -0.57      0.00
  -13   12   11      1.42      0.00
  -12   12   11      1.05      0.00
  -11   12   11      0.02      0.00
  -10   12   11      1.07      0.00
   -9   12   11      0.43      0.00
   -8   12   11     -0.13      0.00
   -7   12   11     -1.42      0.00
   -6   12   11     -0.43      0.00
   -5   12   11     -0.58      0.00
   -4   12   11      1.57      0.00
   -3   12   11     -2.51      0.00
   -2   12   11     -1.52      0.00
   -1   12   11      3.71      0.00
    0   12   11     -0.71      0.00
    1   12   11     -0.66      0.00
    2   12   11      1.27      0.00
    3   12   11     -0.25      0.00
    4   12   11     -2.19      0.00
    5   12   11     -2.48      0.00
    6   12   11      4.65      0.00
    7   12   11      0.75      0.00
    8   12   11     -1.37      0.00
    9   12   11      0.48      0.00
   10   12   11     -0.43      0.00
   11   12   11      0.16      0.00
   12   12   11      0.74      0.00
   13   12   11     -0.36      0.00
  -13   13   11      2.19      0.00
  -12   13   11     -1.88      0.00
  -11   13   11     -0.80      0.00
  -10   13   11     -0.20      0.00
   -9   13   11      1.57      0.00
   -8   13   11     -0.33      0.00
   -7   13   11     -0.54      0.00
   -6   13   11      0.54      0.00
   -5   13   11     -2.38      0.00
   -4   13   11     -0.28      0.00
   -3   13   11      0.19      0.00
   -2   13   11      1.56      0.00
   -1   13   11      1.90      0.00
    0   13   11     -1.74      0.00
    1   13   11      2.56      0.00
    2   13   11     -1.04      0.00
    3   13   11     -2.01      0.00
    4   13   11      0.48      0.00
    5   13   11      1.81      0.00
    6   13   11      0.11      0.00
    7   13   11     -0.04      0.00
    8   13   11      0.04      0.00
    9   13   11     -1.43      0.00
   10   13   11      0.68      0.00
   11   13   11      0.89      0.00
   12   13   11     -0.05      0.00
  -13   14   11      2.42      0.00
  -12   14   11      1.06      0.00
  -11   14   11      0.74      0.00
  -10   14   11      1.04      0.00
   -9   14   11     -1.28      0.00
   -8   14   11     -0.96      0.00
   -7   14   11      1.50      0.00
   -6   14   11     -2.95      0.00
   -5   14   11     -0.34      0.00
   -4   14   11      2.22      0.00
   -3   14   11     -0.89      0.00
   -2   14   11     -0.13      0.00
   -1   14   11      0.88      0.00
    0   14   11      0.95      0.00
    1   14   11     -0.36      0.00
    2   14   11     -2.45      0.00
    3   14   11      2.34      0.00
    4   14   11      2.65      0.00
    5   14   11     -0.98      0.00
    6   14   11     -0.15      0.00
    7   14   11      0.38      0.00
    8   14   11     -1.02      0.00
    9   14   11     -0.35      0.00
   10   14   11      0.73      0.00
   11   14   11     -0.17      0.00
  -12   15   11     -1.95      0.00
  -11   15   11     -0.75      0.00
  -10   15   11     -1.57      0.00
   -9   15   11      0.15      0.00
   -8   15   11      2.10      0.00
   -7   15   11     -0.54      0.00
   -6   15   11     -1.21      0.00
   -5   15   11     -0.74      0.00
   -4   15   11     -1.21      0.00
   -3   15   11      2.30      0.00
   -2   15   11     -0.23      0.00
   -1   15   11     -0.59      0.00
    0   15   11      0.95      0.00
    1   15   11     -0.23      0.00
    2   15   11      0.67      0.00
    3   15   11      0.81      0.00
    4   15   11      0.85      0.00
    5   15   11     -0.99      0.00
    6   15   11     -1.47      0.00
    7   15   11     -1.59      0.00
    8   15   11      0.65      0.00
    9   15   11     -1.59      0.00
   10   15   11      0.36      0.00
  -11   16   11      1.24      0.00
  -10   16   11      0.42      0.00
   -9   16   11     -0.65      0.00
   -8   16   11     -1.23      0.00
   -7   16   11     -0.47      0.00
   -6   16   11     -0.44      0.00
   -5   16   11     -2.30      0.00
   -4   16   11      2.08      0.00
   -3   16   11      1.39      0.00
   -2   16   11     -1.91      0.00
   -1   16   11      0.88      0.00
    0   16   11      1.41      0.00
    1   16   11     -0.90      0.00
    2   16   11     -0.98      0.00
    3   16   11      0.94      0.00
    4   16   11      0.45      0.00
    5   16   11     -1.59      0.00
    6   16   11     -1.57      0.00
    7   16   11      0.15      0.00
    8   16   11     -1.18      0.00
    9   16   11     -0.38      0.00
   -9   17   11      0.05      0.00
   -8   17   11      1.03      0.00
   -7   17   11      0.91      0.00
   -6   17   11      0.09      0.00
   -5   17   11     -0.23      0.00
   -4   17   11      3.01      0.00
   -3   17   11      0.56      0.00
   -2   17   11     -0.56      0.00
   -1   17   11     -0.37      0.00
    0   17   11      0.06      0.00
    1   17   11      0.76      0.00
    2   17   11      0.05      0.00
    3   17   11     -2.05      0.00
    4   17   11      0.43      0.00
    5   17   11     -1.27      0.00
    6   17   11     -0.90      0.00
    7   17   11     -0.90      0.00
    8   17   11      1.08      0.00
   -8   18   11     -0.95      0.00
   -7   18   11      0.24      0.00
   -6   18   11      0.50      0.00
   -5   18   11      1.67      0.00
   -4   18   11      0.76      0.00
   -3   18   11     -1.64      0.00
   -2   18   11     -0.58      0.00
   -1   18   11      0.07      0.00
    0   18   11      0.71      0.00
    1   18   11     -0.96      0.00
    2   18   11     -2.84      0.00
    3   18   11     -0.44      0.00
    4   18   11      1.87      0.00
    5   18   11     -0.59      0.00
    6   18   11      0.31      0.00
    7   18   11      0.82      0.00
   -6   19   11      1.48      0.00
   -5   19   11      0.82      0.00
   -4   19   11     -0.56      0.00
   -3   19   11     -0.78      0.00
   -2   19   11     -0.05      0.00
   -1   19   11     -0.29      0.00
    0   19   11     -1.62      0.00
    1   19   11      1.15      0.00
    2   19   11     -0.14      0.00
    3   19   11      0.11      0.00
    4   19   11      2.76      0.00
    5   19   11     -0.52      0.00
   -2   20   11      0.75      0.00
   -1   20   11     -0.64      0.00
    0   20   11      0.46      0.00
    1   20   11      1.21      0.00
  -16    0   12      1.65      0.00
  -14    0   12     -2.48      0.00
  -12    0   12      3.20      0.00
  -10    0   12      2.17      0.00
   -8    0   12     -4.58      0.00
   -6    0   12     -1.91      0.00
   -4    0   12     13.15      0.00
   -2    0   12      7.41      0.00
    0    0   12    -14.93      0.00
    2    0   12    -14.45      0.00
    4    0   12      8.09      0.00
    6    0   12     -0.82      0.00
    8    0   12      4.07      0.00
   10    0   12     -0.77      0.00
   12    0   12      0.24      0.00
   14    0   12      0.09      0.00
   16    0   12     -1.76      0.00
  -17    1   12     -0.51      0.00
  -16    1   12      0.40      0.00
  -15    1   12     -0.65      0.00
  -14    1   12      0.96      0.00
  -13    1   12      3.36      0.00
  -12    1   12     -3.42      0.00
  -11    1   12     -3.37      0.00
  -10    1   12      2.57      0.00
   -9    1   12     -0.73      0.00
   -8    1   12     -1.08      0.00
   -7    1   12      3.37      0.00
   -6    1   12      0.59      0.00
   -5    1   12      1.72      0.00
   -4    1   12      0.19      0.00
   -3    1   12     -6.53      0.00
   -2    1   12     -2.59      0.00
   -1    1   12     -4.23      0.00
    0    1   12      0.18      0.00
    1    1   12      1.83      0.00
    2    1   12      5.65      0.00
    3    1   12      0.44      0.00
    4    1   12     -5.06      0.00
    5    1   12      4.35      0.00
    6    1   12      0.72      0.00
    7    1   12      0.30      0.00
    8    1   12     -0.59      0.00
    9    1   12     -0.13      0.00
   10    1   12      0.91      0.00
   11    1   12     -1.05      0.00
   12    1   12     -0.52      0.00
   13    1   12      0.86      0.00
   14    1   12      0.68      0.00
   15    1   12     -0.50      0.00
   16    1   12      0.27      0.00
  -17    2   12      0.60      0.00
  -16    2   12      1.27      0.00
  -15    2   12      1.10      0.00
  -14    2   12     -1.29      0.00
  -13    2   12     -0.46      0.00
  -12    2   12     -1.98      0.00
  -11    2   12     -2.56      0.00
  -10    2   12      0.45      0.00
   -9    2   12      5.57      0.00
   -8    2   12      4.48      0.00
   -7    2   12     -1.72      0.00
   -6    2   12     -5.47      0.00
   -5    2   12      0.29      0.00
   -4    2   12      1.74      0.00
   -3    2   12    -10.40      0.00
   -2    2   12      5.58      0.00
   -1    2   12      9.92      0.00
    0    2   12     -3.39      0.00
    1    2   12      1.33      0.00
    2    2   12     -5.45      0.00
    3    2   12     -9.55      0.00
    4    2   12      9.22      0.00
    5    2   12      4.26      0.00
    6    2   12     -3.65      0.00
    7    2   12     -0.89      0.00
    8    2   12      0.54      0.00
    9    2   12      0.28      0.00
   10    2   12     -1.82      0.00
   11    2   12     -0.69      0.00
   12    2   12      0.57      0.00
   13    2   12      1.28      0.00
   14    2   12      0.86      0.00
   15    2   12     -0.71      0.00
   16    2   12     -1.53      0.00
  -17    3   12      0.01      0.00
  -16    3   12      0.85      0.00
  -15    3   12     -0.28      0.00
  -14    3   12     -2.22      0.00
  -13    3   12      2.23      0.00
  -12    3   12     -1.58      0.00
  -11    3   12     -0.89      0.00
  -10    3   12      2.43      0.00
   -9    3   12      4.81      0.00
   -8    3   12     -0.42      0.00
   -7    3   12     -3.74      0.00
   -6    3   12     -0.80      0.00
   -5    3   12     -2.06      0.00
   -4    3   12     -5.32      0.00
   -3    3   12     -3.10      0.00
   -2    3   12      5.40      0.00
   -1    3   12      7.39      0.00
    0    3   12      0.15      0.00
    1    3   12      0.74      0.00
    2    3   12      1.43      0.00
    3    3   12     -1.16      0.00
    4    3   12     -0.34      0.00
    5    3   12     -4.04      0.00
    6    3   12      1.33      0.00
    7    3   12     -0.01      0.00
    8    3   12     -1.10      0.00
    9    3   12      1.11      0.00
   10    3   12      0.68      0.00
   11    3   12     -1.89      0.00
   12    3   12     -0.52      0.00
   13    3   12      1.94      0.00
   14    3   12      0.35      0.00
   15    3   12     -1.97      0.00
   16    3   12      0.06      0.00
  -17    4   12      0.15      0.00
  -16    4   12      1.07      0.00
  -15    4   12     -0.98      0.00
  -14    4   12     -1.35      0.00
  -13    4   12      1.25      0.00
  -12    4   12      2.79      0.00
  -11    4   12     -1.22      0.00
  -10    4   12     -2.42      0.00
   -9    4   12      1.99      0.00
   -8    4   12      0.76      0.00
   -7    4   12     -1.55      0.00
   -6    4   12     -2.06      0.00
   -5    4   12      0.81      0.00
   -4    4   12      1.97      0.00
   -3    4   12     -2.02      0.00
   -2    4   12      5.71      0.00
   -1    4   12      8.20      0.00
    0    4   12     -8.03      0.00
    1    4   12     -1.22      0.00
    2    4   12     -1.75      0.00
    3    4   12     -3.58      0.00
    4    4   12     -3.23      0.00
    5    4   12      1.82      0.00
    6    4   12      4.12      0.00
    7    4   12     -1.23      0.00
    8    4   12      1.17      0.00
    9    4   12      1.89      0.00
   10    4   12     -1.08      0.00
   11    4   12     -0.57      0.00
   12    4   12      1.90      0.00
   13    4   12      0.06      0.00
   14    4   12      0.57      0.00
   15    4   12     -0.41      0.00
   16    4   12     -0.25      0.00
  -17    5   12     -0.23      0.00
  -16    5   12      0.65      0.00
  -15    5   12     -0.04      0.00
  -14    5   12      0.75      0.00
  -13    5   12      2.85      0.00
  -12    5   12     -0.04      0.00
  -11    5   12     -2.86      0.00
  -10    5   12     -2.26      0.00
   -9    5   12     -1.04      0.00
   -8    5   12      3.10      0.00
   -7    5   12     -0.91      0.00
   -6    5   12      4.81      0.00
   -5    5   12     -1.90      0.00
   -4    5   12     -4.46      0.00
   -3    5   12     -0.31      0.00
   -2    5   12     -1.93      0.00
   -1    5   12     -0.94      0.00
    0    5   12      1.82      0.00
    1    5   12     -0.92      0.00
    2    5   12     -1.54      0.00
    3    5   12      2.54      0.00
    4    5   12     -2.02      0.00
    5    5   12      2.66      0.00
    6    5   12      1.33      0.00
    7    5   12     -2.09      0.00
    8    5   12      0.98      0.00
    9    5   12      0.83      0.00
   10    5   12      0.55      0.00
   11    5   12     -1.29      0.00
   12    5   12     -1.45      0.00
   13    5   12      0.86      0.00
   14    5   12      0.85      0.00
   15    5   12     -0.67      0.00
  -16    6   12     -0.13      0.00
  -15    6   12      0.05      0.00
  -14    6   12     -0.38      0.00
  -13    6   12     -1.13      0.00
  -12    6   12     -1.42      0.00
  -11    6   12      0.82      0.00
  -10    6   12     -4.45      0.00
   -9    6   12     -0.37      0.00
   -8    6   12      2.82      0.00
   -7    6   12      3.54      0.00
   -6    6   12      3.53      0.00
   -5    6   12     -7.26      0.00
   -4    6   12      0.89      0.00
   -3    6   12      2.33      0.00
   -2    6   12     -2.07      0.00
   -1    6   12      2.77      0.00
    0    6   12     -0.89      0.00
    1    6   12     -7.48      0.00
    2    6   12      7.96      0.00
    3    6   12      4.20      0.00
    4    6   12     -5.33      0.00
    5    6   12      1.45      0.00
    6    6   12     -1.88      0.00
    7    6   12      1.67      0.00
    8    6   12      0.57      0.00
    9    6   12     -0.80      0.00
   10    6   12     -0.69      0.00
   11    6   12      0.24      0.00
   12    6   12      0.92      0.00
   13    6   12     -0.10      0.00
   14    6   12      0.04      0.00
   15    6   12      0.64      0.00
  -16    7   12     -0.06      0.00
  -15    7   12     -0.04      0.00
  -14    7   12      0.34      0.00
  -13    7   12     -0.25      0.00
  -12    7   12      0.51      0.00
  -11    7   12      3.03      0.00
  -10    7   12     -2.99      0.00
   -9    7   12     -0.75      0.00
   -8    7   12      2.92      0.00
   -7    7   12      4.10      0.00
   -6    7   12     -1.39      0.00
   -5    7   12     -3.55      0.00
   -4    7   12      3.03      0.00
   -3    7   12      0.32      0.00
   -2    7   12     -7.15      0.00
   -1    7   12      1.87      0.00
    0    7   12      1.47      0.00
    1    7   12      0.84      0.00
    2    7   12      3.89      0.00
    3    7   12     -1.91      0.00
    4    7   12      2.60      0.00
    5    7   12     -0.02      0.00
    6    7   12     -0.71      0.00
    7    7   12      0.77      0.00
    8    7   12     -2.50      0.00
    9    7   12     -0.03      0.00
   10    7   12      1.30      0.00
   11    7   12     -0.17      0.00
   12    7   12      0.09      0.00
   13    7   12      1.11      0.00
   14    7   12      0.16      0.00
   15    7   12     -0.29      0.00
  -16    8   12     -1.61      0.00
  -15    8   12      0.41      0.00
  -14    8   12      0.05      0.00
  -13    8   12     -0.68      0.00
  -12    8   12      0.70      0.00
  -11    8   12      2.67      0.00
  -10    8   12     -1.56      0.00
   -9    8   12     -4.50      0.00
   -8    8   12      1.79      0.00
   -7    8   12      3.16      0.00
   -6    8   12     -0.03      0.00
   -5    8   12     -2.29      0.00
   -4    8   12     -0.80      0.00
   -3    8   12     -0.77      0.00
   -2    8   12      2.58      0.00
   -1    8   12      2.68      0.00
    0    8   12     -3.95      0.00
    1    8   12     -1.04      0.00
    2    8   12      2.70      0.00
    3    8   12      5.60      0.00
    4    8   12     -1.29      0.00
    5    8   12     -3.82      0.00
    6    8   12     -1.59      0.00
    7    8   12     -0.22      0.00
    8    8   12      0.91      0.00
    9    8   12     -0.63      0.00
   10    8   12      0.47      0.00
   11    8   12      0.99      0.00
   12    8   12      1.87      0.00
   13    8   12     -0.48      0.00
   14    8   12     -2.80      0.00
  -15    9   12      0.04      0.00
  -14    9   12     -0.37      0.00
  -13    9   12      0.25      0.00
  -12    9   12      0.35      0.00
  -11    9   12      3.65      0.00
  -10    9   12     -2.59      0.00
   -9    9   12     -4.30      0.00
   -8    9   12      3.19      0.00
   -7    9   12      0.06      0.00
   -6    9   12     -2.55      0.00
   -5    9   12      0.19      0.00
   -4    9   12      3.62      0.00
   -3    9   12      2.42      0.00
   -2    9   12     -1.93      0.00
   -1    9   12     -6.41      0.00
    0    9   12      1.79      0.00
    1    9   12      1.41      0.00
    2    9   12     -1.89      0.00
    3    9   12      0.05      0.00
    4    9   12      0.52      0.00
    5    9   12     -0.24      0.00
    6    9   12     -0.49      0.00
    7    9   12     -0.78      0.00
    8    9   12     -0.22      0.00
    9    9   12     -1.08      0.00
   10    9   12      1.28      0.00
   11    9   12     -0.81      0.00
   12    9   12      0.41      0.00
   13    9   12     -1.10      0.00
   14    9   12     -0.75      0.00
  -15   10   12     -0.37      0.00
  -14   10   12      1.80      0.00
  -13   10   12      0.27      0.00
  -12   10   12     -1.39      0.00
  -11   10   12      0.50      0.00
  -10   10   12     -1.74      0.00
   -9   10   12     -1.80      0.00
   -8   10   12      0.50      0.00
   -7   10   12      0.82      0.00
   -6   10   12      3.63      0.00
   -5   10   12      2.11      0.00
   -4   10   12     -2.95      0.00
   -3   10   12     -0.86      0.00
   -2   10   12     -2.37      0.00
   -1   10   12     -2.11      0.00
    0   10   12      1.86      0.00
    1   10   12     -0.96      0.00
    2   10   12      0.80      0.00
    3   10   12      3.38      0.00
    4   10   12     -1.40      0.00
    5   10   12     -0.16      0.00
    6   10   12     -2.45      0.00
    7   10   12     -0.03      0.00
    8   10   12      1.60      0.00
    9   10   12     -1.35      0.00
   10   10   12      0.46      0.00
   11   10   12      0.07      0.00
   12   10   12      1.36      0.00
   13   10   12     -0.83      0.00
   14   10   12      1.20      0.00
  -14   11   12      0.40      0.00
  -13   11   12     -2.37      0.00
  -12   11   12     -0.66      0.00
  -11   11   12      2.81      0.00
  -10   11   12      1.29      0.00
   -9   11   12      0.90      0.00
   -8   11   12     -0.32      0.00
   -7   11   12      1.45      0.00
   -6   11   12     -0.82      0.00
   -5   11   12     -3.94      0.00
   -4   11   12      1.54      0.00
   -3   11   12      1.56      0.00
   -2   11   12     -4.35      0.00
   -1   11   12      0.53      0.00
    0   11   12      3.56      0.00
    1   11   12      0.94      0.00
    2   11   12     -2.57      0.00
    3   11   12     -1.42      0.00
    4   11   12      0.16      0.00
    5   11   12      0.37      0.00
    6   11   12      1.73      0.00
    7   11   12      1.60      0.00
    8   11   12     -0.68      0.00
    9   11   12      0.02      0.00
   10   11   12     -0.20      0.00
   11   11   12      1.18      0.00
   12   11   12      0.73      0.00
   13   11   12     -0.13      0.00
  -14   12   12     -0.27      0.00
  -13   12   12     -0.07      0.00
  -12   12   12      0.76      0.00
  -11   12   12     -0.08      0.00
  -10   12   12     -0.20      0.00
   -9   12   12     -0.57      0.00
   -8   12   12     -2.30      0.00
   -7   12   12     -0.45      0.00
   -6   12   12     -1.38      0.00
   -5   12   12      1.50      0.00
   -4   12   12      0.57      0.00
   -3   12   12     -2.67      0.00
   -2   12   12      3.01      0.00
   -1   12   12      2.52      0.00
    0   12   12     -0.49      0.00
    1   12   12     -1.02      0.00
    2   12   12     -0.93      0.00
    3   12   12      0.88      0.00
    4   12   12     -0.78      0.00
    5   12   12      3.57      0.00
    6   12   12      1.01      0.00
    7   12   12     -3.27      0.00
    8   12   12      0.79      0.00
    9   12   12     -1.13      0.00
   10   12   12     -0.91      0.00
   11   12   12      2.25      0.00
   12   12   12     -0.05      0.00
  -13   13   12     -0.39      0.00
  -12   13   12      0.93      0.00
  -11   13   12      0.30      0.00
  -10   13   12      0.74      0.00
   -9   13   12     -0.33      0.00
   -8   13   12     -1.86      0.00
   -7   13   12     -0.31      0.00
   -6   13   12     -0.46      0.00
   -5   13   12      0.75      0.00
   -4   13   12      1.89      0.00
   -3   13   12      1.33      0.00
   -2   13   12      1.43      0.00
   -1   13   12     -1.29      0.00
    0   13   12     -0.62      0.00
    1   13   12      0.38      0.00
    2   13   12     -1.20      0.00
    3   13   12      0.34      0.00
    4   13   12      1.53      0.00
    5   13   12      0.59      0.00
    6   13   12     -1.94      0.00
    7   13   12     -0.32      0.00
    8   13   12      0.52      0.00
    9   13   12      0.05      0.00
   10   13   12      2.98      0.00
   11   13   12      0.29      0.00
   12   13   12     -0.53      0.00
  -12   14   12     -0.44      0.00
  -11   14   12     -0.06      0.00
  -10   14   12     -1.33      0.00
   -9   14   12     -0.91      0.00
   -8   14   12      1.90      0.00
   -7   14   12     -0.06      0.00
   -6   14   12     -1.17      0.00
   -5   14   12      3.89      0.00
   -4   14   12     -0.29      0.00
   -3   14   12     -1.81      0.00
   -2   14   12      1.87      0.00
   -1   14   12     -0.51      0.00
    0   14   12     -0.53      0.00
    1   14   12     -1.33      0.00
    2   14   12      1.68      0.00
    3   14   12      2.29      0.00
    4   14   12     -1.55      0.00
    5   14   12     -1.38      0.00
    6   14   12      0.72      0.00
    7   14   12     -2.32      0.00
    8   14   12     -0.35      0.00
    9   14   12      1.65      0.00
   10   14   12     -0.84      0.00
   11   14   12     -1.44      0.00
  -11   15   12      1.21      0.00
  -10   15   12     -0.57      0.00
   -9   15   12      2.60      0.00
   -8   15   12     -0.65      0.00
   -7   15   12     -2.91      0.00
   -6   15   12      0.46      0.00
   -5   15   12      0.22      0.00
   -4   15   12      0.35      0.00
   -3   15   12      1.09      0.00
   -2   15   12     -0.71      0.00
   -1   15   12     -0.27      0.00
    0   15   12      0.33      0.00
    1   15   12      0.30      0.00
    2   15   12      1.26      0.00
    3   15   12     -0.38      0.00
    4   15   12     -2.69      0.00
    5   15   12     -0.52      0.00
    6   15   12     -2.06      0.00
    7   15   12      0.29      0.00
    8   15   12      0.02      0.00
    9   15   12     -0.06      0.00
   10   15   12      0.69      0.00
  -10   16   12     -0.18      0.00
   -9   16   12     -1.22      0.00
   -8   16   12     -0.42      0.00
   -7   16   12      0.76      0.00
   -6   16   12     -0.28      0.00
   -5   16   12      1.09      0.00
   -4   16   12      1.61      0.00
   -3   16   12     -1.98      0.00
   -2   16   12     -0.56      0.00
   -1   16   12      2.02      0.00
    0   16   12     -0.64      0.00
    1   16   12     -2.08      0.00
    2   16   12      1.13      0.00
    3   16   12      0.65      0.00
    4   16   12     -1.69      0.00
    5   16   12     -1.70      0.00
    6   16   12      1.63      0.00
    7   16   12      0.11      0.00
    8   16   12     -1.04      0.00
    9   16   12      1.37      0.00
   -9   17   12      0.87      0.00
   -8   17   12      0.69      0.00
   -7   17   12     -0.21      0.00
   -6   17   12     -0.01      0.00
   -5   17   12      0.99      0.00
   -4   17   12     -0.10      0.00
   -3   17   12     -2.29      0.00
   -2   17   12      0.82      0.00
   -1   17   12      1.98      0.00
    0   17   12     -0.82      0.00
    1   17   12     -0.54      0.00
    2   17   12     -0.08      0.00
    3   17   12      0.02      0.00
    4   17   12     -1.65      0.00
    5   17   12      0.23      0.00
    6   17   12      0.47      0.00
    7   17   12      0.12      0.00
    8   17   12      0.92      0.00
   -7   18   12      1.33      0.00
   -6   18   12      0.10      0.00
   -5   18   12      0.18      0.00
   -4   18   12     -1.90      0.00
   -3   18   12      0.18      0.00
   -2   18   12      2.28      0.00
   -1   18   12     -0.26      0.00
    0   18   12     -2.18      0.00
    1   18   12     -1.00      0.00
    2   18   12      1.13      0.00
    3   18   12      1.64      0.00
    4   18   12     -0.54      0.00
    5   18   12      0.77      0.00
    6   18   12      1.11      0.00
   -5   19   12     -0.96      0.00
   -4   19   12     -0.71      0.00
   -3   19   12      1.30      0.00
   -2   19   12      0.01      0.00
   -1   19   12     -1.48      0.00
    0   19   12      0.67      0.00
    1   19   12      2.38      0.00
    2   19   12     -0.04      0.00
    3   19   12      1.13      0.00
    4   19   12     -0.66      0.00
  -17    0   13     -1.07      0.00
  -15    0   13      0.01      0.00
  -13    0   13      2.68      0.00
  -11    0   13     -3.78      0.00
   -9    0   13      2.34      0.00
   -7    0   13      0.93      0.00
   -5    0   13      2.36      0.00
   -3    0   13     -6.71      0.00
   -1    0   13     -6.15      0.00
    1    0   13     -0.51      0.00
    3    0   13     11.60      0.00
    5    0   13     -3.90      0.00
    7    0   13      2.33      0.00
    9    0   13     -0.43      0.00
   11    0   13      0.49      0.00
   13    0   13     -1.21      0.00
   15    0   13     -1.16      0.00
  -17    1   13      1.17      0.00
  -16    1   13      2.53      0.00
  -15    1   13      0.16      0.00
  -14    1   13      0.58      0.00
  -13    1   13     -2.66      0.00
  -12    1   13     -3.89      0.00
  -11    1   13      2.88      0.00
  -10    1   13      4.51      0.00
   -9    1   13     -1.46      0.00
   -8    1   13     -0.58      0.00
   -7    1   13      1.59      0.00
   -6    1   13     -5.36      0.00
   -5    1   13     -2.65      0.00
   -4    1   13     -0.77      0.00
   -3    1   13      1.09      0.00
   -2    1   13      4.04      0.00
   -1    1   13      5.75      0.00
    0    1   13      6.31      0.00
    1    1   13     -7.35      0.00
    2    1   13     -5.19      0.00
    3    1   13     -3.75      0.00
    4    1   13      2.07      0.00
    5    1   13      2.94      0.00
    6    1   13      0.97      0.00
    7    1   13     -1.79      0.00
    8    1   13     -0.99      0.00
    9    1   13      2.84      0.00
   10    1   13     -1.10      0.00
   11    1   13     -2.01      0.00
   12    1   13      0.09      0.00
   13    1   13      1.32      0.00
   14    1   13     -0.02      0.00
   15    1   13     -0.24      0.00
   16    1   13      0.80      0.00
  -17    2   13      2.60      0.00
  -16    2   13     -0.26      0.00
  -15    2   13     -3.45      0.00
  -14    2   13     -1.25      0.00
  -13    2   13      0.65      0.00
  -12    2   13      0.94      0.00
  -11    2   13      2.50      0.00
  -10    2   13      3.05      0.00
   -9    2   13     -0.76      0.00
   -8    2   13     -1.34      0.00
   -7    2   13     -4.23      0.00
   -6    2   13     -3.31      0.00
   -5    2   13      7.08      0.00
   -4    2   13     -2.44      0.00
   -3    2   13      0.81      0.00
   -2    2   13      9.48      0.00
   -1    2   13     -3.91      0.00
    0    2   13     -3.84      0.00
    1    2   13     -4.00      0.00
    2    2   13     -6.78      0.00
    3    2   13     10.12      0.00
    4    2   13      7.20      0.00
    5    2   13     -4.61      0.00
    6    2   13     -0.32      0.00
    7    2   13      0.11      0.00
    8    2   13      0.15      0.00
    9    2   13     -2.47      0.00
   10    2   13     -2.02      0.00
   11    2   13     -0.51      0.00
   12    2   13      1.40      0.00
   13    2   13      0.71      0.00
   14    2   13     -1.24      0.00
   15    2   13     -1.20      0.00
  -17    3   13      0.20      0.00
  -16    3   13     -1.48      0.00
  -15    3   13     -2.27      0.00
  -14    3   13      1.88      0.00
  -13    3   13      1.52      0.00
  -12    3   13     -1.47      0.00
  -11    3   13      1.15      0.00
  -10    3   13     -0.10      0.00
   -9    3   13     -1.76      0.00
   -8    3   13     -1.66      0.00
   -7    3   13     -1.83      0.00
   -6    3   13      0.90      0.00
   -5    3   13     -1.10      0.00
   -4    3   13     -2.33      0.00
   -3    3   13      7.69      0.00
   -2    3   13      4.51      0.00
   -1    3   13     -2.94      0.00
    0    3   13      0.86      0.00
    1    3   13     -1.08      0.00
    2    3   13     -5.07      0.00
    3    3   13     -0.19      0.00
    4    3   13     -2.68      0.00
    5    3   13      0.51      0.00
    6    3   13      2.91      0.00
    7    3   13     -0.21      0.00
    8    3   13     -0.70      0.00
    9    3   13     -0.11      0.00
   10    3   13     -0.44      0.00
   11    3   13     -0.55      0.00
   12    3   13      2.53      0.00
   13    3   13      1.40      0.00
   14    3   13     -0.36      0.00
   15    3   13     -0.75      0.00
  -17    4   13     -0.94      0.00
  -16    4   13      1.18      0.00
  -15    4   13     -0.18      0.00
  -14    4   13      1.99      0.00
  -13    4   13      2.16      0.00
  -12    4   13     -0.45      0.00
  -11    4   13     -3.45      0.00
  -10    4   13     -0.52      0.00
   -9    4   13      3.10      0.00
   -8    4   13     -0.68      0.00
   -7    4   13     -0.36      0.00
   -6    4   13      2.17      0.00
   -5    4   13      0.18      0.00
   -4    4   13     -2.67      0.00
   -3    4   13     -0.06      0.00
   -2    4   13      5.13      0.00
   -1    4   13     -8.54      0.00
    0    4   13     -3.49      0.00
    1    4   13      4.70      0.00
    2    4   13     -3.63      0.00
    3    4   13     -0.45      0.00
    4    4   13      2.46      0.00
    5    4   13      4.17      0.00
    6    4   13     -0.26      0.00
    7    4   13      0.82      0.00
    8    4   13      0.55      0.00
    9    4   13     -1.59      0.00
   10    4   13     -0.21      0.00
   11    4   13      1.24      0.00
   12    4   13      0.30      0.00
   13    4   13     -0.16      0.00
   14    4   13     -0.76      0.00
   15    4   13     -1.02      0.00
  -16    5   13      2.55      0.00
  -15    5   13     -1.08      0.00
  -14    5   13     -0.71      0.00
  -13    5   13     -0.87      0.00
  -12    5   13     -3.30      0.00
  -11    5   13     -3.07      0.00
  -10    5   13      0.30      0.00
   -9    5   13      4.49      0.00
   -8    5   13     -0.06      0.00
   -7    5   13      1.68      0.00
   -6    5   13      0.28      0.00
   -5    5   13     -6.37      0.00
   -4    5   13     -3.65      0.00
   -3    5   13      4.83      0.00
   -2    5   13      4.33      0.00
   -1    5   13     -4.54      0.00
    0    5   13      3.53      0.00
    1    5   13      2.19      0.00
    2    5   13     -0.73      0.00
    3    5   13     -2.75      0.00
    4    5   13      1.05      0.00
    5    5   13      1.75      0.00
    6    5   13     -1.54      0.00
    7    5   13      1.48      0.00
    8    5   13     -0.29      0.00
    9    5   13      0.18      0.00
   10    5   13     -1.13      0.00
   11    5   13      0.11      0.00
   12    5   13      0.28      0.00
   13    5   13      0.52      0.00
   14    5   13     -0.38      0.00
   15    5   13      0.13      0.00
  -16    6   13      0.18      0.00
  -15    6   13     -1.41      0.00
  -14    6   13     -0.63      0.00
  -13    6   13      0.60      0.00
  -12    6   13      1.76      0.00
  -11    6   13     -1.44      0.00
  -10    6   13      0.51      0.00
   -9    6   13      5.29      0.00
   -8    6   13     -0.54      0.00
   -7    6   13      2.65      0.00
   -6    6   13     -3.16      0.00
   -5    6   13     -4.30      0.00
   -4    6   13      1.65      0.00
   -3    6   13      3.02      0.00
   -2    6   13     -0.76      0.00
   -1    6   13     -2.63      0.00
    0    6   13     -2.50      0.00
    1    6   13      6.27      0.00
    2    6   13      4.99      0.00
    3    6   13     -6.04      0.00
    4    6   13      1.89      0.00
    5    6   13      1.67      0.00
    6    6   13     -1.05      0.00
    7    6   13      0.39      0.00
    8    6   13     -0.11      0.00
    9    6   13     -0.51      0.00
   10    6   13     -0.01      0.00
   11    6   13      1.24      0.00
   12    6   13     -1.32      0.00
   13    6   13     -0.89      0.00
   14    6   13      1.37      0.00
   15    6   13     -0.55      0.00
  -16    7   13     -0.13      0.00
  -15    7   13      0.62      0.00
  -14    7   13      0.24      0.00
  -13    7   13      0.79      0.00
  -12    7   13      2.33      0.00
  -11    7   13     -2.67      0.00
  -10    7   13     -1.25      0.00
   -9    7   13      1.76      0.00
   -8    7   13      0.27      0.00
   -7    7   13     -0.53      0.00
   -6    7   13     -2.27      0.00
   -5    7   13     -1.12      0.00
   -4    7   13      1.51      0.00
   -3    7   13     -2.66      0.00
   -2    7   13      2.52      0.00
   -1    7   13      2.96      0.00
    0    7   13     -2.52      0.00
    1    7   13      3.78      0.00
    2    7   13      0.63      0.00
    3    7   13     -1.01      0.00
    4    7   13     -0.48      0.00
    5    7   13     -3.39      0.00
    6    7   13     -1.23      0.00
    7    7   13     -1.26      0.00
    8    7   13      1.73      0.00
    9    7   13      0.95      0.00
   10    7   13     -0.32      0.00
   11    7   13     -0.59      0.00
   12    7   13      0.77      0.00
   13    7   13      0.91      0.00
   14    7   13     -0.24      0.00
  -15    8   13      0.80      0.00
  -14    8   13     -0.95      0.00
  -13    8   13     -0.02      0.00
  -12    8   13      2.31      0.00
  -11    8   13     -2.32      0.00
  -10    8   13     -3.43      0.00
   -9    8   13      0.89      0.00
   -8    8   13      1.77      0.00
   -7    8   13      0.63      0.00
   -6    8   13     -0.91      0.00
   -5    8   13      0.29      0.00
   -4    8   13      0.67      0.00
   -3    8   13     -0.07      0.00
   -2    8   13      0.69      0.00
   -1    8   13     -4.49      0.00
    0    8   13     -1.25      0.00
    1    8   13      4.25      0.00
    2    8   13      3.49      0.00
    3    8   13     -5.01      0.00
    4    8   13     -4.47      0.00
    5    8   13      1.33      0.00
    6    8   13      0.14      0.00
    7    8   13      1.75      0.00
    8    8   13      0.11      0.00
    9    8   13     -0.45      0.00
   10    8   13      0.99      0.00
   11    8   13      0.18      0.00
   12    8   13     -0.43      0.00
   13    8   13     -1.83      0.00
   14    8   13     -0.24      0.00
  -15    9   13     -1.01      0.00
  -14    9   13     -0.92      0.00
  -13    9   13      0.86      0.00
  -12    9   13      1.89      0.00
  -11    9   13     -1.44      0.00
  -10    9   13     -4.83      0.00
   -9    9   13      2.87      0.00
   -8    9   13      2.21      0.00
   -7    9   13     -2.04      0.00
   -6    9   13      1.98      0.00
   -5    9   13      3.06      0.00
   -4    9   13     -2.51      0.00
   -3    9   13     -5.63      0.00
   -2    9   13     -2.75      0.00
   -1    9   13      5.05      0.00
    0    9   13      2.28      0.00
    1    9   13     -3.09      0.00
    2    9   13     -1.28      0.00
    3    9   13      0.75      0.00
    4    9   13      2.20      0.00
    5    9   13     -0.95      0.00
    6    9   13      0.12      0.00
    7    9   13     -0.28      0.00
    8    9   13     -2.52      0.00
    9    9   13      2.39      0.00
   10    9   13     -0.20      0.00
   11    9   13     -0.80      0.00
   12    9   13      0.21      0.00
   13    9   13     -0.94      0.00
   14    9   13      1.86      0.00
  -15   10   13      0.27      0.00
  -14   10   13      0.69      0.00
  -13   10   13     -2.35      0.00
  -12   10   13      0.93      0.00
  -11   10   13      0.78      0.00
  -10   10   13     -1.57      0.00
   -9   10   13      4.00      0.00
   -8   10   13      0.08      0.00
   -7   10   13      0.41      0.00
   -6   10   13      0.95      0.00
   -5   10   13     -2.97      0.00
   -4   10   13     -3.27      0.00
   -3   10   13      1.60      0.00
   -2   10   13      1.95      0.00
   -1   10   13      1.24      0.00
    0   10   13     -1.05      0.00
    1   10   13      0.36      0.00
    2   10   13      1.42      0.00
    3   10   13      0.49      0.00
    4   10   13     -0.73      0.00
    5   10   13      0.44      0.00
    6   10   13      0.74      0.00
    7   10   13      0.53      0.00
    8   10   13     -0.99      0.00
    9   10   13      1.40      0.00
   10   10   13      0.43      0.00
   11   10   13      1.09      0.00
   12   10   13     -1.05      0.00
   13   10   13      0.67      0.00
  -14   11   13     -1.68      0.00
  -13   11   13     -1.31      0.00
  -12   11   13      4.69      0.00
  -11   11   13      0.72      0.00
  -10   11   13     -1.42      0.00
   -9   11   13     -0.66      0.00
   -8   11   13     -1.52      0.00
   -7   11   13     -0.84      0.00
   -6   11   13     -0.89      0.00
   -5   11   13      2.61      0.00
   -4   11   13      2.94      0.00
   -3   11   13     -2.54      0.00
   -2   11   13     -1.00      0.00
   -1   11   13      2.91      0.00
    0   11   13      1.81      0.00
    1   11   13     -5.44      0.00
    2   11   13     -0.34      0.00
    3   11   13      3.94      0.00
    4   11   13      0.68      0.00
    5   11   13     -0.91      0.00
    6   11   13      0.99      0.00
    7   11   13     -0.83      0.00
    8   11   13     -2.03      0.00
    9   11   13      0.17      0.00
   10   11   13      0.26      0.00
   11   11   13      1.04      0.00
   12   11   13     -0.56      0.00
   13   11   13      0.45      0.00
  -13   12   13      0.94      0.00
  -12   12   13      0.89      0.00
  -11   12   13     -2.28      0.00
  -10   12   13     -0.09      0.00
   -9   12   13     -1.08      0.00
   -8   12   13      0.90      0.00
   -7   12   13     -0.02      0.00
   -6   12   13      1.51      0.00
   -5   12   13      2.22      0.00
   -4   12   13     -2.26      0.00
   -3   12   13      1.01      0.00
   -2   12   13      2.39      0.00
   -1   12   13     -0.77      0.00
    0   12   13     -2.39      0.00
    1   12   13     -1.47      0.00
    2   12   13      4.56      0.00
    3   12   13     -0.12      0.00
    4   12   13     -1.78      0.00
    5   12   13      0.26      0.00
    6   12   13     -2.07      0.00
    7   12   13      0.77      0.00
    8   12   13      0.48      0.00
    9   12   13     -0.76      0.00
   10   12   13      3.11      0.00
   11   12   13      0.84      0.00
   12   12   13     -1.57      0.00
  -13   13   13      2.89      0.00
  -12   13   13      0.46      0.00
  -11   13   13     -0.38      0.00
  -10   13   13      0.92      0.00
   -9   13   13     -1.20      0.00
   -8   13   13      0.55      0.00
   -7   13   13      0.42      0.00
   -6   13   13      1.64      0.00
   -5   13   13      1.45      0.00
   -4   13   13      1.17      0.00
   -3   13   13     -0.64      0.00
   -2   13   13     -2.37      0.00
   -1   13   13     -0.52      0.00
    0   13   13      0.13      0.00
    1   13   13      0.24      0.00
    2   13   13     -0.07      0.00
    3   13   13     -0.64      0.00
    4   13   13      1.07      0.00
    5   13   13     -1.94      0.00
    6   13   13     -0.12      0.00
    7   13   13      1.97      0.00
    8   13   13     -1.51      0.00
    9   13   13      1.09      0.00
   10   13   13      0.19      0.00
   11   13   13     -2.52      0.00
  -12   14   13     -1.76      0.00
  -11   14   13     -0.13      0.00
  -10   14   13     -0.88      0.00
   -9   14   13      0.45      0.00
   -8   14   13      0.52      0.00
   -7   14   13     -0.43      0.00
   -6   14   13      0.58      0.00
   -5   14   13      0.68      0.00
   -4   14   13     -2.43      0.00
   -3   14   13      0.41      0.00
   -2   14   13      1.45      0.00
   -1   14   13     -1.04      0.00
    0   14   13      0.43      0.00
    1   14   13      1.55      0.00
    2   14   13      0.60      0.00
    3   14   13     -0.50      0.00
    4   14   13     -1.83      0.00
    5   14   13     -0.04      0.00
    6   14   13     -1.54      0.00
    7   14   13     -0.80      0.00
    8   14   13      1.19      0.00
    9   14   13      0.37      0.00
   10   14   13     -2.19      0.00
  -11   15   13     -0.65      0.00
  -10   15   13      0.29      0.00
   -9   15   13     -0.93      0.00
   -8   15   13     -1.84      0.00
   -7   15   13      0.36      0.00
   -6   15   13      1.04      0.00
   -5   15   13     -0.86      0.00
   -4   15   13      0.16      0.00
   -3   15   13      1.02      0.00
   -2   15   13     -1.30      0.00
   -1   15   13     -0.29      0.00
    0   15   13      0.81      0.00
    1   15   13      0.11      0.00
    2   15   13     -1.05      0.00
    3   15   13     -2.04      0.00
    4   15   13      0.52      0.00
    5   15   13      0.60      0.00
    6   15   13     -0.76      0.00
    7   15   13      1.73      0.00
    8   15   13     -0.19      0.00
    9   15   13     -0.24      0.00
   10   15   13      0.55      0.00
  -10   16   13     -0.83      0.00
   -9   16   13     -1.32      0.00
   -8   16   13      1.72      0.00
   -7   16   13     -0.01      0.00
   -6   16   13     -0.35      0.00
   -5   16   13      0.05      0.00
   -4   16   13     -0.58      0.00
   -3   16   13      0.35      0.00
   -2   16   13      1.36      0.00
   -1   16   13      0.27      0.00
    0   16   13     -1.56      0.00
    1   16   13      1.47      0.00
    2   16   13      0.85      0.00
    3   16   13     -1.82      0.00
    4   16   13     -0.54      0.00
    5   16   13      0.80      0.00
    6   16   13      0.49      0.00
    7   16   13     -2.01      0.00
    8   16   13      1.08      0.00
   -8   17   13     -0.11      0.00
   -7   17   13     -0.18      0.00
   -6   17   13      0.94      0.00
   -5   17   13     -0.20      0.00
   -4   17   13      0.07      0.00
   -3   17   13      0.87      0.00
   -2   17   13      1.68      0.00
   -1   17   13     -1.35      0.00
    0   17   13     -0.83      0.00
    1   17   13      1.00      0.00
    2   17   13     -0.82      0.00
    3   17   13     -1.63      0.00
    4   17   13      1.11      0.00
    5   17   13      2.71      0.00
    6   17   13     -1.65      0.00
    7   17   13      1.33      0.00
   -7   18   13      0.31      0.00
   -6   18   13     -0.89      0.00
   -5   18   13     -0.02      0.00
   -4   18   13      0.21      0.00
   -3   18   13      1.39      0.00
   -2   18   13     -0.87      0.00
   -1   18   13     -1.82      0.00
    0   18   13      0.71      0.00
    1   18   13      2.45      0.00
    2   18   13      0.06      0.00
    3   18   13     -1.21      0.00
    4   18   13      1.88      0.00
    5   18   13      0.49      0.00
   -4   19   13      0.55      0.00
   -3   19   13     -0.60      0.00
   -2   19   13     -1.28      0.00
   -1   19   13      0.29      0.00
    0   19   13      2.21      0.00
    1   19   13     -0.54      0.00
    2   19   13     -1.38      0.00
    3   19   13     -0.03      0.00
  -16    0   14      1.37      0.00
  -14    0   14      0.48      0.00
  -12    0   14     -1.74      0.00
  -10    0   14      4.15      0.00
   -8    0   14     -4.50      0.00
   -6    0   14      1.05      0.00
   -4    0   14     -2.15      0.00
   -2    0   14      4.30      0.00
    0    0   14     -1.70      0.00
    2    0   14      3.53      0.00
    4    0   14     -4.69      0.00
    6    0   14      2.11      0.00
    8    0   14     -0.87      0.00
   10    0   14     -0.16      0.00
   12    0   14     -1.51      0.00
   14    0   14      0.98      0.00
  -17    1   14      2.01      0.00
  -16    1   14     -1.06      0.00
  -15    1   14     -1.59      0.00
  -14    1   14     -0.37      0.00
  -13    1   14     -0.73      0.00
  -12    1   14      2.31      0.00
  -11    1   14      2.20      0.00
  -10    1   14     -2.09      0.00
   -9    1   14     -4.04      0.00
   -8    1   14      2.13      0.00
   -7    1   14      0.19      0.00
   -6    1   14     -2.74      0.00
   -5    1   14      5.52      0.00
   -4    1   14      4.90      0.00
   -3    1   14     -0.42      0.00
   -2    1   14      1.30      0.00
   -1    1   14     -0.39      0.00
    0    1   14    -11.23      0.00
    1    1   14     -5.04      0.00
    2    1   14      4.42      0.00
    3    1   14      3.16      0.00
    4    1   14      5.35      0.00
    5    1   14      2.93      0.00
    6    1   14     -3.41      0.00
    7    1   14     -3.46      0.00
    8    1   14      2.53      0.00
    9    1   14     -1.46      0.00
   10    1   14     -3.08      0.00
   11    1   14      0.11      0.00
   12    1   14      1.51      0.00
   13    1   14      1.06      0.00
   14    1   14     -1.71      0.00
   15    1   14     -0.66      0.00
  -17    2   14     -0.54      0.00
  -16    2   14     -4.21      0.00
  -15    2   14      0.26      0.00
  -14    2   14      1.85      0.00
  -13    2   14      0.95      0.00
  -12    2   14     -1.43      0.00
  -11    2   14     -0.28      0.00
  -10    2   14     -0.94      0.00
   -9    2   14     -1.09      0.00
   -8    2   14      1.57      0.00
   -7    2   14     -4.62      0.00
   -6    2   14      2.57      0.00
   -5    2   14      5.06      0.00
   -4    2   14     -6.64      0.00
   -3    2   14      2.39      0.00
   -2    2   14     -0.09      0.00
   -1    2   14     -3.03      0.00
    0    2   14      1.89      0.00
    1    2   14     -0.54      0.00
    2    2   14      5.30      0.00
    3    2   14      3.22      0.00
    4    2   14     -5.36      0.00
    5    2   14      0.41      0.00
    6    2   14     -1.43      0.00
    7    2   14     -0.91      0.00
    8    2   14     -1.12      0.00
    9    2   14     -1.87      0.00
   10    2   14      1.02      0.00
   11    2   14      1.53      0.00
   12    2   14      0.54      0.00
   13    2   14     -0.36      0.00
   14    2   14     -0.44      0.00
   15    2   14     -0.72      0.00
  -17    3   14     -0.57      0.00
  -16    3   14     -0.54      0.00
  -15    3   14      2.21      0.00
  -14    3   14      1.70      0.00
  -13    3   14     -1.69      0.00
  -12    3   14     -0.53      0.00
  -11    3   14      1.44      0.00
  -10    3   14     -2.05      0.00
   -9    3   14      1.24      0.00
   -8    3   14      0.15      0.00
   -7    3   14     -2.85      0.00
   -6    3   14      1.58      0.00
   -5    3   14      0.09      0.00
   -4    3   14      4.32      0.00
   -3    3   14      2.69      0.00
   -2    3   14     -5.65      0.00
   -1    3   14      3.02      0.00
    0    3   14     -0.64      0.00
    1    3   14     -8.86      0.00
    2    3   14      0.58      0.00
    3    3   14      0.63      0.00
    4    3   14      1.91      0.00
    5    3   14      4.57      0.00
    6    3   14     -0.19      0.00
    7    3   14     -1.14      0.00
    8    3   14     -0.33      0.00
    9    3   14      0.42      0.00
   10    3   14     -0.72      0.00
   11    3   14      1.12      0.00
   12    3   14      1.84      0.00
   13    3   14      0.93      0.00
   14    3   14     -1.11      0.00
   15    3   14     -1.48      0.00
  -16    4   14      0.79      0.00
  -15    4   14     -0.55      0.00
  -14    4   14      0.70      0.00
  -13    4   14     -1.56      0.00
  -12    4   14     -1.52      0.00
  -11    4   14     -1.11      0.00
  -10    4   14      2.92      0.00
   -9    4   14      1.72      0.00
   -8    4   14     -1.61      0.00
   -7    4   14      0.39      0.00
   -6    4   14     -1.37      0.00
   -5    4   14     -1.28      0.00
   -4    4   14      0.08      0.00
   -3    4   14      1.73      0.00
   -2    4   14     -2.40      0.00
   -1    4   14      0.07      0.00
    0    4   14      4.17      0.00
    1    4   14     -2.84      0.00
    2    4   14      0.05      0.00
    3    4   14      2.35      0.00
    4    4   14      0.70      0.00
    5    4   14      0.22      0.00
    6    4   14      0.92      0.00
    7    4   14      0.04      0.00
    8    4   14     -2.28      0.00
    9    4   14      0.02      0.00
   10    4   14      0.50      0.00
   11    4   14      0.67      0.00
   12    4   14      0.15      0.00
   13    4   14      0.33      0.00
   14    4   14     -1.25      0.00
   15    4   14     -0.43      0.00
  -16    5   14     -1.94      0.00
  -15    5   14     -2.26      0.00
  -14    5   14      0.86      0.00
  -13    5   14     -0.47      0.00
  -12    5   14     -1.00      0.00
  -11    5   14      0.83      0.00
  -10    5   14      4.49      0.00
   -9    5   14     -0.61      0.00
   -8    5   14     -1.42      0.00
   -7    5   14     -0.04      0.00
   -6    5   14     -4.38      0.00
   -5    5   14     -1.50      0.00
   -4    5   14      4.96      0.00
   -3    5   14      5.06      0.00
   -2    5   14     -5.62      0.00
   -1    5   14      0.07      0.00
    0    5   14      4.44      0.00
    1    5   14     -3.40      0.00
    2    5   14     -1.06      0.00
    3    5   14      2.24      0.00
    4    5   14      0.74      0.00
    5    5   14     -0.32      0.00
    6    5   14      2.53      0.00
    7    5   14     -1.84      0.00
    8    5   14     -0.87      0.00
    9    5   14      0.49      0.00
   10    5   14     -0.34      0.00
   11    5   14      0.19      0.00
   12    5   14      0.32      0.00
   13    5   14     -0.67      0.00
   14    5   14     -0.03      0.00
   15    5   14     -0.21      0.00
  -16    6   14     -0.68      0.00
  -15    6   14      0.49      0.00
  -14    6   14      2.39      0.00
  -13    6   14      1.00      0.00
  -12    6   14     -1.60      0.00
  -11    6   14     -0.45      0.00
  -10    6   14      3.38      0.00
   -9    6   14     -2.86      0.00
   -8    6   14     -0.34      0.00
   -7    6   14      0.99      0.00
   -6    6   14     -3.68      0.00
   -5    6   14     -1.06      0.00
   -4    6   14      3.54      0.00
   -3    6   14      0.96      0.00
   -2    6   14     -4.34      0.00
   -1    6   14      1.94      0.00
    0    6   14      6.12      0.00
    1    6   14      0.74      0.00
    2    6   14     -4.71      0.00
    3    6   14     -0.61      0.00
    4    6   14     -0.14      0.00
    5    6   14     -2.11      0.00
    6    6   14     -0.02      0.00
    7    6   14      0.23      0.00
    8    6   14      0.47      0.00
    9    6   14     -0.68      0.00
   10    6   14      0.67      0.00
   11    6   14     -1.45      0.00
   12    6   14     -0.96      0.00
   13    6   14      1.16      0.00
   14    6   14      0.30      0.00
  -16    7   14     -0.03      0.00
  -15    7   14     -0.25      0.00
  -14    7   14      0.13      0.00
  -13    7   14      0.33      0.00
  -12    7   14     -2.35      0.00
  -11    7   14     -2.31      0.00
  -10    7   14      1.61      0.00
   -9    7   14     -1.02      0.00
   -8    7   14      0.70      0.00
   -7    7   14      1.76      0.00
   -6    7   14     -1.22      0.00
   -5    7   14     -1.47      0.00
   -4    7   14      0.17      0.00
   -3    7   14      1.56      0.00
   -2    7   14      1.91      0.00
   -1    7   14     -1.15      0.00
    0    7   14      0.34      0.00
    1    7   14      0.26      0.00
    2    7   14     -2.49      0.00
    3    7   14     -0.69      0.00
    4    7   14     -1.67      0.00
    5    7   14     -0.80      0.00
    6    7   14      1.48      0.00
    7    7   14      2.38      0.00
    8    7   14      0.26      0.00
    9    7   14     -0.72      0.00
   10    7   14     -0.56      0.00
   11    7   14      0.36      0.00
   12    7   14      0.42      0.00
   13    7   14      0.12      0.00
   14    7   14     -2.34      0.00
  -15    8   14     -1.00      0.00
  -14    8   14     -1.25      0.00
  -13    8   14      1.72      0.00
  -12    8   14     -1.24      0.00
  -11    8   14     -2.12      0.00
  -10    8   14      2.28      0.00
   -9    8   14      0.92      0.00
   -8    8   14      0.69      0.00
   -7    8   14      2.70      0.00
   -6    8   14     -2.35      0.00
   -5    8   14     -2.38      0.00
   -4    8   14     -0.58      0.00
   -3    8   14      1.17      0.00
   -2    8   14     -0.61      0.00
   -1    8   14     -0.09      0.00
    0    8   14      2.33      0.00
    1    8   14      0.60      0.00
    2    8   14     -5.54      0.00
    3    8   14     -2.50      0.00
    4    8   14      5.19      0.00
    5    8   14     -0.16      0.00
    6    8   14     -0.54      0.00
    7    8   14      1.07      0.00
    8    8   14     -1.88      0.00
    9    8   14      1.23      0.00
   10    8   14     -0.02      0.00
   11    8   14     -1.00      0.00
   12    8   14     -1.09      0.00
   13    8   14      0.38      0.00
   14    8   14     -0.66      0.00
  -15    9   14     -1.46      0.00
  -14    9   14      0.36      0.00
  -13    9   14      3.04      0.00
  -12    9   14     -0.96      0.00
  -11    9   14     -1.54      0.00
  -10    9   14      2.05      0.00
   -9    9   14      1.48      0.00
   -8    9   14     -0.58      0.00
   -7    9   14      1.13      0.00
   -6    9   14      0.15      0.00
   -5    9   14     -2.87      0.00
   -4    9   14     -2.90      0.00
   -3    9   14      0.93      0.00
   -2    9   14      6.36      0.00
   -1    9   14     -0.56      0.00
    0    9   14     -5.66      0.00
    1    9   14      1.59      0.00
    2    9   14      1.89      0.00
    3    9   14      4.04      0.00
    4    9   14     -0.30      0.00
    5    9   14     -2.67      0.00
    6    9   14      1.48      0.00
    7    9   14     -2.23      0.00
    8    9   14      2.10      0.00
    9    9   14      1.96      0.00
   10    9   14     -1.48      0.00
   11    9   14      0.11      0.00
   12    9   14     -0.33      0.00
   13    9   14      0.86      0.00
  -14   10   14      0.20      0.00
  -13   10   14      0.25      0.00
  -12   10   14      2.53      0.00
  -11   10   14     -1.07      0.00
  -10   10   14      1.48      0.00
   -9   10   14     -0.31      0.00
   -8   10   14     -1.94      0.00
   -7   10   14      2.02      0.00
   -6   10   14      0.07      0.00
   -5   10   14     -0.82      0.00
   -4   10   14      1.84      0.00
   -3   10   14      2.74      0.00
   -2   10   14     -1.09      0.00
   -1   10   14     -4.32      0.00
    0   10   14      3.41      0.00
    1   10   14      2.45      0.00
    2   10   14     -1.44      0.00
    3   10   14     -1.51      0.00
    4   10   14      0.23      0.00
    5   10   14      0.89      0.00
    6   10   14     -0.93      0.00
    7   10   14     -1.57      0.00
    8   10   14      1.47      0.00
    9   10   14     -0.52      0.00
   10   10   14     -0.16      0.00
   11   10   14     -0.13      0.00
   12   10   14      0.00      0.00
   13   10   14      1.95      0.00
  -14   11   14     -0.83      0.00
  -13   11   14      2.59      0.00
  -12   11   14      0.88      0.00
  -11   11   14     -4.23      0.00
  -10   11   14      0.44      0.00
   -9   11   14     -0.34      0.00
   -8   11   14      0.93      0.00
   -7   11   14      1.27      0.00
   -6   11   14      2.48      0.00
   -5   11   14     -0.29      0.00
   -4   11   14     -3.40      0.00
   -3   11   14     -1.36      0.00
   -2   11   14      0.45      0.00
   -1   11   14      2.70      0.00
    0   11   14     -2.17      0.00
    1   11   14     -1.93      0.00
    2   11   14      4.93      0.00
    3   11   14      0.03      0.00
    4   11   14     -3.06      0.00
    5   11   14      0.73      0.00
    6   11   14      0.37      0.00
    7   11   14     -1.39      0.00
    8   11   14      0.71      0.00
    9   11   14      0.57      0.00
   10   11   14      0.98      0.00
   11   11   14      0.54      0.00
   12   11   14      0.29      0.00
  -13   12   14      1.80      0.00
  -12   12   14     -1.08      0.00
  -11   12   14     -0.44      0.00
  -10   12   14      1.82      0.00
   -9   12   14      1.06      0.00
   -8   12   14     -0.98      0.00
   -7   12   14     -0.80      0.00
   -6   12   14      2.37      0.00
   -5   12   14     -2.03      0.00
   -4   12   14      0.86      0.00
   -3   12   14      2.08      0.00
   -2   12   14     -2.22      0.00
   -1   12   14     -0.09      0.00
    0   12   14     -1.94      0.00
    1   12   14      3.93      0.00
    2   12   14      0.49      0.00
    3   12   14     -5.44      0.00
    4   12   14      1.04      0.00
    5   12   14      1.82      0.00
    6   12   14      0.36      0.00
    7   12   14     -0.10      0.00
    8   12   14     -0.86      0.00
    9   12   14      0.82      0.00
   10   12   14      0.22      0.00
   11   12   14     -1.28      0.00
   12   12   14     -1.01      0.00
  -12   13   14     -2.34      0.00
  -11   13   14     -0.23      0.00
  -10   13   14     -1.10      0.00
   -9   13   14     -0.17      0.00
   -8   13   14     -0.37      0.00
   -7   13   14      1.60      0.00
   -6   13   14      1.30      0.00
   -5   13   14     -0.02      0.00
   -4   13   14     -0.32      0.00
   -3   13   14     -3.44      0.00
   -2   13   14      0.84      0.00
   -1   13   14      1.97      0.00
    0   13   14     -0.64      0.00
    1   13   14      0.81      0.00
    2   13   14     -0.82      0.00
    3   13   14      1.60      0.00
    4   13   14     -0.27      0.00
    5   13   14     -0.51      0.00
    6   13   14      1.55      0.00
    7   13   14     -2.82      0.00
    8   13   14     -0.24      0.00
    9   13   14      1.63      0.00
   10   13   14     -1.87      0.00
   11   13   14     -0.97      0.00
  -11   14   14     -0.11      0.00
  -10   14   14     -1.20      0.00
   -9   14   14      1.39      0.00
   -8   14   14      0.41      0.00
   -7   14   14     -0.68      0.00
   -6   14   14     -0.37      0.00
   -5   14   14      0.16      0.00
   -4   14   14     -0.15      0.00
   -3   14   14      1.67      0.00
   -2   14   14      0.15      0.00
   -1   14   14     -1.13      0.00
    0   14   14      1.22      0.00
    1   14   14      0.05      0.00
    2   14   14      0.51      0.00
    3   14   14     -0.80      0.00
    4   14   14     -1.44      0.00
    5   14   14      0.60      0.00
    6   14   14     -0.61      0.00
    7   14   14     -0.20      0.00
    8   14   14      1.57      0.00
    9   14   14     -0.62      0.00
   10   14   14      0.08      0.00
  -10   15   14     -0.01      0.00
   -9   15   14     -0.11      0.00
   -8   15   14      0.96      0.00
   -7   15   14     -0.37      0.00
   -6   15   14     -0.19      0.00
   -5   15   14      0.20      0.00
   -4   15   14      0.49      0.00
   -3   15   14     -0.58      0.00
   -2   15   14     -1.90      0.00
   -1   15   14      1.27      0.00
    0   15   14      0.39      0.00
    1   15   14     -1.27      0.00
    2   15   14     -0.51      0.00
    3   15   14      0.67      0.00
    4   15   14      0.41      0.00
    5   15   14     -2.01      0.00
    6   15   14      0.89      0.00
    7   15   14      0.24      0.00
    8   15   14     -0.22      0.00
    9   15   14      0.60      0.00
   -9   16   14      1.82      0.00
   -8   16   14      0.67      0.00
   -7   16   14     -0.99      0.00
   -6   16   14      0.72      0.00
   -5   16   14     -0.02      0.00
   -4   16   14      1.14      0.00
   -3   16   14      0.42      0.00
   -2   16   14      0.05      0.00
   -1   16   14      0.00      0.00
    0   16   14      1.04      0.00
    1   16   14      0.02      0.00
    2   16   14     -1.23      0.00
    3   16   14      0.52      0.00
    4   16   14     -0.01      0.00
    5   16   14     -0.21      0.00
    6   16   14     -0.08      0.00
    7   16   14      0.75      0.00
    8   16   14      1.26      0.00
   -8   17   14     -0.74      0.00
   -7   17   14      0.94      0.00
   -6   17   14     -0.28      0.00
   -5   17   14     -0.37      0.00
   -4   17   14      0.27      0.00
   -3   17   14     -0.19      0.00
   -2   17   14     -0.35      0.00
   -1   17   14     -0.29      0.00
    0   17   14      0.76      0.00
    1   17   14     -1.74      0.00
    2   17   14     -0.93      0.00
    3   17   14      1.84      0.00
    4   17   14      1.90      0.00
    5   17   14     -1.20      0.00
    6   17   14      0.33      0.00
   -6   18   14     -0.37      0.00
   -5   18   14      0.41      0.00
   -4   18   14     -0.14      0.00
   -3   18   14     -0.37      0.00
   -2   18   14     -0.81      0.00
   -1   18   14      1.01      0.00
    0   18   14      0.93      0.00
    1   18   14     -0.88      0.00
    2   18   14     -1.07      0.00
    3   18   14      1.55      0.00
    4   18   14      1.26      0.00
   -2   19   14      1.07      0.00
   -1   19   14      0.55      0.00
    0   19   14     -0.23      0.00
    1   19   14     -1.80      0.00
  -15    0   15      0.96      0.00
  -13    0   15     -1.11      0.00
  -11    0   15     -0.63      0.00
   -9    0   15     -3.01      0.00
   -7    0   15      6.12      0.00
   -5    0   15     -2.46      0.00
   -3    0   15      2.22      0.00
   -1    0   15     -3.40      0.00
    1    0   15     -0.39      0.00
    3    0   15      1.16      0.00
    5    0   15      0.08      0.00
    7    0   15     -1.78      0.00
    9    0   15      0.32      0.00
   11    0   15     -0.60      0.00
   13    0   15      0.65      0.00
   15    0   15     -0.25      0.00
  -16    1   15     -0.48      0.00
  -15    1   15      0.24      0.00
  -14    1   15     -1.00      0.00
  -13    1   15     -0.23      0.00
  -12    1   15     -0.84      0.00
  -11    1   15     -1.30      0.00
  -10    1   15      0.39      0.00
   -9    1   15      2.58      0.00
   -8    1   15      1.94      0.00
   -7    1   15     -1.84      0.00
   -6    1   15      0.24      0.00
   -5    1   15      3.34      0.00
   -4    1   15     -3.32      0.00
   -3    1   15     -4.05      0.00
   -2    1   15      2.04      0.00
   -1    1   15     -3.05      0.00
    0    1   15     -0.57      0.00
    1    1   15      7.43      0.00
    2    1   15      2.31      0.00
    3    1   15      2.37      0.00
    4    1   15      1.61      0.00
    5    1   15     -5.27      0.00
    6    1   15     -3.61      0.00
    7    1   15      2.13      0.00
    8    1   15     -0.13      0.00
    9    1   15     -2.23      0.00
   10    1   15      0.88      0.00
   11    1   15      1.30      0.00
   12    1   15      0.68      0.00
   13    1   15     -1.91      0.00
   14    1   15     -2.42      0.00
   15    1   15      1.30      0.00
  -16    2   15      0.87      0.00
  -15    2   15      1.65      0.00
  -14    2   15     -0.80      0.00
  -13    2   15     -1.17      0.00
  -12    2   15     -0.80      0.00
  -11    2   15      3.04      0.00
  -10    2   15     -0.34      0.00
   -9    2   15     -0.89      0.00
   -8    2   15     -2.58      0.00
   -7    2   15     -1.82      0.00
   -6    2   15      6.34      0.00
   -5    2   15     -1.48      0.00
   -4    2   15     -3.59      0.00
   -3    2   15      6.28      0.00
   -2    2   15      0.24      0.00
   -1    2   15     -0.82      0.00
    0    2   15      0.12      0.00
    1    2   15     -2.43      0.00
    2    2   15     -1.71      0.00
    3    2   15     -1.93      0.00
    4    2   15      3.11      0.00
    5    2   15     -0.77      0.00
    6    2   15     -1.55      0.00
    7    2   15      0.45      0.00
    8    2   15     -1.42      0.00
    9    2   15      1.90      0.00
   10    2   15      0.84      0.00
   11    2   15     -0.42      0.00
   12    2   15      1.55      0.00
   13    2   15      0.64      0.00
   14    2   15     -0.79      0.00
   15    2   15      0.31      0.00
  -16    3   15      0.92      0.00
  -15    3   15      0.52      0.00
  -14    3   15     -0.46      0.00
  -13    3   15     -0.74      0.00
  -12    3   15      2.49      0.00
  -11    3   15     -0.05      0.00
  -10    3   15     -1.93      0.00
   -9    3   15      2.79      0.00
   -8    3   15     -2.28      0.00
   -7    3   15     -1.09      0.00
   -6    3   15      5.21      0.00
   -5    3   15      0.39      0.00
   -4    3   15      0.33      0.00
   -3    3   15     -4.21      0.00
   -2    3   15     -0.43      0.00
   -1    3   15      1.31      0.00
    0    3   15     -8.26      0.00
    1    3   15      2.39      0.00
    2    3   15      4.55      0.00
    3    3   15      1.58      0.00
    4    3   15      3.53      0.00
    5    3   15     -2.28      0.00
    6    3   15     -1.47      0.00
    7    3   15      0.00      0.00
    8    3   15      0.45      0.00
    9    3   15     -0.98      0.00
   10    3   15      0.58      0.00
   11    3   15      2.53      0.00
   12    3   15      2.20      0.00
   13    3   15     -1.35      0.00
   14    3   15     -3.10      0.00
   15    3   15     -0.05      0.00
  -16    4   15     -0.25      0.00
  -15    4   15      0.61      0.00
  -14    4   15     -0.98      0.00
  -13    4   15     -1.22      0.00
  -12    4   15      0.55      0.00
  -11    4   15     -0.74      0.00
  -10    4   15      0.79      0.00
   -9    4   15     -0.53      0.00
   -8    4   15     -2.66      0.00
   -7    4   15     -1.60      0.00
   -6    4   15      1.37      0.00
   -5    4   15      1.28      0.00
   -4    4   15     -0.19      0.00
   -3    4   15     -1.04      0.00
   -2    4   15      2.15      0.00
   -1    4   15      1.20      0.00
    0    4   15     -2.67      0.00
    1    4   15      2.08      0.00
    2    4   15      0.78      0.00
    3    4   15     -2.20      0.00
    4    4   15      0.65      0.00
    5    4   15      1.69      0.00
    6    4   15      0.15      0.00
    7    4   15     -1.89      0.00
    8    4   15     -0.80      0.00
    9    4   15      0.69      0.00
   10    4   15      0.87      0.00
   11    4   15      0.30      0.00
   12    4   15     -0.04      0.00
   13    4   15     -1.55      0.00
   14    4   15     -0.69      0.00
  -16    5   15     -1.06      0.00
  -15    5   15      1.97      0.00
  -14    5   15      0.09      0.00
  -13    5   15     -0.12      0.00
  -12    5   15     -0.30      0.00
  -11    5   15      1.47      0.00
  -10    5   15      0.14      0.00
   -9    5   15     -1.56      0.00
   -8    5   15      0.48      0.00
   -7    5   15     -1.15      0.00
   -6    5   15      0.36      0.00
   -5    5   15      2.19      0.00
   -4    5   15      0.92      0.00
   -3    5   15     -2.76      0.00
   -2    5   15      1.26      0.00
   -1    5   15      2.87      0.00
    0    5   15     -2.83      0.00
    1    5   15     -0.47      0.00
    2    5   15      1.32      0.00
    3    5   15     -2.44      0.00
    4    5   15     -0.30      0.00
    5    5   15      3.68      0.00
    6    5   15     -1.79      0.00
    7    5   15     -2.19      0.00
    8    5   15      1.86      0.00
    9    5   15     -0.92      0.00
   10    5   15     -0.71      0.00
   11    5   15     -0.12      0.00
   12    5   15     -0.45      0.00
   13    5   15     -0.98      0.00
   14    5   15     -0.02      0.00
  -16    6   15     -0.18      0.00
  -15    6   15      1.22      0.00
  -14    6   15     -0.53      0.00
  -13    6   15     -2.24      0.00
  -12    6   15     -1.02      0.00
  -11    6   15      2.57      0.00
  -10    6   15     -1.85      0.00
   -9    6   15     -0.63      0.00
   -8    6   15      4.21      0.00
   -7    6   15     -2.52      0.00
   -6    6   15     -3.65      0.00
   -5    6   15      1.65      0.00
   -4    6   15      2.54      0.00
   -3    6   15      0.32      0.00
   -2    6   15      1.75      0.00
   -1    6   15      3.21      0.00
    0    6   15     -4.39      0.00
    1    6   15     -3.68      0.00
    2    6   15      0.86      0.00
    3    6   15     -1.18      0.00
    4    6   15      1.08      0.00
    5    6   15      2.13      0.00
    6    6   15     -0.74      0.00
    7    6   15      0.29      0.00
    8    6   15     -0.82      0.00
    9    6   15     -0.33      0.00
   10    6   15     -1.56      0.00
   11    6   15      0.19      0.00
   12    6   15      0.51      0.00
   13    6   15      0.50      0.00
   14    6   15     -0.09      0.00
  -15    7   15      0.42      0.00
  -14    7   15      0.04      0.00
  -13    7   15     -1.17      0.00
  -12    7   15     -0.61      0.00
  -11    7   15      2.19      0.00
  -10    7   15     -0.15      0.00
   -9    7   15      1.58      0.00
   -8    7   15      2.61      0.00
   -7    7   15     -2.33      0.00
   -6    7   15     -3.39      0.00
   -5    7   15      0.68      0.00
   -4    7   15      3.32      0.00
   -3    7   15      1.10      0.00
   -2    7   15     -0.37      0.00
   -1    7   15     -2.09      0.00
    0    7   15     -3.01      0.00
    1    7   15      0.61      0.00
    2    7   15      0.67      0.00
    3    7   15     -0.02      0.00
    4    7   15     -0.82      0.00
    5    7   15      0.82      0.00
    6    7   15      1.39      0.00
    7    7   15     -1.06      0.00
    8    7   15      0.33      0.00
    9    7   15     -0.44      0.00
   10    7   15     -0.17      0.00
   11    7   15      0.28      0.00
   12    7   15     -0.54      0.00
   13    7   15     -0.67      0.00
   14    7   15     -0.10      0.00
  -15    8   15     -0.28      0.00
  -14    8   15      0.54      0.00
  -13    8   15      1.51      0.00
  -12    8   15     -0.66      0.00
  -11    8   15      2.20      0.00
  -10    8   15      0.22      0.00
   -9    8   15     -0.90      0.00
   -8    8   15      3.03      0.00
   -7    8   15     -2.10      0.00
   -6    8   15     -4.60      0.00
   -5    8   15      1.40      0.00
   -4    8   15      3.19      0.00
   -3    8   15     -1.24      0.00
   -2    8   15     -0.57      0.00
   -1    8   15     -0.03      0.00
    0    8   15      0.32      0.00
    1    8   15     -2.94      0.00
    2    8   15      0.53      0.00
    3    8   15      5.40      0.00
    4    8   15     -1.87      0.00
    5    8   15     -2.32      0.00
    6    8   15      2.37      0.00
    7    8   15     -0.38      0.00
    8    8   15      0.84      0.00
    9    8   15      0.26      0.00
   10    8   15     -0.93      0.00
   11    8   15     -1.63      0.00
   12    8   15      1.85      0.00
   13    8   15     -0.53      0.00
  -14    9   15      3.80      0.00
  -13    9   15      0.38      0.00
  -12    9   15     -1.82      0.00
  -11    9   15      1.03      0.00
  -10    9   15     -0.55      0.00
   -9    9   15     -0.23      0.00
   -8    9   15      2.47      0.00
   -7    9   15     -0.93      0.00
   -6    9   15     -1.73      0.00
   -5    9   15      1.14      0.00
   -4    9   15      0.24      0.00
   -3    9   15      2.34      0.00
   -2    9   15      0.06      0.00
   -1    9   15     -3.92      0.00
    0    9   15      4.16      0.00
    1    9   15      2.62      0.00
    2    9   15      0.26      0.00
    3    9   15     -1.16      0.00
    4    9   15     -4.45      0.00
    5    9   15      2.80      0.00
    6    9   15      0.97      0.00
    7    9   15     -1.16      0.00
    8    9   15      2.11      0.00
    9    9   15     -1.81      0.00
   10    9   15     -0.21      0.00
   11    9   15     -0.19      0.00
   12    9   15      1.16      0.00
   13    9   15     -0.34      0.00
  -14   10   15      1.03      0.00
  -13   10   15     -0.42      0.00
  -12   10   15     -0.40      0.00
  -11   10   15     -0.64      0.00
  -10   10   15      0.05      0.00
   -9   10   15     -0.54      0.00
   -8   10   15      2.22      0.00
   -7   10   15      0.52      0.00
   -6   10   15     -1.18      0.00
   -5   10   15     -0.77      0.00
   -4   10   15     -0.67      0.00
   -3   10   15      0.09      0.00
   -2   10   15     -3.38      0.00
   -1   10   15      4.23      0.00
    0   10   15      4.68      0.00
    1   10   15     -5.79      0.00
    2   10   15     -2.41      0.00
    3   10   15      2.81      0.00
    4   10   15      2.24      0.00
    5   10   15     -0.69      0.00
    6   10   15     -1.81      0.00
    7   10   15      1.76      0.00
    8   10   15     -0.49      0.00
    9   10   15     -0.10      0.00
   10   10   15      1.04      0.00
   11   10   15      0.11      0.00
   12   10   15      1.07      0.00
  -13   11   15      0.67      0.00
  -12   11   15     -2.77      0.00
  -11   11   15      0.39      0.00
  -10   11   15      1.48      0.00
   -9   11   15     -0.08      0.00
   -8   11   15      0.03      0.00
   -7   11   15      0.22      0.00
   -6   11   15     -1.27      0.00
   -5   11   15     -2.33      0.00
   -4   11   15      1.18      0.00
   -3   11   15      1.56      0.00
   -2   11   15      0.99      0.00
   -1   11   15      1.27      0.00
    0   11   15     -3.28      0.00
    1   11   15      2.25      0.00
    2   11   15      1.31      0.00
    3   11   15     -1.66      0.00
    4   11   15     -0.51      0.00
    5   11   15      0.89      0.00
    6   11   15     -0.70      0.00
    7   11   15     -0.13      0.00
    8   11   15     -0.24      0.00
    9   11   15     -0.03      0.00
   10   11   15      0.98      0.00
   11   11   15     -0.44      0.00
   12   11   15     -1.18      0.00
  -13   12   15      0.25      0.00
  -12   12   15     -1.47      0.00
  -11   12   15      0.90      0.00
  -10   12   15      0.69      0.00
   -9   12   15     -1.63      0.00
   -8   12   15     -0.76      0.00
   -7   12   15      3.40      0.00
   -6   12   15      0.35      0.00
   -5   12   15     -0.22      0.00
   -4   12   15      1.97      0.00
   -3   12   15     -3.89      0.00
   -2   12   15      0.31      0.00
   -1   12   15      0.51      0.00
    0   12   15      0.32      0.00
    1   12   15      1.18      0.00
    2   12   15     -3.58      0.00
    3   12   15      0.87      0.00
    4   12   15      3.75      0.00
    5   12   15     -1.55      0.00
    6   12   15     -1.61      0.00
    7   12   15     -0.75      0.00
    8   12   15      0.41      0.00
    9   12   15      0.16      0.00
   10   12   15      0.01      0.00
   11   12   15     -0.90      0.00
  -12   13   15     -1.79      0.00
  -11   13   15      0.50      0.00
  -10   13   15      1.03      0.00
   -9   13   15      0.31      0.00
   -8   13   15      0.94      0.00
   -7   13   15      2.03      0.00
   -6   13   15     -2.47      0.00
   -5   13   15      0.54      0.00
   -4   13   15     -1.68      0.00
   -3   13   15     -0.39      0.00
   -2   13   15      4.13      0.00
   -1   13   15     -1.67      0.00
    0   13   15      0.17      0.00
    1   13   15      1.58      0.00
    2   13   15      0.95      0.00
    3   13   15      0.36      0.00
    4   13   15     -2.02      0.00
    5   13   15      0.20      0.00
    6   13   15     -2.87      0.00
    7   13   15     -0.21      0.00
    8   13   15      3.11      0.00
    9   13   15     -0.86      0.00
   10   13   15     -0.42      0.00
  -11   14   15      0.04      0.00
  -10   14   15      2.02      0.00
   -9   14   15      0.41      0.00
   -8   14   15     -1.44      0.00
   -7   14   15     -1.18      0.00
   -6   14   15      0.67      0.00
   -5   14   15      0.36      0.00
   -4   14   15     -0.91      0.00
   -3   14   15     -0.62      0.00
   -2   14   15     -1.89      0.00
   -1   14   15      0.20      0.00
    0   14   15      0.93      0.00
    1   14   15      0.19      0.00
    2   14   15     -0.88      0.00
    3   14   15     -3.62      0.00
    4   14   15      1.32      0.00
    5   14   15      0.34      0.00
    6   14   15     -1.42      0.00
    7   14   15      3.02      0.00
    8   14   15      1.40      0.00
    9   14   15     -0.55      0.00
  -10   15   15      0.99      0.00
   -9   15   15     -0.74      0.00
   -8   15   15     -1.12      0.00
   -7   15   15      0.11      0.00
   -6   15   15     -0.07      0.00
   -5   15   15     -0.38      0.00
   -4   15   15     -0.71      0.00
   -3   15   15     -0.40      0.00
   -2   15   15      1.58      0.00
   -1   15   15      1.60      0.00
    0   15   15     -1.19      0.00
    1   15   15      0.75      0.00
    2   15   15      0.03      0.00
    3   15   15     -0.43      0.00
    4   15   15     -1.41      0.00
    5   15   15      0.71      0.00
    6   15   15      1.22      0.00
    7   15   15     -0.06      0.00
    8   15   15      0.18      0.00
   -9   16   15      0.93      0.00
   -8   16   15     -0.87      0.00
   -7   16   15     -0.22      0.00
   -6   16   15      0.45      0.00
   -5   16   15     -0.13      0.00
   -4   16   15      1.20      0.00
   -3   16   15     -0.26      0.00
   -2   16   15      0.45      0.00
   -1   16   15     -0.20      0.00
    0   16   15     -1.07      0.00
    1   16   15     -1.36      0.00
    2   16   15      1.13      0.00
    3   16   15     -1.23      0.00
    4   16   15     -0.04      0.00
    5   16   15      2.89      0.00
    6   16   15      0.84      0.00
    7   16   15      0.82      0.00
   -7   17   15      0.52      0.00
   -6   17   15     -0.72      0.00
   -5   17   15      0.71      0.00
   -4   17   15     -0.39      0.00
   -3   17   15      0.22      0.00
   -2   17   15     -0.19      0.00
   -1   17   15     -0.65      0.00
    0   17   15     -1.92      0.00
    1   17   15      0.64      0.00
    2   17   15      1.97      0.00
    3   17   15      0.26      0.00
    4   17   15     -0.31      0.00
    5   17   15      0.24      0.00
   -5   18   15     -0.29      0.00
   -4   18   15      0.22      0.00
   -3   18   15     -0.25      0.00
   -2   18   15      0.06      0.00
   -1   18   15      0.08      0.00
    0   18   15     -0.54      0.00
    1   18   15     -0.57      0.00
    2   18   15      0.57      0.00
    3   18   15      0.22      0.00
  -16    0   16      1.22      0.00
  -14    0   16     -2.73      0.00
  -12    0   16      1.15      0.00
  -10    0   16      2.73      0.00
   -8    0   16      3.28      0.00
   -6    0   16     -5.45      0.00
   -4    0   16      3.38      0.00
   -2    0   16     -0.69      0.00
    0    0   16     -1.77      0.00
    2    0   16      6.24      0.00
    4    0   16     -2.51      0.00
    6    0   16      0.21      0.00
    8    0   16      1.08      0.00
   10    0   16     -0.67      0.00
   12    0   16     -0.99      0.00
   14    0   16     -1.21      0.00
  -16    1   16      0.09      0.00
  -15    1   16     -1.95      0.00
  -14    1   16     -1.05      0.00
  -13    1   16      1.50      0.00
  -12    1   16      0.39      0.00
  -11    1   16      1.86      0.00
  -10    1   16      1.71      0.00
   -9    1   16     -2.44      0.00
   -8    1   16     -1.55      0.00
   -7    1   16     -0.22      0.00
   -6    1   16      1.74      0.00
   -5    1   16      1.15      0.00
   -4    1   16     -3.72      0.00
   -3    1   16      0.36      0.00
   -2    1   16      3.81      0.00
   -1    1   16     -1.55      0.00
    0    1   16      0.60      0.00
    1    1   16      2.04      0.00
    2    1   16     -0.76      0.00
    3    1   16      0.02      0.00
    4    1   16     -4.51      0.00
    5    1   16     -1.57      0.00
    6    1   16      1.68      0.00
    7    1   16     -0.07      0.00
    8    1   16     -0.97      0.00
    9    1   16      0.96      0.00
   10    1   16      1.46      0.00
   11    1   16      0.13      0.00
   12    1   16     -1.18      0.00
   13    1   16     -0.98      0.00
   14    1   16      1.50      0.00
  -16    2   16     -0.67      0.00
  -15    2   16     -0.55      0.00
  -14    2   16      0.73      0.00
  -13    2   16      0.94      0.00
  -12    2   16      1.17      0.00
  -11    2   16      0.09      0.00
  -10    2   16     -3.34      0.00
   -9    2   16     -0.83      0.00
   -8    2   16      1.96      0.00
   -7    2   16      3.36      0.00
   -6    2   16      0.65      0.00
   -5    2   16     -3.60      0.00
   -4    2   16      0.93      0.00
   -3    2   16      0.88      0.00
   -2    2   16     -4.19      0.00
   -1    2   16     -1.74      0.00
    0    2   16     -0.31      0.00
    1    2   16     -1.07      0.00
    2    2   16      2.06      0.00
    3    2   16      3.99      0.00
    4    2   16     -1.29      0.00
    5    2   16     -2.45      0.00
    6    2   16      0.98      0.00
    7    2   16     -0.95      0.00
    8    2   16      2.01      0.00
    9    2   16      1.20      0.00
   10    2   16     -0.71      0.00
   11    2   16      2.31      0.00
   12    2   16      1.35      0.00
   13    2   16     -1.85      0.00
   14    2   16     -0.49      0.00
  -16    3   16      1.44      0.00
  -15    3   16     -0.08      0.00
  -14    3   16     -0.62      0.00
  -13    3   16     -1.08      0.00
  -12    3   16      0.06      0.00
  -11    3   16     -3.17      0.00
  -10    3   16      0.78      0.00
   -9    3   16      1.99      0.00
   -8    3   16     -3.34      0.00
   -7    3   16      2.47      0.00
   -6    3   16      2.16      0.00
   -5    3   16     -3.21      0.00
   -4    3   16     -0.66      0.00
   -3    3   16     -1.20      0.00
   -2    3   16      1.39      0.00
   -1    3   16     -0.69      0.00
    0    3   16      2.34      0.00
    1    3   16      4.17      0.00
    2    3   16     -2.21      0.00
    3    3   16      0.56      0.00
    4    3   16     -2.86      0.00
    5    3   16     -0.63      0.00
    6    3   16      1.03      0.00
    7    3   16      0.36      0.00
    8    3   16     -0.13      0.00
    9    3   16     -0.10      0.00
   10    3   16      2.30      0.00
   11    3   16      1.17      0.00
   12    3   16     -2.51      0.00
   13    3   16     -2.84      0.00
   14    3   16      0.54      0.00
  -16    4   16      0.41      0.00
  -15    4   16     -1.28      0.00
  -14    4   16     -1.96      0.00
  -13    4   16      1.68      0.00
  -12    4   16      0.20      0.00
  -11    4   16     -1.55      0.00
  -10    4   16      2.48      0.00
   -9    4   16      0.34      0.00
   -8    4   16     -3.11      0.00
   -7    4   16      3.82      0.00
   -6    4   16      0.91      0.00
   -5    4   16     -2.05      0.00
   -4    4   16      0.54      0.00
   -3    4   16      0.88      0.00
   -2    4   16      0.65      0.00
   -1    4   16     -2.71      0.00
    0    4   16      1.53      0.00
    1    4   16     -1.85      0.00
    2    4   16     -3.06      0.00
    3    4   16      2.98      0.00
    4    4   16      2.53      0.00
    5    4   16      0.16      0.00
    6    4   16     -0.88      0.00
    7    4   16     -0.97      0.00
    8    4   16     -0.34      0.00
    9    4   16      0.84      0.00
   10    4   16     -1.15      0.00
   11    4   16     -0.36      0.00
   12    4   16     -0.61      0.00
   13    4   16      0.10      0.00
   14    4   16      0.61      0.00
  -16    5   16      1.14      0.00
  -15    5   16     -0.48      0.00
  -14    5   16      0.25      0.00
  -13    5   16      0.76      0.00
  -12    5   16     -0.41      0.00
  -11    5   16      0.86      0.00
  -10    5   16      2.07      0.00
   -9    5   16     -0.35      0.00
   -8    5   16     -1.63      0.00
   -7    5   16      0.27      0.00
   -6    5   16     -0.98      0.00
   -5    5   16     -0.32      0.00
   -4    5   16      1.92      0.00
   -3    5   16      3.79      0.00
   -2    5   16     -0.83      0.00
   -1    5   16     -4.70      0.00
    0    5   16      0.56      0.00
    1    5   16      1.36      0.00
    2    5   16     -1.56      0.00
    3    5   16      0.79      0.00
    4    5   16      3.15      0.00
    5    5   16     -0.85      0.00
    6    5   16     -3.27      0.00
    7    5   16      0.71      0.00
    8    5   16     -0.93      0.00
    9    5   16     -2.00      0.00
   10    5   16      0.24      0.00
   11    5   16      0.78      0.00
   12    5   16     -0.29      0.00
   13    5   16     -0.01      0.00
   14    5   16      1.02      0.00
  -15    6   16     -0.33      0.00
  -14    6   16     -0.57      0.00
  -13    6   16      0.27      0.00
  -12    6   16      1.81      0.00
  -11    6   16      0.14      0.00
  -10    6   16     -1.25      0.00
   -9    6   16      2.42      0.00
   -8    6   16     -1.92      0.00
   -7    6   16     -4.74      0.00
   -6    6   16      2.23      0.00
   -5    6   16      4.01      0.00
   -4    6   16      2.50      0.00
   -3    6   16     -0.49      0.00
   -2    6   16     -3.68      0.00
   -1    6   16     -4.14      0.00
    0    6   16     -0.43      0.00
    1    6   16      3.94      0.00
    2    6   16     -0.96      0.00
    3    6   16      1.06      0.00
    4    6   16      2.78      0.00
    5    6   16     -3.38      0.00
    6    6   16     -0.47      0.00
    7    6   16      0.12      0.00
    8    6   16     -0.38      0.00
    9    6   16     -0.22      0.00
   10    6   16      0.80      0.00
   11    6   16      1.47      0.00
   12    6   16     -0.49      0.00
   13    6   16     -0.13      0.00
  -15    7   16      0.88      0.00
  -14    7   16     -0.31      0.00
  -13    7   16     -0.28      0.00
  -12    7   16      1.89      0.00
  -11    7   16     -0.90      0.00
  -10    7   16      0.17      0.00
   -9    7   16      2.39      0.00
   -8    7   16     -3.06      0.00
   -7    7   16     -2.21      0.00
   -6    7   16      2.11      0.00
   -5    7   16      1.25      0.00
   -4    7   16      0.27      0.00
   -3    7   16     -0.89      0.00
   -2    7   16     -0.76      0.00
   -1    7   16     -2.91      0.00
    0    7   16      3.82      0.00
    1    7   16      1.70      0.00
    2    7   16     -2.99      0.00
    3    7   16     -0.33      0.00
    4    7   16     -0.41      0.00
    5    7   16      1.72      0.00
    6    7   16     -0.41      0.00
    7    7   16      1.03      0.00
    8    7   16      0.93      0.00
    9    7   16     -2.07      0.00
   10    7   16      1.25      0.00
   11    7   16     -1.41      0.00
   12    7   16      0.50      0.00
   13    7   16      0.19      0.00
  -15    8   16     -0.08      0.00
  -14    8   16      0.90      0.00
  -13    8   16      0.75      0.00
  -12    8   16      0.02      0.00
  -11    8   16     -0.92      0.00
  -10    8   16     -1.15      0.00
   -9    8   16      2.53      0.00
   -8    8   16     -0.17      0.00
   -7    8   16     -3.81      0.00
   -6    8   16      1.22      0.00
   -5    8   16      3.14      0.00
   -4    8   16     -1.70      0.00
   -3    8   16      0.13      0.00
   -2    8   16      1.44      0.00
   -1    8   16      1.01      0.00
    0    8   16     -1.02      0.00
    1    8   16     -1.13      0.00
    2    8   16      4.03      0.00
    3    8   16     -1.84      0.00
    4    8   16     -0.91      0.00
    5    8   16      3.67      0.00
    6    8   16     -0.16      0.00
    7    8   16      0.20      0.00
    8    8   16     -1.09      0.00
    9    8   16     -0.01      0.00
   10    8   16     -1.13      0.00
   11    8   16      0.90      0.00
   12    8   16      1.19      0.00
   13    8   16     -1.30      0.00
  -14    9   16      1.40      0.00
  -13    9   16     -3.33      0.00
  -12    9   16      0.31      0.00
  -11    9   16      0.15      0.00
  -10    9   16      0.38      0.00
   -9    9   16      2.67      0.00
   -8    9   16     -1.37      0.00
   -7    9   16     -2.29      0.00
   -6    9   16      1.26      0.00
   -5    9   16     -0.21      0.00
   -4    9   16     -1.30      0.00
   -3    9   16      3.31      0.00
   -2    9   16      0.15      0.00
   -1    9   16      1.53      0.00
    0    9   16      0.29      0.00
    1    9   16     -1.43      0.00
    2    9   16     -0.92      0.00
    3    9   16     -2.17      0.00
    4    9   16      4.07      0.00
    5    9   16      2.58      0.00
    6    9   16     -3.46      0.00
    7    9   16      0.47      0.00
    8    9   16     -0.25      0.00
    9    9   16      0.06      0.00
   10    9   16     -0.55      0.00
   11    9   16      0.78      0.00
   12    9   16     -0.49      0.00
  -14   10   16     -1.89      0.00
  -13   10   16     -0.45      0.00
  -12   10   16      0.26      0.00
  -11   10   16      0.70      0.00
  -10   10   16     -0.51      0.00
   -9   10   16      0.69      0.00
   -8   10   16      0.04      0.00
   -7   10   16     -1.41      0.00
   -6   10   16     -0.14      0.00
   -5   10   16     -0.84      0.00
   -4   10   16      1.40      0.00
   -3   10   16      0.39      0.00
   -2   10   16      0.49      0.00
   -1   10   16      2.78      0.00
    0   10   16     -5.36      0.00
    1   10   16     -2.05      0.00
    2   10   16      5.31      0.00
    3   10   16      1.99      0.00
    4   10   16     -2.73      0.00
    5   10   16     -2.62      0.00
    6   10   16      1.13      0.00
    7   10   16      0.21      0.00
    8   10   16     -1.03      0.00
    9   10   16      1.53      0.00
   10   10   16     -0.35      0.00
   11   10   16      0.65      0.00
   12   10   16     -0.48      0.00
  -13   11   16     -0.58      0.00
  -12   11   16      0.37      0.00
  -11   11   16      1.29      0.00
  -10   11   16      0.14      0.00
   -9   11   16     -0.09      0.00
   -8   11   16      0.47      0.00
   -7   11   16     -0.08      0.00
   -6   11   16     -0.47      0.00
   -5   11   16      0.75      0.00
   -4   11   16      0.69      0.00
   -3   11   16     -1.58      0.00
   -2   11   16      0.99      0.00
   -1   11   16     -1.44      0.00
    0   11   16     -0.33      0.00
    1   11   16      1.88      0.00
    2   11   16     -0.67      0.00
    3   11   16     -2.59      0.00
    4   11   16     -0.99      0.00
    5   11   16      1.01      0.00
    6   11   16     -0.15      0.00
    7   11   16     -1.13      0.00
    8   11   16      0.50      0.00
    9   11   16      0.49      0.00
   10   11   16     -0.26      0.00
   11   11   16     -0.78      0.00
  -12   12   16     -0.35      0.00
  -11   12   16      1.44      0.00
  -10   12   16     -0.23      0.00
   -9   12   16      0.01      0.00
   -8   12   16      2.09      0.00
   -7   12   16     -0.35      0.00
   -6   12   16     -1.47      0.00
   -5   12   16      0.03      0.00
   -4   12   16     -2.39      0.00
   -3   12   16      0.05      0.00
   -2   12   16      2.63      0.00
   -1   12   16     -0.57      0.00
    0   12   16      0.31      0.00
    1   12   16     -0.71      0.00
    2   12   16      1.30      0.00
    3   12   16      1.66      0.00
    4   12   16     -2.27      0.00
    5   12   16     -1.78      0.00
    6   12   16      0.06      0.00
    7   12   16      1.42      0.00
    8   12   16      0.75      0.00
    9   12   16      0.62      0.00
   10   12   16     -0.57      0.00
   11   12   16     -0.08      0.00
  -11   13   16      2.26      0.00
  -10   13   16     -0.45      0.00
   -9   13   16     -1.04      0.00
   -8   13   16     -0.25      0.00
   -7   13   16     -2.87      0.00
   -6   13   16     -0.82      0.00
   -5   13   16      1.17      0.00
   -4   13   16     -1.71      0.00
   -3   13   16      1.85      0.00
   -2   13   16     -0.41      0.00
   -1   13   16     -1.44      0.00
    0   13   16      1.95      0.00
    1   13   16      0.19      0.00
    2   13   16     -1.34      0.00
    3   13   16     -2.17      0.00
    4   13   16     -0.25      0.00
    5   13   16      0.45      0.00
    6   13   16      1.11      0.00
    7   13   16      4.18      0.00
    8   13   16     -0.21      0.00
    9   13   16     -0.12      0.00
   10   13   16     -0.53      0.00
  -11   14   16      0.63      0.00
  -10   14   16     -1.52      0.00
   -9   14   16     -2.51      0.00
   -8   14   16     -0.40      0.00
   -7   14   16     -0.25      0.00
   -6   14   16      0.93      0.00
   -5   14   16     -1.05      0.00
   -4   14   16     -1.32      0.00
   -3   14   16      0.11      0.00
   -2   14   16      0.72      0.00
   -1   14   16      1.31      0.00
    0   14   16     -0.19      0.00
    1   14   16     -1.03      0.00
    2   14   16     -2.72      0.00
    3   14   16      1.14      0.00
    4   14   16      2.20      0.00
    5   14   16     -1.95      0.00
    6   14   16      2.20      0.00
    7   14   16      1.28      0.00
    8   14   16     -2.06      0.00
    9   14   16      0.07      0.00
   -9   15   16     -0.99      0.00
   -8   15   16      1.62      0.00
   -7   15   16     -0.18      0.00
   -6   15   16     -0.22      0.00
   -5   15   16      1.11      0.00
   -4   15   16      0.69      0.00
   -3   15   16      1.44      0.00
   -2   15   16      0.78      0.00
   -1   15   16     -2.13      0.00
    0   15   16      0.49      0.00
    1   15   16     -0.07      0.00
    2   15   16     -1.71      0.00
    3   15   16      0.70      0.00
    4   15   16      1.24      0.00
    5   15   16      1.17      0.00
    6   15   16      0.70      0.00
    7   15   16     -0.33      0.00
    8   15   16      0.19      0.00
   -8   16   16     -0.01      0.00
   -7   16   16     -0.09      0.00
   -6   16   16      1.40      0.00
   -5   16   16     -0.09      0.00
   -4   16   16     -0.52      0.00
   -3   16   16     -1.11      0.00
   -2   16   16     -0.75      0.00
   -1   16   16     -1.14      0.00
    0   16   16     -0.24      0.00
    1   16   16      0.90      0.00
    2   16   16     -0.41      0.00
    3   16   16      0.10      0.00
    4   16   16      3.14      0.00
    5   16   16     -0.81      0.00
    6   16   16     -1.92      0.00
   -6   17   16     -0.14      0.00
   -5   17   16     -0.21      0.00
   -4   17   16     -0.56      0.00
   -3   17   16      0.66      0.00
   -2   17   16     -0.78      0.00
   -1   17   16     -0.87      0.00
    0   17   16      1.21      0.00
    1   17   16      1.84      0.00
    2   17   16     -2.01      0.00
    3   17   16      0.22      0.00
    4   17   16      0.73      0.00
   -3   18   16     -0.93      0.00
   -2   18   16     -0.04      0.00
   -1   18   16      0.25      0.00
    0   18   16     -0.05      0.00
    1   18   16     -0.57      0.00
    2   18   16      0.36      0.00
  -15    0   17     -1.50      0.00
  -13    0   17      3.15      0.00
  -11    0   17      0.54      0.00
   -9    0   17     -1.63      0.00
   -7    0   17     -2.21      0.00
   -5    0   17      2.94      0.00
   -3    0   17     -3.17      0.00
   -1    0   17      0.23      0.00
    1    0   17      6.77      0.00
    3    0   17     -5.09      0.00
    5    0   17      0.34      0.00
    7    0   17      0.43      0.00
    9    0   17     -0.04      0.00
   11    0   17     -0.66      0.00
   13    0   17     -0.61      0.00
  -16    1   17     -1.42      0.00
  -15    1   17     -0.17      0.00
  -14    1   17      1.23      0.00
  -13    1   17      2.30      0.00
  -12    1   17     -2.65      0.00
  -11    1   17      0.89      0.00
  -10    1   17     -2.28      0.00
   -9    1   17     -1.85      0.00
   -8    1   17      1.98      0.00
   -7    1   17      1.08      0.00
   -6    1   17     -0.27      0.00
   -5    1   17     -2.99      0.00
   -4    1   17     -3.99      0.00
   -3    1   17      4.15      0.00
   -2    1   17      2.25      0.00
   -1    1   17     -4.04      0.00
    0    1   17      2.49      0.00
    1    1   17      0.83      0.00
    2    1   17     -3.40      0.00
    3    1   17     -1.18      0.00
    4    1   17     -0.76      0.00
    5    1   17      1.73      0.00
    6    1   17     -0.23      0.00
    7    1   17      0.59      0.00
    8    1   17      1.22      0.00
    9    1   17      1.27      0.00
   10    1   17     -0.08      0.00
   11    1   17     -1.16      0.00
   12    1   17      0.51      0.00
   13    1   17      0.34      0.00
   14    1   17      0.54      0.00
  -16    2   17      0.14      0.00
  -15    2   17      0.69      0.00
  -14    2   17      0.43      0.00
  -13    2   17     -2.41      0.00
  -12    2   17     -1.77      0.00
  -11    2   17      0.63      0.00
  -10    2   17      0.49      0.00
   -9    2   17      2.78      0.00
   -8    2   17      1.41      0.00
   -7    2   17     -2.55      0.00
   -6    2   17     -1.15      0.00
   -5    2   17      0.58      0.00
   -4    2   17     -0.81      0.00
   -3    2   17      1.00      0.00
   -2    2   17     -0.01      0.00
   -1    2   17      0.90      0.00
    0    2   17      2.24      0.00
    1    2   17     -1.16      0.00
    2    2   17      1.48      0.00
    3    2   17     -2.12      0.00
    4    2   17     -2.44      0.00
    5    2   17      1.53      0.00
    6    2   17      0.45      0.00
    7    2   17      1.28      0.00
    8    2   17      1.39      0.00
    9    2   17     -0.72      0.00
   10    2   17      0.67      0.00
   11    2   17      0.52      0.00
   12    2   17     -1.46      0.00
   13    2   17     -0.80      0.00
   14    2   17     -0.11      0.00
  -16    3   17     -0.49      0.00
  -15    3   17     -1.21      0.00
  -14    3   17     -1.20      0.00
  -13    3   17     -0.37      0.00
  -12    3   17      1.19      0.00
  -11    3   17      0.84      0.00
  -10    3   17      2.05      0.00
   -9    3   17     -1.05      0.00
   -8    3   17     -1.33      0.00
   -7    3   17      1.96      0.00
   -6    3   17     -0.14      0.00
   -5    3   17     -0.97      0.00
   -4    3   17     -0.78      0.00
   -3    3   17      0.09      0.00
   -2    3   17      0.12      0.00
   -1    3   17      0.84      0.00
    0    3   17     -0.35      0.00
    1    3   17     -3.28      0.00
    2    3   17      0.34      0.00
    3    3   17      0.47      0.00
    4    3   17      1.03      0.00
    5    3   17      2.19      0.00
    6    3   17     -0.75      0.00
    7    3   17      0.55      0.00
    8    3   17     -1.21      0.00
    9    3   17      0.54      0.00
   10    3   17     -0.34      0.00
   11    3   17     -1.69      0.00
   12    3   17     -0.54      0.00
   13    3   17      1.90      0.00
   14    3   17      0.33      0.00
  -15    4   17      0.29      0.00
  -14    4   17      2.02      0.00
  -13    4   17      2.12      0.00
  -12    4   17     -1.37      0.00
  -11    4   17      0.43      0.00
  -10    4   17      3.77      0.00
   -9    4   17     -3.08      0.00
   -8    4   17     -0.76      0.00
   -7    4   17      1.48      0.00
   -6    4   17     -2.58      0.00
   -5    4   17      2.26      0.00
   -4    4   17      0.73      0.00
   -3    4   17     -2.15      0.00
   -2    4   17      0.13      0.00
   -1    4   17      0.08      0.00
    0    4   17     -0.18      0.00
    1    4   17     -0.28      0.00
    2    4   17      4.41      0.00
    3    4   17      0.38      0.00
    4    4   17     -2.17      0.00
    5    4   17     -1.20      0.00
    6    4   17     -0.66      0.00
    7    4   17     -1.61      0.00
    8    4   17     -0.13      0.00
    9    4   17     -0.93      0.00
   10    4   17      0.30      0.00
   11    4   17      1.06      0.00
   12    4   17      0.74      0.00
   13    4   17     -0.67      0.00
   14    4   17     -0.79      0.00
  -15    5   17      0.33      0.00
  -14    5   17      1.08      0.00
  -13    5   17     -0.63      0.00
  -12    5   17     -0.99      0.00
  -11    5   17      1.60      0.00
  -10    5   17     -0.40      0.00
   -9    5   17     -5.58      0.00
   -8    5   17      1.02      0.00
   -7    5   17      1.01      0.00
   -6    5   17      0.17      0.00
   -5    5   17      4.94      0.00
   -4    5   17      1.19      0.00
   -3    5   17     -4.04      0.00
   -2    5   17     -5.01      0.00
   -1    5   17      2.82      0.00
    0    5   17      2.94      0.00
    1    5   17     -0.55      0.00
    2    5   17      0.18      0.00
    3    5   17      0.03      0.00
    4    5   17      0.15      0.00
    5    5   17     -1.08      0.00
    6    5   17     -0.78      0.00
    7    5   17     -0.27      0.00
    8    5   17     -0.82      0.00
    9    5   17      0.98      0.00
   10    5   17      2.29      0.00
   11    5   17     -0.41      0.00
   12    5   17     -0.77      0.00
   13    5   17     -0.20      0.00
  -15    6   17     -0.07      0.00
  -14    6   17      0.32      0.00
  -13    6   17      0.31      0.00
  -12    6   17     -1.37      0.00
  -11    6   17     -0.80      0.00
  -10    6   17      0.34      0.00
   -9    6   17     -0.26      0.00
   -8    6   17     -0.78      0.00
   -7    6   17      1.73      0.00
   -6    6   17      2.59      0.00
   -5    6   17      0.63      0.00
   -4    6   17     -1.73      0.00
   -3    6   17     -4.23      0.00
   -2    6   17      1.32      0.00
   -1    6   17      3.30      0.00
    0    6   17      1.38      0.00
    1    6   17     -1.42      0.00
    2    6   17     -0.69      0.00
    3    6   17      1.51      0.00
    4    6   17     -2.41      0.00
    5    6   17     -0.80      0.00
    6    6   17      1.88      0.00
    7    6   17     -0.32      0.00
    8    6   17      0.85      0.00
    9    6   17      0.84      0.00
   10    6   17      0.67      0.00
   11    6   17     -0.90      0.00
   12    6   17     -1.02      0.00
   13    6   17      1.13      0.00
  -15    7   17     -0.26      0.00
  -14    7   17     -0.44      0.00
  -13    7   17      0.57      0.00
  -12    7   17      0.06      0.00
  -11    7   17     -0.44      0.00
  -10    7   17      2.12      0.00
   -9    7   17     -1.47      0.00
   -8    7   17     -1.59      0.00
   -7    7   17      2.03      0.00
   -6    7   17     -1.29      0.00
   -5    7   17      0.37      0.00
   -4    7   17      2.15      0.00
   -3    7   17      1.05      0.00
   -2    7   17     -2.74      0.00
   -1    7   17      0.67      0.00
    0    7   17      0.52      0.00
    1    7   17     -4.59      0.00
    2    7   17      2.18      0.00
    3    7   17      2.85      0.00
    4    7   17      1.12      0.00
    5    7   17      1.11      0.00
    6    7   17     -0.87      0.00
    7    7   17      1.32      0.00
    8    7   17     -2.35      0.00
    9    7   17      0.54      0.00
   10    7   17     -0.20      0.00
   11    7   17     -0.38      0.00
   12    7   17      0.85      0.00
   13    7   17      0.48      0.00
  -14    8   17      0.46      0.00
  -13    8   17      0.96      0.00
  -12    8   17     -1.07      0.00
  -11    8   17     -0.26      0.00
  -10    8   17      1.71      0.00
   -9    8   17      0.35      0.00
   -8    8   17     -2.90      0.00
   -7    8   17     -0.11      0.00
   -6    8   17      2.12      0.00
   -5    8   17     -0.46      0.00
   -4    8   17      1.28      0.00
   -3    8   17      0.90      0.00
   -2    8   17     -0.72      0.00
   -1    8   17      0.38      0.00
    0    8   17     -2.56      0.00
    1    8   17      2.95      0.00
    2    8   17      2.14      0.00
    3    8   17     -1.32      0.00
    4    8   17      2.35      0.00
    5    8   17     -2.18      0.00
    6    8   17      0.00      0.00
    7    8   17     -0.69      0.00
    8    8   17     -0.65      0.00
    9    8   17      0.57      0.00
   10    8   17     -1.40      0.00
   11    8   17      1.63      0.00
   12    8   17     -1.34      0.00
  -14    9   17     -1.25      0.00
  -13    9   17      0.09      0.00
  -12    9   17      1.74      0.00
  -11    9   17     -0.20      0.00
  -10    9   17      1.17      0.00
   -9    9   17     -1.12      0.00
   -8    9   17     -2.38      0.00
   -7    9   17      1.98      0.00
   -6    9   17     -0.03      0.00
   -5    9   17     -1.88      0.00
   -4    9   17      3.39      0.00
   -3    9   17      0.74      0.00
   -2    9   17     -2.65      0.00
   -1    9   17     -1.91      0.00
    0    9   17      0.37      0.00
    1    9   17      0.36      0.00
    2    9   17     -1.89      0.00
    3    9   17      2.87      0.00
    4    9   17      1.46      0.00
    5    9   17     -4.20      0.00
    6    9   17      0.18      0.00
    7    9   17      0.75      0.00
    8    9   17      0.38      0.00
    9    9   17     -0.44      0.00
   10    9   17      0.80      0.00
   11    9   17      0.92      0.00
   12    9   17      0.22      0.00
  -13   10   17      1.46      0.00
  -12   10   17      0.67      0.00
  -11   10   17     -0.31      0.00
  -10   10   17     -0.41      0.00
   -9   10   17      0.33      0.00
   -8   10   17     -1.01      0.00
   -7   10   17     -0.77      0.00
   -6   10   17     -0.64      0.00
   -5   10   17     -0.60      0.00
   -4   10   17      1.33      0.00
   -3   10   17     -1.23      0.00
   -2   10   17     -0.19      0.00
   -1   10   17     -0.52      0.00
    0   10   17      0.01      0.00
    1   10   17      2.62      0.00
    2   10   17     -0.62      0.00
    3   10   17     -3.65      0.00
    4   10   17     -2.11      0.00
    5   10   17      2.09      0.00
    6   10   17      1.29      0.00
    7   10   17     -1.61      0.00
    8   10   17      0.55      0.00
    9   10   17     -0.17      0.00
   10   10   17      0.53      0.00
   11   10   17     -0.24      0.00
  -12   11   17      1.11      0.00
  -11   11   17     -0.71      0.00
  -10   11   17     -0.09      0.00
   -9   11   17     -0.63      0.00
   -8   11   17     -0.83      0.00
   -7   11   17     -0.13      0.00
   -6   11   17     -0.11      0.00
   -5   11   17     -0.58      0.00
   -4   11   17     -0.60      0.00
   -3   11   17      1.09      0.00
   -2   11   17      0.34      0.00
   -1   11   17     -0.66      0.00
    0   11   17      0.41      0.00
    1   11   17     -0.51      0.00
    2   11   17     -2.06      0.00
    3   11   17     -0.87      0.00
    4   11   17      2.82      0.00
    5   11   17      0.95      0.00
    6   11   17     -1.62      0.00
    7   11   17      0.96      0.00
    8   11   17      0.99      0.00
    9   11   17     -0.22      0.00
   10   11   17      0.52      0.00
   11   11   17      0.34      0.00
  -12   12   17      0.41      0.00
  -11   12   17      0.70      0.00
  -10   12   17     -1.25      0.00
   -9   12   17     -0.01      0.00
   -8   12   17     -1.49      0.00
   -7   12   17     -1.07      0.00
   -6   12   17     -0.18      0.00
   -5   12   17     -0.71      0.00
   -4   12   17      1.02      0.00
   -3   12   17      1.81      0.00
   -2   12   17     -0.34      0.00
   -1   12   17     -0.30      0.00
    0   12   17     -0.26      0.00
    1   12   17      1.70      0.00
    2   12   17      0.50      0.00
    3   12   17     -2.15      0.00
    4   12   17      0.30      0.00
    5   12   17      2.02      0.00
    6   12   17      1.38      0.00
    7   12   17      1.66      0.00
    8   12   17     -0.73      0.00
    9   12   17     -0.71      0.00
   10   12   17     -0.10      0.00
  -11   13   17     -1.79      0.00
  -10   13   17     -1.69      0.00
   -9   13   17     -0.77      0.00
   -8   13   17     -1.16      0.00
   -7   13   17      0.24      0.00
   -6   13   17      1.86      0.00
   -5   13   17     -0.46      0.00
   -4   13   17     -0.47      0.00
   -3   13   17     -0.36      0.00
   -2   13   17     -0.29      0.00
   -1   13   17     -0.16      0.00
    0   13   17     -0.60      0.00
    1   13   17     -0.95      0.00
    2   13   17     -1.10      0.00
    3   13   17     -0.49      0.00
    4   13   17      2.11      0.00
    5   13   17      0.02      0.00
    6   13   17      1.44      0.00
    7   13   17     -1.17      0.00
    8   13   17     -0.58      0.00
    9   13   17     -0.33      0.00
  -10   14   17     -0.64      0.00
   -9   14   17      0.97      0.00
   -8   14   17      0.31      0.00
   -7   14   17      0.91      0.00
   -6   14   17      0.56      0.00
   -5   14   17     -0.41      0.00
   -4   14   17      0.05      0.00
   -3   14   17      1.44      0.00
   -2   14   17      0.15      0.00
   -1   14   17     -0.73      0.00
    0   14   17     -0.21      0.00
    1   14   17     -0.37      0.00
    2   14   17      0.32      0.00
    3   14   17      1.48      0.00
    4   14   17     -1.29      0.00
    5   14   17      0.34      0.00
    6   14   17      0.75      0.00
    7   14   17     -2.02      0.00
    8   14   17      0.74      0.00
   -9   15   17      1.75      0.00
   -8   15   17      0.14      0.00
   -7   15   17     -0.83      0.00
   -6   15   17      1.57      0.00
   -5   15   17     -1.06      0.00
   -4   15   17     -0.53      0.00
   -3   15   17     -0.31      0.00
   -2   15   17     -1.63      0.00
   -1   15   17      0.63      0.00
    0   15   17      1.08      0.00
    1   15   17     -1.83      0.00
    2   15   17      0.78      0.00
    3   15   17      0.92      0.00
    4   15   17     -0.56      0.00
    5   15   17     -0.18      0.00
    6   15   17     -0.22      0.00
    7   15   17     -0.26      0.00
   -7   16   17      1.07      0.00
   -6   16   17     -0.47      0.00
   -5   16   17     -1.36      0.00
   -4   16   17      0.36      0.00
   -3   16   17      1.15      0.00
   -2   16   17      0.25      0.00
   -1   16   17      0.25      0.00
    0   16   17      0.06      0.00
    1   16   17      0.00      0.00
    2   16   17     -0.27      0.00
    3   16   17      1.65      0.00
    4   16   17     -1.88      0.00
    5   16   17     -1.21      0.00
   -5   17   17     -0.14      0.00
   -4   17   17      0.93      0.00
   -3   17   17      0.05      0.00
   -2   17   17     -1.43      0.00
   -1   17   17      0.49      0.00
    0   17   17      1.59      0.00
    1   17   17     -2.01      0.00
    2   17   17      0.21      0.00
    3   17   17      1.53      0.00
  -14    0   18      0.05      0.00
  -12    0   18     -1.64      0.00
  -10    0   18     -3.06      0.00
   -8    0   18     -0.58      0.00
   -6    0   18     -0.06      0.00
   -4    0   18     -1.57      0.00
   -2    0   18      5.24      0.00
    0    0   18     -0.43      0.00
    2    0   18     -5.16      0.00
    4    0   18      0.96      0.00
    6    0   18      1.12      0.00
    8    0   18      0.54      0.00
   10    0   18     -0.60      0.00
   12    0   18     -1.00      0.00
  -15    1   18     -1.12      0.00
  -14    1   18      1.51      0.00
  -13    1   18     -1.90      0.00
  -12    1   18     -0.59      0.00
  -11    1   18      2.40      0.00
  -10    1   18     -1.27      0.00
   -9    1   18      1.14      0.00
   -8    1   18      1.48      0.00
   -7    1   18     -0.86      0.00
   -6    1   18     -2.32      0.00
   -5    1   18     -0.77      0.00
   -4    1   18      3.05      0.00
   -3    1   18      4.60      0.00
   -2    1   18     -2.65      0.00
   -1    1   18     -2.57      0.00
    0    1   18      1.78      0.00
    1    1   18     -4.49      0.00
    2    1   18     -0.18      0.00
    3    1   18      1.40      0.00
    4    1   18      0.19      0.00
    5    1   18      0.81      0.00
    6    1   18      1.23      0.00
    7    1   18      0.61      0.00
    8    1   18      0.15      0.00
    9    1   18     -0.70      0.00
   10    1   18     -1.00      0.00
   11    1   18      0.93      0.00
   12    1   18     -0.38      0.00
   13    1   18      0.09      0.00
  -15    2   18     -1.09      0.00
  -14    2   18     -0.19      0.00
  -13    2   18     -2.52      0.00
  -12    2   18      4.16      0.00
  -11    2   18      2.63      0.00
  -10    2   18     -1.81      0.00
   -9    2   18     -1.07      0.00
   -8    2   18     -1.46      0.00
   -7    2   18     -0.62      0.00
   -6    2   18      3.35      0.00
   -5    2   18     -1.87      0.00
   -4    2   18     -0.76      0.00
   -3    2   18      1.95      0.00
   -2    2   18     -3.29      0.00
   -1    2   18      2.20      0.00
    0    2   18     -1.16      0.00
    1    2   18     -1.88      0.00
    2    2   18      1.80      0.00
    3    2   18     -1.44      0.00
    4    2   18      2.50      0.00
    5    2   18      1.64      0.00
    6    2   18     -0.17      0.00
    7    2   18      0.11      0.00
    8    2   18     -0.65      0.00
    9    2   18     -0.65      0.00
   10    2   18     -0.16      0.00
   11    2   18      0.20      0.00
   12    2   18     -0.60      0.00
   13    2   18     -0.03      0.00
  -15    3   18      0.63      0.00
  -14    3   18     -0.36      0.00
  -13    3   18      1.48      0.00
  -12    3   18      1.76      0.00
  -11    3   18     -0.78      0.00
  -10    3   18     -1.15      0.00
   -9    3   18      0.32      0.00
   -8    3   18     -0.17      0.00
   -7    3   18      0.64      0.00
   -6    3   18      0.36      0.00
   -5    3   18     -4.03      0.00
   -4    3   18      0.65      0.00
   -3    3   18      0.62      0.00
   -2    3   18      0.08      0.00
   -1    3   18      2.34      0.00
    0    3   18     -1.54      0.00
    1    3   18      0.94      0.00
    2    3   18      0.72      0.00
    3    3   18     -0.23      0.00
    4    3   18      0.87      0.00
    5    3   18     -2.01      0.00
    6    3   18     -0.08      0.00
    7    3   18     -0.84      0.00
    8    3   18     -0.69      0.00
    9    3   18     -0.48      0.00
   10    3   18     -0.42      0.00
   11    3   18      1.41      0.00
   12    3   18      0.84      0.00
   13    3   18     -1.66      0.00
  -15    4   18      0.82      0.00
  -14    4   18     -0.25      0.00
  -13    4   18     -0.97      0.00
  -12    4   18     -1.88      0.00
  -11    4   18      1.90      0.00
  -10    4   18      0.13      0.00
   -9    4   18     -3.56      0.00
   -8    4   18      0.01      0.00
   -7    4   18      2.05      0.00
   -6    4   18      2.56      0.00
   -5    4   18      0.12      0.00
   -4    4   18     -2.60      0.00
   -3    4   18      1.50      0.00
   -2    4   18      1.67      0.00
   -1    4   18     -0.14      0.00
    0    4   18      1.59      0.00
    1    4   18      0.91      0.00
    2    4   18     -2.07      0.00
    3    4   18     -2.22      0.00
    4    4   18      1.07      0.00
    5    4   18      1.22      0.00
    6    4   18     -0.68      0.00
    7    4   18     -1.08      0.00
    8    4   18      0.93      0.00
    9    4   18      0.17      0.00
   10    4   18      1.49      0.00
   11    4   18     -0.66      0.00
   12    4   18     -0.97      0.00
   13    4   18     -1.62      0.00
  -15    5   18     -0.72      0.00
  -14    5   18     -0.92      0.00
  -13    5   18     -0.99      0.00
  -12    5   18     -1.05      0.00
  -11    5   18      1.59      0.00
  -10    5   18     -2.80      0.00
   -9    5   18      0.86      0.00
   -8    5   18      4.48      0.00
   -7    5   18     -0.52      0.00
   -6    5   18      1.29      0.00
   -5    5   18     -0.45      0.00
   -4    5   18     -4.42      0.00
   -3    5   18      0.12      0.00
   -2    5   18      2.36      0.00
   -1    5   18      2.74      0.00
    0    5   18     -1.92      0.00
    1    5   18     -1.02      0.00
    2    5   18     -0.47      0.00
    3    5   18      1.08      0.00
    4    5   18      1.26      0.00
    5    5   18     -1.89      0.00
    6    5   18     -0.88      0.00
    7    5   18      0.89      0.00
    8    5   18      0.99      0.00
    9    5   18      2.17      0.00
   10    5   18     -1.64      0.00
   11    5   18      0.01      0.00
   12    5   18      0.20      0.00
   13    5   18      1.12      0.00
  -14    6   18      1.37      0.00
  -13    6   18     -1.57      0.00
  -12    6   18     -0.40      0.00
  -11    6   18      2.45      0.00
  -10    6   18     -0.16      0.00
   -9    6   18      0.46      0.00
   -8    6   18     -0.14      0.00
   -7    6   18     -1.86      0.00
   -6    6   18      0.90      0.00
   -5    6   18      0.43      0.00
   -4    6   18     -1.73      0.00
   -3    6   18      2.52      0.00
   -2    6   18      1.08      0.00
   -1    6   18     -5.13      0.00
    0    6   18     -0.62      0.00
    1    6   18      2.79      0.00
    2    6   18      0.63      0.00
    3    6   18     -0.26      0.00
    4    6   18     -0.25      0.00
    5    6   18      1.27      0.00
    6    6   18     -0.19      0.00
    7    6   18      0.21      0.00
    8    6   18      1.18      0.00
    9    6   18     -0.48      0.00
   10    6   18     -0.72      0.00
   11    6   18      0.07      0.00
   12    6   18      0.82      0.00
  -14    7   18      0.66      0.00
  -13    7   18      0.59      0.00
  -12    7   18      0.14      0.00
  -11    7   18      0.23      0.00
  -10    7   18     -1.92      0.00
   -9    7   18     -0.79      0.00
   -8    7   18      0.92      0.00
   -7    7   18     -1.65      0.00
   -6    7   18      1.82      0.00
   -5    7   18      3.29      0.00
   -4    7   18     -1.04      0.00
   -3    7   18     -3.80      0.00
   -2    7   18     -2.43      0.00
   -1    7   18      1.98      0.00
    0    7   18      0.28      0.00
    1    7   18      3.03      0.00
    2    7   18      3.16      0.00
    3    7   18     -1.36      0.00
    4    7   18     -0.82      0.00
    5    7   18     -2.05      0.00
    6    7   18      0.20      0.00
    7    7   18     -0.27      0.00
    8    7   18     -0.20      0.00
    9    7   18      0.54      0.00
   10    7   18     -0.63      0.00
   11    7   18      0.32      0.00
   12    7   18      0.82      0.00
  -14    8   18      2.20      0.00
  -13    8   18     -0.12      0.00
  -12    8   18     -1.39      0.00
  -11    8   18     -0.14      0.00
  -10    8   18      0.53      0.00
   -9    8   18     -0.64      0.00
   -8    8   18     -0.80      0.00
   -7    8   18      1.21      0.00
   -6    8   18      0.24      0.00
   -5    8   18      0.00      0.00
   -4    8   18     -0.92      0.00
   -3    8   18     -2.66      0.00
   -2    8   18      3.06      0.00
   -1    8   18     -1.69      0.00
    0    8   18      0.31      0.00
    1    8   18      3.55      0.00
    2    8   18     -2.74      0.00
    3    8   18     -1.21      0.00
    4    8   18     -0.64      0.00
    5    8   18      0.76      0.00
    6    8   18      1.55      0.00
    7    8   18     -1.75      0.00
    8    8   18      1.28      0.00
    9    8   18     -0.77      0.00
   10    8   18      1.13      0.00
   11    8   18     -0.52      0.00
   12    8   18      0.50      0.00
  -13    9   18      0.67      0.00
  -12    9   18     -0.87      0.00
  -11    9   18     -0.31      0.00
  -10    9   18     -0.10      0.00
   -9    9   18     -2.86      0.00
   -8    9   18      0.20      0.00
   -7    9   18      0.18      0.00
   -6    9   18     -2.99      0.00
   -5    9   18      3.00      0.00
   -4    9   18      0.27      0.00
   -3    9   18     -2.30      0.00
   -2    9   18     -0.23      0.00
   -1    9   18      2.01      0.00
    0    9   18      0.91      0.00
    1    9   18     -2.79      0.00
    2    9   18      0.50      0.00
    3    9   18      1.70      0.00
    4    9   18     -2.86      0.00
    5    9   18      0.84      0.00
    6    9   18      0.40      0.00
    7    9   18     -0.98      0.00
    8    9   18     -0.56      0.00
    9    9   18      0.59      0.00
   10    9   18      0.97      0.00
   11    9   18     -1.24      0.00
  -13   10   18     -0.03      0.00
  -12   10   18     -0.80      0.00
  -11   10   18     -1.16      0.00
  -10   10   18     -0.44      0.00
   -9   10   18     -2.17      0.00
   -8   10   18     -0.24      0.00
   -7   10   18      0.68      0.00
   -6   10   18     -0.29      0.00
   -5   10   18      1.75      0.00
   -4   10   18     -0.18      0.00
   -3   10   18     -1.04      0.00
   -2   10   18      1.26      0.00
   -1   10   18      1.10      0.00
    0   10   18     -2.27      0.00
    1   10   18     -1.93      0.00
    2   10   18     -1.13      0.00
    3   10   18     -0.09      0.00
    4   10   18      2.08      0.00
    5   10   18      1.67      0.00
    6   10   18     -1.73      0.00
    7   10   18     -0.72      0.00
    8   10   18      0.48      0.00
    9   10   18      0.94      0.00
   10   10   18      0.08      0.00
   11   10   18     -1.30      0.00
  -12   11   18     -0.74      0.00
  -11   11   18     -0.29      0.00
  -10   11   18     -0.28      0.00
   -9   11   18     -0.42      0.00
   -8   11   18      1.36      0.00
   -7   11   18      0.84      0.00
   -6   11   18     -0.98      0.00
   -5   11   18      0.62      0.00
   -4   11   18      1.43      0.00
   -3   11   18     -0.02      0.00
   -2   11   18     -0.71      0.00
   -1   11   18      0.08      0.00
    0   11   18     -0.71      0.00
    1   11   18      0.30      0.00
    2   11   18      1.02      0.00
    3   11   18      1.97      0.00
    4   11   18      0.75      0.00
    5   11   18     -1.44      0.00
    6   11   18      0.57      0.00
    7   11   18      0.79      0.00
    8   11   18     -0.85      0.00
    9   11   18      0.24      0.00
   10   11   18     -0.02      0.00
  -11   12   18     -0.33      0.00
  -10   12   18     -0.29      0.00
   -9   12   18     -0.01      0.00
   -8   12   18     -0.39      0.00
   -7   12   18     -0.30      0.00
   -6   12   18     -0.13      0.00
   -5   12   18      0.81      0.00
   -4   12   18      0.46      0.00
   -3   12   18     -2.11      0.00
   -2   12   18      0.10      0.00
   -1   12   18     -1.14      0.00
    0   12   18      0.58      0.00
    1   12   18      0.50      0.00
    2   12   18     -2.16      0.00
    3   12   18     -0.24      0.00
    4   12   18      1.76      0.00
    5   12   18     -0.24      0.00
    6   12   18      0.30      0.00
    7   12   18     -0.71      0.00
    8   12   18     -0.64      0.00
    9   12   18      0.65      0.00
  -10   13   18      0.30      0.00
   -9   13   18     -0.33      0.00
   -8   13   18      0.15      0.00
   -7   13   18      0.91      0.00
   -6   13   18      0.24      0.00
   -5   13   18     -0.42      0.00
   -4   13   18     -1.10      0.00
   -3   13   18      0.91      0.00
   -2   13   18     -0.23      0.00
   -1   13   18     -1.01      0.00
    0   13   18      1.13      0.00
    1   13   18      0.67      0.00
    2   13   18     -1.48      0.00
    3   13   18      0.63      0.00
    4   13   18      0.28      0.00
    5   13   18     -1.15      0.00
    6   13   18      0.08      0.00
    7   13   18     -0.56      0.00
    8   13   18      0.38      0.00
   -9   14   18     -0.57      0.00
   -8   14   18      0.41      0.00
   -7   14   18      0.51      0.00
   -6   14   18     -0.53      0.00
   -5   14   18     -0.50      0.00
   -4   14   18      0.22      0.00
   -3   14   18      0.73      0.00
   -2   14   18     -0.57      0.00
   -1   14   18      0.70      0.00
    0   14   18      1.16      0.00
    1   14   18     -1.11      0.00
    2   14   18     -1.68      0.00
    3   14   18      0.24      0.00
    4   14   18      0.20      0.00
    5   14   18      0.88      0.00
    6   14   18     -0.29      0.00
    7   14   18      1.62      0.00
   -8   15   18     -0.50      0.00
   -7   15   18      0.39      0.00
   -6   15   18     -0.38      0.00
   -5   15   18     -0.58      0.00
   -4   15   18      2.15      0.00
   -3   15   18      0.22      0.00
   -2   15   18      0.75      0.00
   -1   15   18      0.71      0.00
    0   15   18     -1.96      0.00
    1   15   18     -0.56      0.00
    2   15   18      0.51      0.00
    3   15   18     -0.03      0.00
    4   15   18      0.22      0.00
    5   15   18      0.52      0.00
    6   15   18      0.15      0.00
   -6   16   18     -0.87      0.00
   -5   16   18      2.38      0.00
   -4   16   18      0.92      0.00
   -3   16   18     -0.21      0.00
   -2   16   18     -1.05      0.00
   -1   16   18     -1.17      0.00
    0   16   18      0.67      0.00
    1   16   18      0.19      0.00
    2   16   18      0.31      0.00
    3   16   18     -0.39      0.00
    4   16   18     -0.38      0.00
   -3   17   18     -1.82      0.00
   -2   17   18     -0.76      0.00
   -1   17   18      1.50      0.00
    0   17   18     -0.41      0.00
    1   17   18     -1.06      0.00
  -15    0   19     -1.67      0.00
  -13    0   19      1.77      0.00
  -11    0   19     -2.14      0.00
   -9    0   19      2.09      0.00
   -7    0   19      1.02      0.00
   -5    0   19     -0.01      0.00
   -3    0   19      2.48      0.00
   -1    0   19     -7.29      0.00
    1    0   19      0.63      0.00
    3    0   19      1.34      0.00
    5    0   19      0.90      0.00
    7    0   19     -0.12      0.00
    9    0   19     -1.06      0.00
   11    0   19     -0.74      0.00
   13    0   19      2.74      0.00
  -15    1   19      0.33      0.00
  -14    1   19      1.40      0.00
  -13    1   19     -1.15      0.00
  -12    1   19      2.48      0.00
  -11    1   19     -1.63      0.00
  -10    1   19     -0.39      0.00
   -9    1   19     -0.37      0.00
   -8    1   19      0.00      0.00
   -7    1   19     -0.71      0.00
   -6    1   19     -0.13      0.00
   -5    1   19      2.09      0.00
   -4    1   19     -0.22      0.00
   -3    1   19     -0.70      0.00
   -2    1   19     -3.01      0.00
   -1    1   19     -0.16      0.00
    0    1   19      1.00      0.00
    1    1   19      0.31      0.00
    2    1   19      2.11      0.00
    3    1   19      0.67      0.00
    4    1   19      0.21      0.00
    5    1   19      1.22      0.00
    6    1   19     -0.12      0.00
    7    1   19     -1.18      0.00
    8    1   19     -0.56      0.00
    9    1   19     -0.03      0.00
   10    1   19      0.85      0.00
   11    1   19     -0.69      0.00
   12    1   19     -0.28      0.00
   13    1   19      1.51      0.00
  -15    2   19      0.39      0.00
  -14    2   19     -1.36      0.00
  -13    2   19      1.26      0.00
  -12    2   19      3.06      0.00
  -11    2   19     -3.20      0.00
  -10    2   19     -3.13      0.00
   -9    2   19      2.12      0.00
   -8    2   19      1.02      0.00
   -7    2   19      0.86      0.00
   -6    2   19     -1.04      0.00
   -5    2   19     -4.17      0.00
   -4    2   19      2.23      0.00
   -3    2   19      0.90      0.00
   -2    2   19      0.71      0.00
   -1    2   19      2.28      0.00
    0    2   19     -3.28      0.00
    1    2   19      1.08      0.00
    2    2   19     -0.10      0.00
    3    2   19     -0.01      0.00
    4    2   19      1.49      0.00
    5    2   19     -1.03      0.00
    6    2   19     -1.08      0.00
    7    2   19     -0.01      0.00
    8    2   19     -0.64      0.00
    9    2   19     -0.80      0.00
   10    2   19      0.47      0.00
   11    2   19     -0.82      0.00
   12    2   19     -0.09      0.00
   13    2   19      0.18      0.00
  -15    3   19      0.07      0.00
  -14    3   19     -0.36      0.00
  -13    3   19      1.34      0.00
  -12    3   19      0.49      0.00
  -11    3   19     -1.23      0.00
  -10    3   19      1.92      0.00
   -9    3   19      1.55      0.00
   -8    3   19     -2.99      0.00
   -7    3   19      1.69      0.00
   -6    3   19     -1.68      0.00
   -5    3   19      0.20      0.00
   -4    3   19      4.78      0.00
   -3    3   19     -1.29      0.00
   -2    3   19      3.11      0.00
   -1    3   19     -0.82      0.00
    0    3   19     -2.84      0.00
    1    3   19      0.69      0.00
    2    3   19     -0.36      0.00
    3    3   19      1.73      0.00
    4    3   19     -0.33      0.00
    5    3   19     -0.22      0.00
    6    3   19      0.71      0.00
    7    3   19     -0.99      0.00
    8    3   19     -0.43      0.00
    9    3   19     -0.13      0.00
   10    3   19      1.95      0.00
   11    3   19     -0.26      0.00
   12    3   19     -1.45      0.00
   13    3   19     -0.50      0.00
  -15    4   19     -2.09      0.00
  -14    4   19     -0.38      0.00
  -13    4   19     -0.82      0.00
  -12    4   19      1.30      0.00
  -11    4   19      1.27      0.00
  -10    4   19     -1.34      0.00
   -9    4   19     -1.88      0.00
   -8    4   19      1.78      0.00
   -7    4   19      3.65      0.00
   -6    4   19     -2.92      0.00
   -5    4   19     -1.68      0.00
   -4    4   19      1.61      0.00
   -3    4   19      0.77      0.00
   -2    4   19     -1.48      0.00
   -1    4   19      0.78      0.00
    0    4   19     -0.74      0.00
    1    4   19     -1.66      0.00
    2    4   19      0.51      0.00
    3    4   19      1.99      0.00
    4    4   19      0.90      0.00
    5    4   19     -0.75      0.00
    6    4   19     -2.16      0.00
    7    4   19      1.54      0.00
    8    4   19      0.10      0.00
    9    4   19      0.49      0.00
   10    4   19      0.09      0.00
   11    4   19      0.08      0.00
   12    4   19     -0.11      0.00
  -14    5   19      0.80      0.00
  -13    5   19     -0.79      0.00
  -12    5   19      1.14      0.00
  -11    5   19      0.57      0.00
  -10    5   19     -0.38      0.00
   -9    5   19      1.06      0.00
   -8    5   19     -1.21      0.00
   -7    5   19     -2.01      0.00
   -6    5   19     -0.21      0.00
   -5    5   19     -0.80      0.00
   -4    5   19      1.71      0.00
   -3    5   19     -1.03      0.00
   -2    5   19     -0.17      0.00
   -1    5   19      0.23      0.00
    0    5   19     -0.98      0.00
    1    5   19      2.15      0.00
    2    5   19      0.66      0.00
    3    5   19     -0.19      0.00
    4    5   19     -2.05      0.00
    5    5   19     -1.02      0.00
    6    5   19      1.93      0.00
    7    5   19      1.33      0.00
    8    5   19      0.83      0.00
    9    5   19     -0.81      0.00
   10    5   19      0.29      0.00
   11    5   19      2.33      0.00
   12    5   19     -1.26      0.00
  -14    6   19     -0.46      0.00
  -13    6   19     -2.32      0.00
  -12    6   19      2.08      0.00
  -11    6   19     -0.41      0.00
  -10    6   19     -2.04      0.00
   -9    6   19     -0.74      0.00
   -8    6   19     -1.06      0.00
   -7    6   19      1.82      0.00
   -6    6   19      2.98      0.00
   -5    6   19     -1.86      0.00
   -4    6   19     -0.18      0.00
   -3    6   19     -0.92      0.00
   -2    6   19     -4.21      0.00
   -1    6   19      2.26      0.00
    0    6   19      6.41      0.00
    1    6   19     -1.75      0.00
    2    6   19     -2.85      0.00
    3    6   19      0.08      0.00
    4    6   19     -0.07      0.00
    5    6   19      0.24      0.00
    6    6   19     -0.51      0.00
    7    6   19      0.96      0.00
    8    6   19      0.33      0.00
    9    6   19     -1.79      0.00
   10    6   19      1.78      0.00
   11    6   19     -0.56      0.00
   12    6   19     -0.03      0.00
  -14    7   19     -0.77      0.00
  -13    7   19     -0.51      0.00
  -12    7   19     -0.82      0.00
  -11    7   19     -1.68      0.00
  -10    7   19      0.57      0.00
   -9    7   19      2.71      0.00
   -8    7   19     -1.28      0.00
   -7    7   19      0.54      0.00
   -6    7   19      2.18      0.00
   -5    7   19     -4.20      0.00
   -4    7   19     -2.23      0.00
   -3    7   19     -0.62      0.00
   -2    7   19      3.08      0.00
   -1    7   19      3.73      0.00
    0    7   19     -0.39      0.00
    1    7   19     -1.55      0.00
    2    7   19     -0.83      0.00
    3    7   19     -0.94      0.00
    4    7   19     -1.04      0.00
    5    7   19      0.70      0.00
    6    7   19      1.41      0.00
    7    7   19      0.41      0.00
    8    7   19      0.01      0.00
    9    7   19     -0.73      0.00
   10    7   19     -0.55      0.00
   11    7   19      0.12      0.00
   12    7   19      0.02      0.00
  -13    8   19     -2.60      0.00
  -12    8   19     -0.62      0.00
  -11    8   19      0.50      0.00
  -10    8   19      0.92      0.00
   -9    8   19     -1.80      0.00
   -8    8   19     -1.78      0.00
   -7    8   19      1.20      0.00
   -6    8   19     -0.17      0.00
   -5    8   19     -0.17      0.00
   -4    8   19     -0.56      0.00
   -3    8   19      4.19      0.00
   -2    8   19     -0.31      0.00
   -1    8   19     -2.82      0.00
    0    8   19      2.29      0.00
    1    8   19     -2.18      0.00
    2    8   19     -2.17      0.00
    3    8   19      1.90      0.00
    4    8   19      1.09      0.00
    5    8   19      0.54      0.00
    6    8   19     -3.54      0.00
    7    8   19     -0.27      0.00
    8    8   19     -0.09      0.00
    9    8   19     -0.19      0.00
   10    8   19     -0.78      0.00
   11    8   19      0.24      0.00
  -13    9   19     -0.88      0.00
  -12    9   19     -0.64      0.00
  -11    9   19      0.38      0.00
  -10    9   19     -2.64      0.00
   -9    9   19     -1.24      0.00
   -8    9   19      2.39      0.00
   -7    9   19     -0.38      0.00
   -6    9   19      2.55      0.00
   -5    9   19      0.47      0.00
   -4    9   19     -2.37      0.00
   -3    9   19      1.18      0.00
   -2    9   19     -0.54      0.00
   -1    9   19      0.23      0.00
    0    9   19     -2.69      0.00
    1    9   19     -1.21      0.00
    2    9   19      1.81      0.00
    3    9   19     -0.95      0.00
    4    9   19     -0.03      0.00
    5    9   19     -0.37      0.00
    6    9   19     -1.44      0.00
    7    9   19      0.12      0.00
    8    9   19      0.94      0.00
    9    9   19      1.16      0.00
   10    9   19     -2.09      0.00
   11    9   19      0.45      0.00
  -12   10   19     -0.50      0.00
  -11   10   19     -0.26      0.00
  -10   10   19     -1.07      0.00
   -9   10   19      1.01      0.00
   -8   10   19      3.72      0.00
   -7   10   19     -0.15      0.00
   -6   10   19      0.54      0.00
   -5   10   19     -0.07      0.00
   -4   10   19     -1.11      0.00
   -3   10   19      0.47      0.00
   -2   10   19      0.61      0.00
   -1   10   19     -3.17      0.00
    0   10   19     -1.09      0.00
    1   10   19      2.14      0.00
    2   10   19      0.21      0.00
    3   10   19      1.10      0.00
    4   10   19      1.05      0.00
    5   10   19     -1.03      0.00
    6   10   19     -1.35      0.00
    7   10   19     -0.01      0.00
    8   10   19      1.25      0.00
    9   10   19      0.18      0.00
   10   10   19     -1.36      0.00
  -11   11   19      1.66      0.00
  -10   11   19     -0.46      0.00
   -9   11   19      1.54      0.00
   -8   11   19      0.34      0.00
   -7   11   19     -2.91      0.00
   -6   11   19      0.18      0.00
   -5   11   19      0.23      0.00
   -4   11   19     -1.07      0.00
   -3   11   19     -1.32      0.00
   -2   11   19      0.86      0.00
   -1   11   19     -0.50      0.00
    0   11   19      1.24      0.00
    1   11   19      1.29      0.00
    2   11   19     -0.44      0.00
    3   11   19     -1.16      0.00
    4   11   19     -0.13      0.00
    5   11   19      1.29      0.00
    6   11   19      0.31      0.00
    7   11   19     -0.17      0.00
    8   11   19      0.34      0.00
    9   11   19      0.22      0.00
  -11   12   19     -1.16      0.00
  -10   12   19     -0.44      0.00
   -9   12   19     -1.43      0.00
   -8   12   19     -1.30      0.00
   -7   12   19      0.28      0.00
   -6   12   19      1.21      0.00
   -5   12   19      0.34      0.00
   -4   12   19     -1.52      0.00
   -3   12   19      0.25      0.00
   -2   12   19      1.22      0.00
   -1   12   19     -1.04      0.00
    0   12   19      0.95      0.00
    1   12   19     -0.64      0.00
    2   12   19     -1.33      0.00
    3   12   19      1.19      0.00
    4   12   19      0.64      0.00
    5   12   19     -0.33      0.00
    6   12   19     -0.21      0.00
    7   12   19     -0.42      0.00
    8   12   19     -0.24      0.00
    9   12   19     -0.30      0.00
  -10   13   19     -0.42      0.00
   -9   13   19      0.06      0.00
   -8   13   19      0.15      0.00
   -7   13   19      1.53      0.00
   -6   13   19      0.30      0.00
   -5   13   19     -0.27      0.00
   -4   13   19      0.38      0.00
   -3   13   19      1.12      0.00
   -2   13   19     -0.87      0.00
   -1   13   19      1.55      0.00
    0   13   19      0.97      0.00
    1   13   19     -2.21      0.00
    2   13   19     -1.31      0.00
    3   13   19      1.44      0.00
    4   13   19      0.27      0.00
    5   13   19      0.85      0.00
    6   13   19      0.42      0.00
    7   13   19      0.18      0.00
    8   13   19     -0.53      0.00
   -8   14   19      0.91      0.00
   -7   14   19      0.11      0.00
   -6   14   19      0.37      0.00
   -5   14   19      0.44      0.00
   -4   14   19      0.83      0.00
   -3   14   19     -0.23      0.00
   -2   14   19     -0.04      0.00
   -1   14   19      0.14      0.00
    0   14   19     -1.40      0.00
    1   14   19     -2.85      0.00
    2   14   19      1.41      0.00
    3   14   19      2.80      0.00
    4   14   19     -0.06      0.00
    5   14   19     -0.06      0.00
    6   14   19      0.37      0.00
   -7   15   19      0.54      0.00
   -6   15   19      0.86      0.00
   -5   15   19      1.85      0.00
   -4   15   19      0.34      0.00
   -3   15   19     -0.58      0.00
   -2   15   19     -0.71      0.00
   -1   15   19     -0.69      0.00
    0   15   19     -0.45      0.00
    1   15   19      0.30      0.00
    2   15   19      1.26      0.00
    3   15   19      0.35      0.00
    4   15   19     -0.43      0.00
    5   15   19      0.21      0.00
   -5   16   19     -0.71      0.00
   -4   16   19     -2.31      0.00
   -3   16   19     -0.82      0.00
   -2   16   19     -1.24      0.00
   -1   16   19      0.67      0.00
    0   16   19      1.48      0.00
    1   16   19     -0.53      0.00
    2   16   19      0.92      0.00
    3   16   19      0.13      0.00
  -14    0   20      2.58      0.00
  -12    0   20     -2.91      0.00
  -10    0   20      2.13      0.00
   -8    0   20     -0.07      0.00
   -6    0   20     -1.74      0.00
   -4    0   20      0.31      0.00
   -2    0   20     -3.68      0.00
    0    0   20      5.38      0.00
    2    0   20     -1.24      0.00
    4    0   20      0.09      0.00
    6    0   20     -0.18      0.00
    8    0   20     -0.83      0.00
   10    0   20      0.30      0.00
   12    0   20      1.39      0.00
  -14    1   20     -0.99      0.00
  -13    1   20      0.02      0.00
  -12    1   20     -1.11      0.00
  -11    1   20     -0.80      0.00
  -10    1   20     -0.12      0.00
   -9    1   20     -1.16      0.00
   -8    1   20      2.03      0.00
   -7    1   20      0.03      0.00
   -6    1   20     -0.74      0.00
   -5    1   20     -0.22      0.00
   -4    1   20     -0.06      0.00
   -3    1   20      2.40      0.00
   -2    1   20     -1.45      0.00
   -1    1   20      1.10      0.00
    0    1   20      1.48      0.00
    1    1   20     -2.06      0.00
    2    1   20      0.98      0.00
    3    1   20      0.03      0.00
    4    1   20     -0.79      0.00
    5    1   20      0.62      0.00
    6    1   20     -1.30      0.00
    7    1   20     -0.69      0.00
    8    1   20      0.37      0.00
    9    1   20      0.02      0.00
   10    1   20     -1.02      0.00
   11    1   20     -0.46      0.00
   12    1   20      1.48      0.00
  -14    2   20      0.25      0.00
  -13    2   20      3.03      0.00
  -12    2   20     -0.79      0.00
  -11    2   20     -0.91      0.00
  -10    2   20      2.23      0.00
   -9    2   20      2.17      0.00
   -8    2   20     -0.92      0.00
   -7    2   20     -1.39      0.00
   -6    2   20     -1.09      0.00
   -5    2   20      1.37      0.00
   -4    2   20      4.62      0.00
   -3    2   20     -0.53      0.00
   -2    2   20     -2.31      0.00
   -1    2   20     -2.13      0.00
    0    2   20     -1.06      0.00
    1    2   20      0.89      0.00
    2    2   20      1.41      0.00
    3    2   20      0.24      0.00
    4    2   20      0.21      0.00
    5    2   20     -0.44      0.00
    6    2   20     -0.48      0.00
    7    2   20     -0.18      0.00
    8    2   20     -0.94      0.00
    9    2   20      0.04      0.00
   10    2   20      0.51      0.00
   11    2   20      0.69      0.00
   12    2   20      1.18      0.00
  -14    3   20      0.17      0.00
  -13    3   20      1.56      0.00
  -12    3   20      0.47      0.00
  -11    3   20     -1.20      0.00
  -10    3   20      1.37      0.00
   -9    3   20     -4.79      0.00
   -8    3   20     -1.11      0.00
   -7    3   20      3.59      0.00
   -6    3   20     -0.49      0.00
   -5    3   20      2.39      0.00
   -4    3   20     -1.68      0.00
   -3    3   20     -1.08      0.00
   -2    3   20      0.55      0.00
   -1    3   20     -3.13      0.00
    0    3   20      2.04      0.00
    1    3   20      2.48      0.00
    2    3   20      0.79      0.00
    3    3   20      0.10      0.00
    4    3   20     -0.76      0.00
    5    3   20      0.49      0.00
    6    3   20     -0.83      0.00
    7    3   20     -0.53      0.00
    8    3   20      0.49      0.00
    9    3   20      1.84      0.00
   10    3   20      0.07      0.00
   11    3   20     -0.54      0.00
   12    3   20      0.18      0.00
  -14    4   20     -0.59      0.00
  -13    4   20      1.21      0.00
  -12    4   20     -0.17      0.00
  -11    4   20     -2.29      0.00
  -10    4   20     -0.47      0.00
   -9    4   20     -1.38      0.00
   -8    4   20      3.04      0.00
   -7    4   20     -1.16      0.00
   -6    4   20     -2.89      0.00
   -5    4   20      1.70      0.00
   -4    4   20     -0.56      0.00
   -3    4   20     -1.13      0.00
   -2    4   20      1.26      0.00
   -1    4   20      0.94      0.00
    0    4   20     -0.40      0.00
    1    4   20      0.54      0.00
    2    4   20     -0.33      0.00
    3    4   20     -0.74      0.00
    4    4   20     -0.64      0.00
    5    4   20     -1.32      0.00
    6    4   20      1.37      0.00
    7    4   20      1.17      0.00
    8    4   20     -0.39      0.00
    9    4   20      1.03      0.00
   10    4   20      0.10      0.00
   11    4   20      0.28      0.00
   12    4   20     -0.58      0.00
  -14    5   20     -0.95      0.00
  -13    5   20      0.23      0.00
  -12    5   20     -0.37      0.00
  -11    5   20     -0.16      0.00
  -10    5   20      0.13      0.00
   -9    5   20     -1.77      0.00
   -8    5   20      0.36      0.00
   -7    5   20      1.09      0.00
   -6    5   20      1.28      0.00
   -5    5   20      1.24      0.00
   -4    5   20     -2.76      0.00
   -3    5   20     -0.40      0.00
   -2    5   20      4.99      0.00
   -1    5   20     -2.19      0.00
    0    5   20      0.21      0.00
    1    5   20     -0.55      0.00
    2    5   20     -3.32      0.00
    3    5   20     -0.44      0.00
    4    5   20      0.84      0.00
    5    5   20      1.85      0.00
    6    5   20      1.28      0.00
    7    5   20     -0.94      0.00
    8    5   20     -0.12      0.00
    9    5   20     -0.04      0.00
   10    5   20      1.63      0.00
   11    5   20     -2.45      0.00
   12    5   20     -0.89      0.00
  -13    6   20      0.35      0.00
  -12    6   20      0.50      0.00
  -11    6   20     -0.43      0.00
  -10    6   20      0.33      0.00
   -9    6   20      1.42      0.00
   -8    6   20      1.81      0.00
   -7    6   20      0.14      0.00
   -6    6   20     -2.35      0.00
   -5    6   20     -1.45      0.00
   -4    6   20     -0.55      0.00
   -3    6   20      0.26      0.00
   -2    6   20      1.84      0.00
   -1    6   20      2.43      0.00
    0    6   20     -3.16      0.00
    1    6   20     -4.42      0.00
    2    6   20      1.85      0.00
    3    6   20      1.39      0.00
    4    6   20      0.18      0.00
    5    6   20     -0.60      0.00
    6    6   20     -0.21      0.00
    7    6   20      1.19      0.00
    8    6   20     -1.78      0.00
    9    6   20      0.48      0.00
   10    6   20     -0.33      0.00
   11    6   20     -2.06      0.00
  -13    7   20     -0.06      0.00
  -12    7   20     -0.25      0.00
  -11    7   20      1.13      0.00
  -10    7   20      1.51      0.00
   -9    7   20     -0.66      0.00
   -8    7   20     -2.41      0.00
   -7    7   20      1.21      0.00
   -6    7   20     -1.07      0.00
   -5    7   20      0.27      0.00
   -4    7   20      2.27      0.00
   -3    7   20      0.62      0.00
   -2    7   20      2.21      0.00
   -1    7   20     -2.53      0.00
    0    7   20     -4.09      0.00
    1    7   20      2.33      0.00
    2    7   20      1.09      0.00
    3    7   20     -1.97      0.00
    4    7   20      0.37      0.00
    5    7   20      0.33      0.00
    6    7   20     -0.84      0.00
    7    7   20     -0.66      0.00
    8    7   20     -1.90      0.00
    9    7   20     -0.13      0.00
   10    7   20     -0.39      0.00
   11    7   20      0.84      0.00
  -13    8   20     -0.60      0.00
  -12    8   20      1.23      0.00
  -11    8   20     -0.07      0.00
  -10    8   20     -0.94      0.00
   -9    8   20     -1.17      0.00
   -8    8   20      1.85      0.00
   -7    8   20      2.59      0.00
   -6    8   20     -0.93      0.00
   -5    8   20     -0.06      0.00
   -4    8   20      0.77      0.00
   -3    8   20     -1.50      0.00
   -2    8   20     -2.88      0.00
   -1    8   20      1.43      0.00
    0    8   20     -0.47      0.00
    1    8   20     -1.37      0.00
    2    8   20      1.79      0.00
    3    8   20      0.21      0.00
    4    8   20     -0.99      0.00
    5    8   20     -3.13      0.00
    6    8   20      0.19      0.00
    7    8   20      1.84      0.00
    8    8   20      0.08      0.00
    9    8   20     -0.11      0.00
   10    8   20      0.54      0.00
  -12    9   20      0.09      0.00
  -11    9   20     -1.78      0.00
  -10    9   20     -0.71      0.00
   -9    9   20      3.07      0.00
   -8    9   20      1.99      0.00
   -7    9   20      0.42      0.00
   -6    9   20     -0.98      0.00
   -5    9   20     -2.81      0.00
   -4    9   20      1.59      0.00
   -3    9   20     -1.53      0.00
   -2    9   20      0.05      0.00
   -1    9   20      0.07      0.00
    0    9   20     -2.16      0.00
    1    9   20      1.51      0.00
    2    9   20      0.76      0.00
    3    9   20     -0.56      0.00
    4    9   20      0.12      0.00
    5    9   20     -0.24      0.00
    6    9   20      1.00      0.00
    7    9   20      0.22      0.00
    8    9   20      0.51      0.00
    9    9   20     -1.05      0.00
   10    9   20      0.11      0.00
  -11   10   20     -0.15      0.00
  -10   10   20      0.89      0.00
   -9   10   20      2.72      0.00
   -8   10   20     -0.78      0.00
   -7   10   20     -2.01      0.00
   -6   10   20     -1.42      0.00
   -5   10   20     -0.60      0.00
   -4   10   20     -0.01      0.00
   -3   10   20      0.23      0.00
   -2   10   20     -0.26      0.00
   -1   10   20      0.82      0.00
    0   10   20      3.04      0.00
    1   10   20     -0.48      0.00
    2   10   20      0.23      0.00
    3   10   20      1.46      0.00
    4   10   20     -0.47      0.00
    5   10   20     -0.38      0.00
    6   10   20     -0.31      0.00
    7   10   20      0.91      0.00
    8   10   20      0.59      0.00
    9   10   20     -1.37      0.00
  -11   11   20     -1.12      0.00
  -10   11   20     -1.50      0.00
   -9   11   20      0.24      0.00
   -8   11   20     -2.57      0.00
   -7   11   20      0.11      0.00
   -6   11   20      1.98      0.00
   -5   11   20     -0.69      0.00
   -4   11   20      0.56      0.00
   -3   11   20      1.70      0.00
   -2   11   20      0.48      0.00
   -1   11   20      0.25      0.00
    0   11   20      0.40      0.00
    1   11   20     -2.16      0.00
    2   11   20     -0.63      0.00
    3   11   20      0.78      0.00
    4   11   20      1.98      0.00
    5   11   20     -0.74      0.00
    6   11   20     -1.21      0.00
    7   11   20      0.13      0.00
    8   11   20     -0.58      0.00
    9   11   20     -0.41      0.00
  -10   12   20      0.23      0.00
   -9   12   20      0.43      0.00
   -8   12   20      1.26      0.00
   -7   12   20      2.33      0.00
   -6   12   20      0.29      0.00
   -5   12   20     -0.06      0.00
   -4   12   20     -0.54      0.00
   -3   12   20      1.81      0.00
   -2   12   20     -1.32      0.00
   -1   12   20     -0.47      0.00
    0   12   20      0.93      0.00
    1   12   20     -0.97      0.00
    2   12   20      0.11      0.00
    3   12   20      1.77      0.00
    4   12   20     -0.03      0.00
    5   12   20     -0.86      0.00
    6   12   20      0.13      0.00
    7   12   20     -0.58      0.00
    8   12   20     -0.34      0.00
   -9   13   20      0.26      0.00
   -8   13   20      1.10      0.00
   -7   13   20      0.77      0.00
   -6   13   20     -0.38      0.00
   -5   13   20     -0.26      0.00
   -4   13   20     -0.67      0.00
   -3   13   20     -0.26      0.00
   -2   13   20     -0.18      0.00
   -1   13   20      0.13      0.00
    0   13   20     -1.12      0.00
    1   13   20     -1.69      0.00
    2   13   20      1.60      0.00
    3   13   20      1.72      0.00
    4   13   20      0.26      0.00
    5   13   20     -0.92      0.00
    6   13   20     -0.83      0.00
    7   13   20     -0.52      0.00
   -8   14   20      1.10      0.00
   -7   14   20      0.22      0.00
   -6   14   20      0.09      0.00
   -5   14   20     -0.16      0.00
   -4   14   20     -0.34      0.00
   -3   14   20      0.46      0.00
   -2   14   20     -0.05      0.00
   -1   14   20      0.08      0.00
    0   14   20     -1.44      0.00
    1   14   20      0.71      0.00
    2   14   20      2.71      0.00
    3   14   20     -0.29      0.00
    4   14   20     -1.35      0.00
    5   14   20      0.18      0.00
   -6   15   20      0.09      0.00
   -5   15   20     -0.68      0.00
   -4   15   20     -0.65      0.00
   -3   15   20     -1.02      0.00
   -2   15   20      0.17      0.00
   -1   15   20      0.55      0.00
    0   15   20     -0.75      0.00
    1   15   20      1.27      0.00
    2   15   20      1.45      0.00
    3   15   20     -0.78      0.00
    4   15   20      0.53      0.00
   -3   16   20     -0.25      0.00
   -2   16   20      0.38      0.00
   -1   16   20      1.42      0.00
    0   16   20     -0.65      0.00
  -13    0   21     -2.34      0.00
  -11    0   21      0.00      0.00
   -9    0   21     -0.25      0.00
   -7    0   21     -0.57      0.00
   -5    0   21      1.72      0.00
   -3    0   21     -0.65      0.00
   -1    0   21      1.84      0.00
    1    0   21     -2.45      0.00
    3    0   21      1.52      0.00
    5    0   21     -0.28      0.00
    7    0   21     -1.46      0.00
    9    0   21      0.78      0.00
   11    0   21     -0.05      0.00
  -14    1   21      0.34      0.00
  -13    1   21      0.49      0.00
  -12    1   21     -0.23      0.00
  -11    1   21      1.00      0.00
  -10    1   21     -0.43      0.00
   -9    1   21      2.36      0.00
   -8    1   21      2.12      0.00
   -7    1   21     -2.81      0.00
   -6    1   21      0.15      0.00
   -5    1   21      1.03      0.00
   -4    1   21      1.27      0.00
   -3    1   21     -1.71      0.00
   -2    1   21     -3.14      0.00
   -1    1   21      1.42      0.00
    0    1   21     -0.94      0.00
    1    1   21     -0.98      0.00
    2    1   21      2.61      0.00
    3    1   21     -2.56      0.00
    4    1   21      0.28      0.00
    5    1   21      0.08      0.00
    6    1   21     -1.40      0.00
    7    1   21      0.23      0.00
    8    1   21      0.08      0.00
    9    1   21     -0.28      0.00
   10    1   21      0.31      0.00
   11    1   21      1.02      0.00
   12    1   21      0.67      0.00
  -14    2   21      1.99      0.00
  -13    2   21     -0.03      0.00
  -12    2   21     -0.27      0.00
  -11    2   21      0.66      0.00
  -10    2   21     -1.00      0.00
   -9    2   21     -1.22      0.00
   -8    2   21     -0.60      0.00
   -7    2   21     -0.17      0.00
   -6    2   21      1.76      0.00
   -5    2   21      0.84      0.00
   -4    2   21     -0.89      0.00
   -3    2   21     -4.30      0.00
   -2    2   21     -0.27      0.00
   -1    2   21      3.61      0.00
    0    2   21      0.15      0.00
    1    2   21      3.36      0.00
    2    2   21      0.25      0.00
    3    2   21     -0.64      0.00
    4    2   21      1.33      0.00
    5    2   21     -1.00      0.00
    6    2   21     -0.03      0.00
    7    2   21      0.47      0.00
    8    2   21      0.01      0.00
    9    2   21      1.62      0.00
   10    2   21      1.22      0.00
   11    2   21      0.38      0.00
   12    2   21     -0.69      0.00
  -14    3   21      0.14      0.00
  -13    3   21     -0.25      0.00
  -12    3   21     -3.14      0.00
  -11    3   21     -0.80      0.00
  -10    3   21     -2.25      0.00
   -9    3   21     -0.94      0.00
   -8    3   21      4.99      0.00
   -7    3   21      0.67      0.00
   -6    3   21     -2.79      0.00
   -5    3   21     -1.29      0.00
   -4    3   21      0.23      0.00
   -3    3   21      1.86      0.00
   -2    3   21     -0.15      0.00
   -1    3   21      1.34      0.00
    0    3   21      1.45      0.00
    1    3   21     -1.34      0.00
    2    3   21     -2.14      0.00
    3    3   21     -0.62      0.00
    4    3   21      0.65      0.00
    5    3   21     -1.09      0.00
    6    3   21     -0.11      0.00
    7    3   21      0.77      0.00
    8    3   21      0.46      0.00
    9    3   21     -0.29      0.00
   10    3   21     -0.50      0.00
   11    3   21     -0.15      0.00
  -13    4   21      0.81      0.00
  -12    4   21     -2.23      0.00
  -11    4   21      2.63      0.00
  -10    4   21      0.42      0.00
   -9    4   21      0.13      0.00
   -8    4   21      1.61      0.00
   -7    4   21     -2.05      0.00
   -6    4   21      0.18      0.00
   -5    4   21      1.44      0.00
   -4    4   21      0.28      0.00
   -3    4   21      0.33      0.00
   -2    4   21      0.28      0.00
   -1    4   21     -1.31      0.00
    0    4   21     -1.84      0.00
    1    4   21     -1.43      0.00
    2    4   21     -0.26      0.00
    3    4   21      1.37      0.00
    4    4   21     -0.15      0.00
    5    4   21      0.50      0.00
    6    4   21      1.20      0.00
    7    4   21     -0.80      0.00
    8    4   21      0.11      0.00
    9    4   21      0.03      0.00
   10    4   21      0.15      0.00
   11    4   21     -0.30      0.00
  -13    5   21      0.02      0.00
  -12    5   21     -0.46      0.00
  -11    5   21      2.79      0.00
  -10    5   21     -1.71      0.00
   -9    5   21     -0.79      0.00
   -8    5   21      2.43      0.00
   -7    5   21     -0.05      0.00
   -6    5   21     -0.71      0.00
   -5    5   21     -1.32      0.00
   -4    5   21     -0.63      0.00
   -3    5   21      5.19      0.00
   -2    5   21     -3.76      0.00
   -1    5   21     -4.31      0.00
    0    5   21      1.69      0.00
    1    5   21     -2.24      0.00
    2    5   21      0.93      0.00
    3    5   21      2.09      0.00
    4    5   21      0.14      0.00
    5    5   21      0.02      0.00
    6    5   21     -1.82      0.00
    7    5   21     -0.08      0.00
    8    5   21     -0.04      0.00
    9    5   21     -0.18      0.00
   10    5   21     -1.42      0.00
   11    5   21     -0.79      0.00
  -13    6   21      0.73      0.00
  -12    6   21      0.94      0.00
  -11    6   21      1.59      0.00
  -10    6   21     -0.47      0.00
   -9    6   21      0.20      0.00
   -8    6   21     -0.80      0.00
   -7    6   21     -1.94      0.00
   -6    6   21      1.60      0.00
   -5    6   21      0.35      0.00
   -4    6   21      0.91      0.00
   -3    6   21      0.34      0.00
   -2    6   21     -3.18      0.00
   -1    6   21     -0.32      0.00
    0    6   21     -0.67      0.00
    1    6   21      1.88      0.00
    2    6   21      2.27      0.00
    3    6   21     -1.37      0.00
    4    6   21     -1.65      0.00
    5    6   21     -0.62      0.00
    6    6   21      0.95      0.00
    7    6   21     -0.29      0.00
    8    6   21     -0.88      0.00
    9    6   21      0.06      0.00
   10    6   21     -1.56      0.00
   11    6   21      1.34      0.00
  -13    7   21     -0.37      0.00
  -12    7   21      1.00      0.00
  -11    7   21      0.32      0.00
  -10    7   21     -0.44      0.00
   -9    7   21     -0.32      0.00
   -8    7   21     -0.17      0.00
   -7    7   21      1.80      0.00
   -6    7   21      0.39      0.00
   -5    7   21     -0.44      0.00
   -4    7   21     -1.45      0.00
   -3    7   21      0.54      0.00
   -2    7   21      0.29      0.00
   -1    7   21     -2.01      0.00
    0    7   21      3.03      0.00
    1    7   21      1.38      0.00
    2    7   21     -3.39      0.00
    3    7   21     -0.20      0.00
    4    7   21      1.01      0.00
    5    7   21     -1.01      0.00
    6    7   21      0.46      0.00
    7    7   21     -0.28      0.00
    8    7   21      0.36      0.00
    9    7   21      0.23      0.00
   10    7   21      0.60      0.00
  -12    8   21     -0.19      0.00
  -11    8   21     -1.47      0.00
  -10    8   21      1.19      0.00
   -9    8   21      0.73      0.00
   -8    8   21      1.09      0.00
   -7    8   21     -1.20      0.00
   -6    8   21     -1.77      0.00
   -5    8   21     -0.43      0.00
   -4    8   21     -1.24      0.00
   -3    8   21      0.65      0.00
   -2    8   21      1.79      0.00
   -1    8   21     -0.70      0.00
    0    8   21     -1.18      0.00
    1    8   21      0.32      0.00
    2    8   21      0.27      0.00
    3    8   21      0.00      0.00
    4    8   21     -0.82      0.00
    5    8   21      0.74      0.00
    6    8   21      2.70      0.00
    7    8   21     -0.27      0.00
    8    8   21     -0.09      0.00
    9    8   21      0.34      0.00
   10    8   21      0.39      0.00
  -11    9   21     -0.31      0.00
  -10    9   21      2.51      0.00
   -9    9   21      0.97      0.00
   -8    9   21     -0.60      0.00
   -7    9   21     -1.98      0.00
   -6    9   21     -2.16      0.00
   -5    9   21      2.05      0.00
   -4    9   21     -0.09      0.00
   -3    9   21      1.00      0.00
   -2    9   21      2.14      0.00
   -1    9   21     -1.59      0.00
    0    9   21      0.66      0.00
    1    9   21      2.30      0.00
    2    9   21     -0.85      0.00
    3    9   21      0.81      0.00
    4    9   21      0.72      0.00
    5    9   21     -0.22      0.00
    6    9   21     -1.40      0.00
    7    9   21     -1.02      0.00
    8    9   21     -0.15      0.00
    9    9   21      0.08      0.00
  -11   10   21      0.45      0.00
  -10   10   21      0.75      0.00
   -9   10   21     -0.20      0.00
   -8   10   21     -0.93      0.00
   -7   10   21     -0.76      0.00
   -6   10   21      0.94      0.00
   -5   10   21      1.79      0.00
   -4   10   21      0.23      0.00
   -3   10   21      1.47      0.00
   -2   10   21      1.10      0.00
   -1   10   21      0.45      0.00
    0   10   21     -1.27      0.00
    1   10   21     -0.93      0.00
    2   10   21      0.95      0.00
    3   10   21     -1.03      0.00
    4   10   21     -0.62      0.00
    5   10   21     -0.53      0.00
    6   10   21      0.19      0.00
    7   10   21      0.27      0.00
    8   10   21      0.26      0.00
    9   10   21      0.18      0.00
  -10   11   21      1.15      0.00
   -9   11   21      0.49      0.00
   -8   11   21      0.67      0.00
   -7   11   21      1.81      0.00
   -6   11   21      0.26      0.00
   -5   11   21     -0.16      0.00
   -4   11   21      0.76      0.00
   -3   11   21     -0.79      0.00
   -2   11   21     -0.84      0.00
   -1   11   21     -0.41      0.00
    0   11   21     -2.03      0.00
    1   11   21      0.80      0.00
    2   11   21      1.03      0.00
    3   11   21      0.87      0.00
    4   11   21     -0.28      0.00
    5   11   21     -0.79      0.00
    6   11   21      0.47      0.00
    7   11   21      0.18      0.00
    8   11   21     -0.39      0.00
   -9   12   21      0.31      0.00
   -8   12   21      0.00      0.00
   -7   12   21      0.05      0.00
   -6   12   21     -0.88      0.00
   -5   12   21     -1.20      0.00
   -4   12   21     -0.29      0.00
   -3   12   21     -0.35      0.00
   -2   12   21     -0.79      0.00
   -1   12   21      1.44      0.00
    0   12   21      0.02      0.00
    1   12   21     -0.09      0.00
    2   12   21      0.96      0.00
    3   12   21     -0.15      0.00
    4   12   21     -0.78      0.00
    5   12   21     -0.07      0.00
    6   12   21     -0.21      0.00
    7   12   21     -0.62      0.00
   -8   13   21      0.43      0.00
   -7   13   21     -0.37      0.00
   -6   13   21     -0.21      0.00
   -5   13   21     -1.13      0.00
   -4   13   21      0.49      0.00
   -3   13   21      1.03      0.00
   -2   13   21     -0.11      0.00
   -1   13   21     -0.05      0.00
    0   13   21     -0.88      0.00
    1   13   21      0.01      0.00
    2   13   21      1.71      0.00
    3   13   21      0.70      0.00
    4   13   21     -1.24      0.00
    5   13   21     -0.92      0.00
    6   13   21      0.10      0.00
   -6   14   21      0.57      0.00
   -5   14   21     -0.23      0.00
   -4   14   21      1.46      0.00
   -3   14   21      0.30      0.00
   -2   14   21     -0.72      0.00
   -1   14   21      0.12      0.00
    0   14   21     -0.91      0.00
    1   14   21      1.84      0.00
    2   14   21      1.38      0.00
    3   14   21     -0.41      0.00
    4   14   21     -0.33      0.00
   -4   15   21     -0.66      0.00
   -3   15   21     -0.91      0.00
   -2   15   21      0.74      0.00
   -1   15   21     -1.94      0.00
    0   15   21      0.44      0.00
    1   15   21      1.73      0.00
    2   15   21     -0.46      0.00
  -12    0   22     -0.10      0.00
  -10    0   22      1.93      0.00
   -8    0   22     -0.03      0.00
   -6    0   22     -0.19      0.00
   -4    0   22     -1.84      0.00
   -2    0   22      0.58      0.00
    0    0   22      0.83      0.00
    2    0   22      0.15      0.00
    4    0   22     -2.11      0.00
    6    0   22     -1.14      0.00
    8    0   22      1.77      0.00
   10    0   22     -0.32      0.00
  -13    1   22      0.29      0.00
  -12    1   22      0.44      0.00
  -11    1   22      0.64      0.00
  -10    1   22      0.35      0.00
   -9    1   22      1.27      0.00
   -8    1   22     -1.92      0.00
   -7    1   22     -1.38      0.00
   -6    1   22      1.34      0.00
   -5    1   22     -0.60      0.00
   -4    1   22     -1.76      0.00
   -3    1   22     -1.15      0.00
   -2    1   22      0.77      0.00
   -1    1   22      2.90      0.00
    0    1   22     -1.06      0.00
    1    1   22      1.12      0.00
    2    1   22      0.26      0.00
    3    1   22     -0.93      0.00
    4    1   22      2.06      0.00
    5    1   22      0.07      0.00
    6    1   22     -0.12      0.00
    7    1   22      1.47      0.00
    8    1   22      0.46      0.00
    9    1   22      0.43      0.00
   10    1   22      0.92      0.00
   11    1   22      0.53      0.00
  -13    2   22     -1.78      0.00
  -12    2   22     -0.26      0.00
  -11    2   22     -2.18      0.00
  -10    2   22     -0.91      0.00
   -9    2   22      1.94      0.00
   -8    2   22     -0.40      0.00
   -7    2   22      0.50      0.00
   -6    2   22     -1.01      0.00
   -5    2   22     -0.88      0.00
   -4    2   22      0.57      0.00
   -3    2   22      1.30      0.00
   -2    2   22      4.16      0.00
   -1    2   22      0.13      0.00
    0    2   22     -0.80      0.00
    1    2   22      2.05      0.00
    2    2   22     -2.96      0.00
    3    2   22      0.35      0.00
    4    2   22     -0.75      0.00
    5    2   22     -0.80      0.00
    6    2   22      0.95      0.00
    7    2   22     -0.79      0.00
    8    2   22      0.44      0.00
    9    2   22      0.53      0.00
   10    2   22     -0.89      0.00
   11    2   22     -0.48      0.00
  -13    3   22     -1.50      0.00
  -12    3   22      1.16      0.00
  -11    3   22      1.43      0.00
  -10    3   22      0.36      0.00
   -9    3   22      3.55      0.00
   -8    3   22     -0.67      0.00
   -7    3   22     -2.93      0.00
   -6    3   22     -0.88      0.00
   -5    3   22      3.01      0.00
   -4    3   22      1.66      0.00
   -3    3   22     -2.94      0.00
   -2    3   22     -1.48      0.00
   -1    3   22     -0.94      0.00
    0    3   22     -0.95      0.00
    1    3   22     -1.47      0.00
    2    3   22     -0.28      0.00
    3    3   22      1.19      0.00
    4    3   22     -0.79      0.00
    5    3   22     -0.69      0.00
    6    3   22      0.80      0.00
    7    3   22     -0.59      0.00
    8    3   22     -0.30      0.00
    9    3   22      0.37      0.00
   10    3   22     -0.10      0.00
   11    3   22      0.11      0.00
  -13    4   22     -0.54      0.00
  -12    4   22      2.80      0.00
  -11    4   22      0.37      0.00
  -10    4   22     -3.04      0.00
   -9    4   22      0.07      0.00
   -8    4   22      0.00      0.00
   -7    4   22     -0.23      0.00
   -6    4   22      1.40      0.00
   -5    4   22      1.41      0.00
   -4    4   22     -2.12      0.00
   -3    4   22     -1.04      0.00
   -2    4   22      0.73      0.00
   -1    4   22     -1.03      0.00
    0    4   22     -0.01      0.00
    1    4   22      1.59      0.00
    2    4   22      0.47      0.00
    3    4   22     -0.08      0.00
    4    4   22     -1.78      0.00
    5    4   22      1.21      0.00
    6    4   22     -0.23      0.00
    7    4   22     -0.72      0.00
    8    4   22     -0.12      0.00
    9    4   22      0.46      0.00
   10    4   22     -0.81      0.00
  -13    5   22     -0.63      0.00
  -12    5   22      1.87      0.00
  -11    5   22     -0.68      0.00
  -10    5   22     -2.92      0.00
   -9    5   22      2.28      0.00
   -8    5   22      1.91      0.00
   -7    5   22     -2.11      0.00
   -6    5   22      0.98      0.00
   -5    5   22     -0.10      0.00
   -4    5   22      1.21      0.00
   -3    5   22     -2.46      0.00
   -2    5   22     -4.69      0.00
   -1    5   22      3.31      0.00
    0    5   22      1.30      0.00
    1    5   22     -1.05      0.00
    2    5   22      1.75      0.00
    3    5   22     -1.08      0.00
    4    5   22     -0.11      0.00
    5    5   22     -0.61      0.00
    6    5   22      0.56      0.00
    7    5   22     -0.02      0.00
    8    5   22     -0.91      0.00
    9    5   22     -0.05      0.00
   10    5   22     -0.25      0.00
  -12    6   22      1.63      0.00
  -11    6   22     -0.13      0.00
  -10    6   22     -2.04      0.00
   -9    6   22      1.27      0.00
   -8    6   22     -0.81      0.00
   -7    6   22      0.53      0.00
   -6    6   22      1.46      0.00
   -5    6   22     -1.67      0.00
   -4    6   22      0.72      0.00
   -3    6   22     -2.10      0.00
   -2    6   22      2.78      0.00
   -1    6   22      3.43      0.00
    0    6   22     -1.63      0.00
    1    6   22      0.79      0.00
    2    6   22     -1.01      0.00
    3    6   22     -1.58      0.00
    4    6   22      0.71      0.00
    5    6   22      1.34      0.00
    6    6   22      0.54      0.00
    7    6   22     -1.40      0.00
    8    6   22     -0.16      0.00
    9    6   22     -0.37      0.00
   10    6   22      0.93      0.00
  -12    7   22      0.88      0.00
  -11    7   22     -1.06      0.00
  -10    7   22      0.18      0.00
   -9    7   22     -0.21      0.00
   -8    7   22     -0.96      0.00
   -7    7   22      0.48      0.00
   -6    7   22     -1.55      0.00
   -5    7   22     -0.71      0.00
   -4    7   22      1.90      0.00
   -3    7   22      1.32      0.00
   -2    7   22     -1.04      0.00
   -1    7   22     -0.85      0.00
    0    7   22     -0.47      0.00
    1    7   22     -2.11      0.00
    2    7   22      0.94      0.00
    3    7   22      2.17      0.00
    4    7   22     -0.06      0.00
    5    7   22     -0.16      0.00
    6    7   22      1.12      0.00
    7    7   22      0.54      0.00
    8    7   22      0.09      0.00
    9    7   22      0.49      0.00
  -11    8   22      0.32      0.00
  -10    8   22      1.10      0.00
   -9    8   22     -1.29      0.00
   -8    8   22     -0.36      0.00
   -7    8   22     -0.36      0.00
   -6    8   22      0.10      0.00
   -5    8   22      0.65      0.00
   -4    8   22      2.24      0.00
   -3    8   22      1.73      0.00
   -2    8   22     -2.00      0.00
   -1    8   22     -0.49      0.00
    0    8   22      0.09      0.00
    1    8   22      1.24      0.00
    2    8   22      0.83      0.00
    3    8   22      0.01      0.00
    4    8   22     -0.69      0.00
    5    8   22      0.87      0.00
    6    8   22     -0.84      0.00
    7    8   22     -1.23      0.00
    8    8   22     -0.38      0.00
    9    8   22     -0.06      0.00
  -11    9   22      2.58      0.00
  -10    9   22      1.15      0.00
   -9    9   22     -0.13      0.00
   -8    9   22     -0.09      0.00
   -7    9   22     -0.61      0.00
   -6    9   22      1.41      0.00
   -5    9   22      0.94      0.00
   -4    9   22      0.48      0.00
   -3    9   22      1.14      0.00
   -2    9   22     -1.49      0.00
   -1    9   22     -0.46      0.00
    0    9   22      1.66      0.00
    1    9   22     -1.52      0.00
    2    9   22     -0.30      0.00
    3    9   22      1.11      0.00
    4    9   22     -1.41      0.00
    5    9   22     -1.77      0.00
    6    9   22      0.55      0.00
    7    9   22      1.17      0.00
    8    9   22      1.78      0.00
  -10   10   22      0.05      0.00
   -9   10   22      0.21      0.00
   -8   10   22      0.10      0.00
   -7   10   22     -0.26      0.00
   -6   10   22      1.69      0.00
   -5   10   22     -1.12      0.00
   -4   10   22      0.33      0.00
   -3   10   22      0.51      0.00
   -2   10   22     -1.16      0.00
   -1   10   22     -1.06      0.00
    0   10   22     -0.81      0.00
    1   10   22     -0.29      0.00
    2   10   22     -0.16      0.00
    3   10   22      1.10      0.00
    4   10   22      0.45      0.00
    5   10   22      1.58      0.00
    6   10   22      0.26      0.00
    7   10   22      0.54      0.00
    8   10   22      0.45      0.00
   -9   11   22     -0.11      0.00
   -8   11   22     -0.19      0.00
   -7   11   22     -0.77      0.00
   -6   11   22     -0.78      0.00
   -5   11   22     -1.22      0.00
   -4   11   22     -0.80      0.00
   -3   11   22     -0.17      0.00
   -2   11   22      0.77      0.00
   -1   11   22     -0.73      0.00
    0   11   22      1.40      0.00
    1   11   22      1.35      0.00
    2   11   22     -0.04      0.00
    3   11   22      0.63      0.00
    4   11   22     -0.39      0.00
    5   11   22      0.03      0.00
    6   11   22     -0.86      0.00
    7   11   22     -0.32      0.00
   -8   12   22     -0.39      0.00
   -7   12   22      0.51      0.00
   -6   12   22     -0.64      0.00
   -5   12   22     -0.03      0.00
   -4   12   22      0.97      0.00
   -3   12   22      0.59      0.00
   -2   12   22      0.84      0.00
   -1   12   22     -0.65      0.00
    0   12   22      0.15      0.00
    1   12   22     -0.31      0.00
    2   12   22     -0.58      0.00
    3   12   22     -0.33      0.00
    4   12   22      0.64      0.00
    5   12   22     -1.29      0.00
    6   12   22     -0.83      0.00
   -7   13   22      0.41      0.00
   -6   13   22     -0.17      0.00
   -5   13   22      0.52      0.00
   -4   13   22      0.90      0.00
   -3   13   22     -0.09      0.00
   -2   13   22     -0.95      0.00
   -1   13   22     -0.16      0.00
    0   13   22      0.21      0.00
    1   13   22      1.42      0.00
    2   13   22      0.96      0.00
    3   13   22     -0.32      0.00
    4   13   22     -1.87      0.00
   -5   14   22     -0.45      0.00
   -4   14   22      0.21      0.00
   -3   14   22     -2.32      0.00
   -2   14   22     -0.32      0.00
   -1   14   22     -0.08      0.00
    0   14   22      0.21      0.00
    1   14   22      2.15      0.00
    2   14   22      0.25      0.00
  -13    0   23      1.39      0.00
  -11    0   23      0.95      0.00
   -9    0   23     -0.46      0.00
   -7    0   23     -1.08      0.00
   -5    0   23     -0.39      0.00
   -3    0   23      1.49      0.00
   -1    0   23     -0.14      0.00
    1    0   23     -2.94      0.00
    3    0   23      0.51      0.00
    5    0   23      0.92      0.00
    7    0   23      2.55      0.00
    9    0   23     -0.10      0.00
  -13    1   23     -0.26      0.00
  -12    1   23      0.05      0.00
  -11    1   23     -0.88      0.00
  -10    1   23      0.10      0.00
   -9    1   23     -0.24      0.00
   -8    1   23     -0.86      0.00
   -7    1   23     -0.40      0.00
   -6    1   23      0.44      0.00
   -5    1   23     -0.26      0.00
   -4    1   23      1.16      0.00
   -3    1   23      2.06      0.00
   -2    1   23      1.19      0.00
   -1    1   23      1.64      0.00
    0    1   23     -1.40      0.00
    1    1   23      1.21      0.00
    2    1   23      0.20      0.00
    3    1   23      0.09      0.00
    4    1   23      0.59      0.00
    5    1   23     -1.19      0.00
    6    1   23      0.97      0.00
    7    1   23      0.17      0.00
    8    1   23     -1.47      0.00
    9    1   23      0.72      0.00
   10    1   23      0.22      0.00
  -13    2   23      0.29      0.00
  -12    2   23     -0.18      0.00
  -11    2   23      0.05      0.00
  -10    2   23      2.02      0.00
   -9    2   23     -0.48      0.00
   -8    2   23     -1.10      0.00
   -7    2   23     -0.12      0.00
   -6    2   23      0.18      0.00
   -5    2   23      1.95      0.00
   -4    2   23      0.96      0.00
   -3    2   23     -1.66      0.00
   -2    2   23     -0.47      0.00
   -1    2   23     -2.30      0.00
    0    2   23      1.10      0.00
    1    2   23     -1.89      0.00
    2    2   23     -2.94      0.00
    3    2   23      0.01      0.00
    4    2   23      0.05      0.00
    5    2   23      0.37      0.00
    6    2   23     -0.74      0.00
    7    2   23     -0.90      0.00
    8    2   23      0.19      0.00
    9    2   23     -0.32      0.00
   10    2   23     -0.38      0.00
  -12    3   23      2.30      0.00
  -11    3   23     -1.22      0.00
  -10    3   23      0.00      0.00
   -9    3   23     -1.29      0.00
   -8    3   23     -0.74      0.00
   -7    3   23      0.87      0.00
   -6    3   23      1.56      0.00
   -5    3   23      1.03      0.00
   -4    3   23     -3.75      0.00
   -3    3   23     -1.76      0.00
   -2    3   23      2.64      0.00
   -1    3   23      2.01      0.00
    0    3   23      0.08      0.00
    1    3   23     -1.01      0.00
    2    3   23     -0.09      0.00
    3    3   23      0.35      0.00
    4    3   23     -0.52      0.00
    5    3   23      0.69      0.00
    6    3   23     -0.29      0.00
    7    3   23      0.26      0.00
    8    3   23      0.17      0.00
    9    3   23     -0.31      0.00
   10    3   23     -0.08      0.00
  -12    4   23     -1.35      0.00
  -11    4   23     -4.49      0.00
  -10    4   23      0.66      0.00
   -9    4   23      1.90      0.00
   -8    4   23      1.70      0.00
   -7    4   23      0.41      0.00
   -6    4   23      0.35      0.00
   -5    4   23     -1.65      0.00
   -4    4   23     -1.36      0.00
   -3    4   23      2.09      0.00
   -2    4   23      0.39      0.00
   -1    4   23     -2.08      0.00
    0    4   23      1.53      0.00
    1    4   23     -1.01      0.00
    2    4   23     -0.94      0.00
    3    4   23     -0.39      0.00
    4    4   23      1.58      0.00
    5    4   23      1.37      0.00
    6    4   23     -1.18      0.00
    7    4   23     -0.61      0.00
    8    4   23      0.57      0.00
    9    4   23     -1.17      0.00
   10    4   23     -0.38      0.00
  -12    5   23     -0.07      0.00
  -11    5   23     -1.12      0.00
  -10    5   23      1.65      0.00
   -9    5   23      1.96      0.00
   -8    5   23     -1.56      0.00
   -7    5   23     -0.37      0.00
   -6    5   23      0.84      0.00
   -5    5   23     -1.61      0.00
   -4    5   23     -0.15      0.00
   -3    5   23     -1.12      0.00
   -2    5   23      1.88      0.00
   -1    5   23      2.21      0.00
    0    5   23     -1.04      0.00
    1    5   23     -0.02      0.00
    2    5   23      0.84      0.00
    3    5   23     -0.41      0.00
    4    5   23      0.77      0.00
    5    5   23      0.01      0.00
    6    5   23     -0.67      0.00
    7    5   23     -1.29      0.00
    8    5   23      1.41      0.00
    9    5   23     -0.44      0.00
  -12    6   23      0.79      0.00
  -11    6   23     -2.11      0.00
  -10    6   23     -0.47      0.00
   -9    6   23      1.02      0.00
   -8    6   23     -2.02      0.00
   -7    6   23      2.13      0.00
   -6    6   23     -0.86      0.00
   -5    6   23      0.04      0.00
   -4    6   23      1.03      0.00
   -3    6   23      1.12      0.00
   -2    6   23      1.13      0.00
   -1    6   23     -4.31      0.00
    0    6   23     -0.74      0.00
    1    6   23      2.42      0.00
    2    6   23     -0.80      0.00
    3    6   23      1.10      0.00
    4    6   23      1.10      0.00
    5    6   23      0.63      0.00
    6    6   23     -1.23      0.00
    7    6   23      0.85      0.00
    8    6   23      1.38      0.00
    9    6   23     -0.02      0.00
  -11    7   23     -1.51      0.00
  -10    7   23      0.92      0.00
   -9    7   23     -1.63      0.00
   -8    7   23     -0.15      0.00
   -7    7   23      1.68      0.00
   -6    7   23      0.09      0.00
   -5    7   23      1.89      0.00
   -4    7   23     -0.07      0.00
   -3    7   23     -1.60      0.00
   -2    7   23     -1.73      0.00
   -1    7   23     -0.19      0.00
    0    7   23      1.44      0.00
    1    7   23      1.73      0.00
    2    7   23      1.32      0.00
    3    7   23     -0.61      0.00
    4    7   23     -1.55      0.00
    5    7   23      0.72      0.00
    6    7   23      0.82      0.00
    7    7   23     -0.40      0.00
    8    7   23     -0.32      0.00
    9    7   23      0.38      0.00
  -11    8   23      1.66      0.00
  -10    8   23      0.26      0.00
   -9    8   23      0.23      0.00
   -8    8   23      0.99      0.00
   -7    8   23      0.37      0.00
   -6    8   23     -0.13      0.00
   -5    8   23      0.63      0.00
   -4    8   23      0.04      0.00
   -3    8   23     -1.66      0.00
   -2    8   23      0.18      0.00
   -1    8   23      0.37      0.00
    0    8   23      0.05      0.00
    1    8   23      0.72      0.00
    2    8   23     -0.36      0.00
    3    8   23     -0.51      0.00
    4    8   23      0.23      0.00
    5    8   23      0.47      0.00
    6    8   23     -0.58      0.00
    7    8   23     -0.08      0.00
    8    8   23      0.95      0.00
  -10    9   23     -0.27      0.00
   -9    9   23     -0.58      0.00
   -8    9   23     -0.63      0.00
   -7    9   23     -0.51      0.00
   -6    9   23      0.05      0.00
   -5    9   23      0.41      0.00
   -4    9   23      0.36      0.00
   -3    9   23     -0.29      0.00
   -2    9   23      0.02      0.00
   -1    9   23     -0.18      0.00
    0    9   23     -1.17      0.00
    1    9   23     -0.65      0.00
    2    9   23      2.36      0.00
    3    9   23      0.09      0.00
    4    9   23     -1.05      0.00
    5    9   23      1.59      0.00
    6    9   23      0.98      0.00
    7    9   23      0.23      0.00
   -9   10   23      0.01      0.00
   -8   10   23     -0.67      0.00
   -7   10   23     -0.46      0.00
   -6   10   23     -0.51      0.00
   -5   10   23     -0.75      0.00
   -4   10   23      1.04      0.00
   -3   10   23     -0.55      0.00
   -2   10   23     -0.80      0.00
   -1   10   23      0.12      0.00
    0   10   23     -0.73      0.00
    1   10   23      1.13      0.00
    2   10   23      2.39      0.00
    3   10   23      0.12      0.00
    4   10   23     -0.59      0.00
    5   10   23     -0.04      0.00
    6   10   23     -2.08      0.00
    7   10   23      0.32      0.00
   -8   11   23     -1.11      0.00
   -7   11   23      0.59      0.00
   -6   11   23     -0.66      0.00
   -5   11   23      0.18      0.00
   -4   11   23      1.41      0.00
   -3   11   23      0.80      0.00
   -2   11   23      0.04      0.00
   -1   11   23      0.08      0.00
    0   11   23      1.02      0.00
    1   11   23     -1.15      0.00
    2   11   23      0.20      0.00
    3   11   23     -2.36      0.00
    4   11   23     -0.32      0.00
    5   11   23     -1.36      0.00
    6   11   23     -0.15      0.00
   -7   12   23      0.86      0.00
   -6   12   23     -0.97      0.00
   -5   12   23      0.72      0.00
   -4   12   23     -0.04      0.00
   -3   12   23      0.19      0.00
   -2   12   23     -1.27      0.00
   -1   12   23      0.41      0.00
    0   12   23     -0.27      0.00
    1   12   23     -1.22      0.00
    2   12   23     -0.51      0.00
    3   12   23      0.81      0.00
    4   12   23     -0.69      0.00
   -5   13   23     -0.10      0.00
   -4   13   23     -0.13      0.00
   -3   13   23     -0.19      0.00
   -2   13   23     -0.51      0.00
   -1   13   23      1.50      0.00
    0   13   23      0.69      0.00
    1   13   23      0.43      0.00
    2   13   23      0.07      0.00
    3   13   23     -0.40      0.00
  -12    0   24     -0.95      0.00
  -10    0   24      0.56      0.00
   -8    0   24     -0.79      0.00
   -6    0   24      1.26      0.00
   -4    0   24      0.82      0.00
   -2    0   24     -0.50      0.00
    0    0   24     -0.72      0.00
    2    0   24      3.04      0.00
    4    0   24     -0.89      0.00
    6    0   24      1.31      0.00
    8    0   24     -1.49      0.00
  -12    1   24     -1.41      0.00
  -11    1   24     -0.21      0.00
  -10    1   24      0.59      0.00
   -9    1   24     -0.65      0.00
   -8    1   24     -0.77      0.00
   -7    1   24      0.52      0.00
   -6    1   24      1.76      0.00
   -5    1   24      0.36      0.00
   -4    1   24      0.93      0.00
   -3    1   24     -0.08      0.00
   -2    1   24      0.55      0.00
   -1    1   24      0.26      0.00
    0    1   24     -2.47      0.00
    1    1   24      0.30      0.00
    2    1   24     -0.86      0.00
    3    1   24     -0.60      0.00
    4    1   24     -0.46      0.00
    5    1   24      0.82      0.00
    6    1   24      0.22      0.00
    7    1   24     -3.00      0.00
    8    1   24      0.72      0.00
    9    1   24      1.07      0.00
  -12    2   24     -0.14      0.00
  -11    2   24      1.15      0.00
  -10    2   24     -0.75      0.00
   -9    2   24     -0.01      0.00
   -8    2   24      0.85      0.00
   -7    2   24      0.71      0.00
   -6    2   24      0.39      0.00
   -5    2   24     -0.54      0.00
   -4    2   24     -1.59      0.00
   -3    2   24     -1.01      0.00
   -2    2   24      1.34      0.00
   -1    2   24     -0.10      0.00
    0    2   24     -0.73      0.00
    1    2   24     -2.73      0.00
    2    2   24      0.76      0.00
    3    2   24      2.33      0.00
    4    2   24      0.47      0.00
    5    2   24     -0.63      0.00
    6    2   24     -1.34      0.00
    7    2   24     -0.04      0.00
    8    2   24      1.05      0.00
    9    2   24      0.28      0.00
  -12    3   24     -1.64      0.00
  -11    3   24     -2.12      0.00
  -10    3   24      0.08      0.00
   -9    3   24      1.69      0.00
   -8    3   24      1.25      0.00
   -7    3   24     -1.13      0.00
   -6    3   24     -0.21      0.00
   -5    3   24     -0.07      0.00
   -4    3   24     -0.97      0.00
   -3    3   24      3.21      0.00
   -2    3   24      2.27      0.00
   -1    3   24     -1.28      0.00
    0    3   24     -2.33      0.00
    1    3   24     -0.33      0.00
    2    3   24      1.12      0.00
    3    3   24      1.07      0.00
    4    3   24     -0.12      0.00
    5    3   24     -0.01      0.00
    6    3   24      0.53      0.00
    7    3   24     -0.25      0.00
    8    3   24     -0.21      0.00
    9    3   24      0.17      0.00
  -11    4   24      1.58      0.00
  -10    4   24      3.11      0.00
   -9    4   24      0.86      0.00
   -8    4   24     -0.43      0.00
   -7    4   24     -1.71      0.00
   -6    4   24     -0.46      0.00
   -5    4   24     -0.38      0.00
   -4    4   24      0.47      0.00
   -3    4   24     -0.34      0.00
   -2    4   24     -2.20      0.00
   -1    4   24      0.09      0.00
    0    4   24      1.96      0.00
    1    4   24     -1.78      0.00
    2    4   24      1.12      0.00
    3    4   24      1.36      0.00
    4    4   24      0.62      0.00
    5    4   24     -1.79      0.00
    6    4   24     -0.44      0.00
    7    4   24      0.54      0.00
    8    4   24     -0.41      0.00
    9    4   24      0.01      0.00
  -11    5   24      1.27      0.00
  -10    5   24     -0.45      0.00
   -9    5   24     -0.95      0.00
   -8    5   24      0.32      0.00
   -7    5   24      0.22      0.00
   -6    5   24     -1.37      0.00
   -5    5   24      1.08      0.00
   -4    5   24      0.06      0.00
   -3    5   24      0.51      0.00
   -2    5   24      0.39      0.00
   -1    5   24      1.58      0.00
    0    5   24     -0.72      0.00
    1    5   24      0.77      0.00
    2    5   24      0.07      0.00
    3    5   24      0.37      0.00
    4    5   24      0.08      0.00
    5    5   24      0.34      0.00
    6    5   24      0.14      0.00
    7    5   24      1.98      0.00
    8    5   24     -0.49      0.00
    9    5   24     -1.12      0.00
  -11    6   24     -1.27      0.00
  -10    6   24      0.64      0.00
   -9    6   24     -0.31      0.00
   -8    6   24      1.01      0.00
   -7    6   24      0.66      0.00
   -6    6   24     -0.97      0.00
   -5    6   24      1.38      0.00
   -4    6   24     -0.67      0.00
   -3    6   24     -1.89      0.00
   -2    6   24     -2.39      0.00
   -1    6   24      0.72      0.00
    0    6   24      3.55      0.00
    1    6   24     -0.17      0.00
    2    6   24     -0.58      0.00
    3    6   24      0.61      0.00
    4    6   24      0.54      0.00
    5    6   24     -0.79      0.00
    6    6   24      0.40      0.00
    7    6   24      1.59      0.00
    8    6   24     -2.17      0.00
  -10    7   24      0.37      0.00
   -9    7   24     -1.24      0.00
   -8    7   24      2.18      0.00
   -7    7   24     -0.07      0.00
   -6    7   24     -0.96      0.00
   -5    7   24     -0.88      0.00
   -4    7   24     -1.61      0.00
   -3    7   24      0.30      0.00
   -2    7   24      0.71      0.00
   -1    7   24      1.77      0.00
    0    7   24      0.38      0.00
    1    7   24     -0.32      0.00
    2    7   24     -0.35      0.00
    3    7   24     -1.18      0.00
    4    7   24      0.81      0.00
    5    7   24      1.01      0.00
    6    7   24     -0.73      0.00
    7    7   24     -0.51      0.00
    8    7   24     -0.77      0.00
  -10    8   24     -0.62      0.00
   -9    8   24     -0.33      0.00
   -8    8   24     -0.56      0.00
   -7    8   24     -0.31      0.00
   -6    8   24     -0.32      0.00
   -5    8   24      0.43      0.00
   -4    8   24      0.73      0.00
   -3    8   24      0.54      0.00
   -2    8   24     -0.55      0.00
   -1    8   24     -1.66      0.00
    0    8   24      0.88      0.00
    1    8   24      0.96      0.00
    2    8   24      0.29      0.00
    3    8   24     -0.06      0.00
    4    8   24      0.38      0.00
    5    8   24     -2.01      0.00
    6    8   24     -0.60      0.00
    7    8   24      1.14      0.00
   -9    9   24     -1.03      0.00
   -8    9   24      0.28      0.00
   -7    9   24      0.09      0.00
   -6    9   24      0.67      0.00
   -5    9   24      0.75      0.00
   -4    9   24     -0.07      0.00
   -3    9   24      0.32      0.00
   -2    9   24     -1.78      0.00
   -1    9   24     -0.73      0.00
    0    9   24      0.39      0.00
    1    9   24      1.57      0.00
    2    9   24     -0.10      0.00
    3    9   24     -1.51      0.00
    4    9   24     -0.60      0.00
    5    9   24      0.06      0.00
    6    9   24     -0.84      0.00
   -8   10   24     -0.49      0.00
   -7   10   24     -0.18      0.00
   -6   10   24      0.44      0.00
   -5   10   24     -0.07      0.00
   -4   10   24      0.48      0.00
   -3   10   24     -0.91      0.00
   -2   10   24      0.27      0.00
   -1   10   24     -0.38      0.00
    0   10   24      0.54      0.00
    1   10   24      0.92      0.00
    2   10   24     -0.89      0.00
    3   10   24     -2.46      0.00
    4   10   24      0.23      0.00
    5   10   24     -1.23      0.00
   -7   11   24      0.47      0.00
   -6   11   24     -0.96      0.00
   -5   11   24      1.19      0.00
   -4   11   24      0.31      0.00
   -3   11   24      0.14      0.00
   -2   11   24     -0.28      0.00
   -1   11   24     -0.40      0.00
    0   11   24     -1.71      0.00
    1   11   24     -1.24      0.00
    2   11   24     -1.86      0.00
    3   11   24      0.28      0.00
    4   11   24      2.09      0.00
   -5   12   24      0.83      0.00
   -4   12   24      0.14      0.00
   -3   12   24      0.18      0.00
   -2   12   24     -0.19      0.00
   -1   12   24      0.51      0.00
    0   12   24     -0.86      0.00
    1   12   24      0.97      0.00
    2   12   24      1.23      0.00
    3   12   24      1.84      0.00
   -2   13   24      0.73      0.00
   -1   13   24      0.56      0.00
  -11    0   25      0.11      0.00
   -9    0   25     -0.44      0.00
   -7    0   25      1.09      0.00
   -5    0   25      0.69      0.00
   -3    0   25      1.45      0.00
   -1    0   25      1.07      0.00
    1    0   25      0.99      0.00
    3    0   25     -1.00      0.00
    5    0   25      1.69      0.00
    7    0   25     -1.64      0.00
  -11    1   25      1.15      0.00
  -10    1   25     -0.05      0.00
   -9    1   25      0.11      0.00
   -8    1   25      0.37      0.00
   -7    1   25      1.38      0.00
   -6    1   25      0.22      0.00
   -5    1   25     -1.23      0.00
   -4    1   25      0.12      0.00
   -3    1   25     -0.59      0.00
   -2    1   25      0.11      0.00
   -1    1   25     -3.10      0.00
    0    1   25     -1.37      0.00
    1    1   25      1.78      0.00
    2    1   25      0.59      0.00
    3    1   25     -0.16      0.00
    4    1   25      1.29      0.00
    5    1   25     -0.23      0.00
    6    1   25     -2.78      0.00
    7    1   25      0.43      0.00
    8    1   25      2.71      0.00
  -11    2   25      0.31      0.00
  -10    2   25      0.17      0.00
   -9    2   25      1.02      0.00
   -8    2   25     -0.94      0.00
   -7    2   25     -0.38      0.00
   -6    2   25     -0.77      0.00
   -5    2   25      0.91      0.00
   -4    2   25      0.40      0.00
   -3    2   25      0.83      0.00
   -2    2   25      0.90      0.00
   -1    2   25     -0.41      0.00
    0    2   25     -0.75      0.00
    1    2   25      0.81      0.00
    2    2   25      1.86      0.00
    3    2   25     -0.43      0.00
    4    2   25     -0.89      0.00
    5    2   25     -1.16      0.00
    6    2   25      0.08      0.00
    7    2   25      2.21      0.00
    8    2   25      0.48      0.00
  -11    3   25     -0.07      0.00
  -10    3   25      1.88      0.00
   -9    3   25     -0.04      0.00
   -8    3   25     -2.06      0.00
   -7    3   25     -0.37      0.00
   -6    3   25      2.24      0.00
   -5    3   25      0.13      0.00
   -4    3   25     -0.86      0.00
   -3    3   25      0.55      0.00
   -2    3   25     -1.02      0.00
   -1    3   25     -2.25      0.00
    0    3   25     -0.17      0.00
    1    3   25      1.17      0.00
    2    3   25      0.61      0.00
    3    3   25     -0.50      0.00
    4    3   25     -0.02      0.00
    5    3   25      0.89      0.00
    6    3   25      0.10      0.00
    7    3   25     -0.27      0.00
    8    3   25      0.40      0.00
  -11    4   25      2.14      0.00
  -10    4   25      0.30      0.00
   -9    4   25     -0.62      0.00
   -8    4   25     -1.40      0.00
   -7    4   25     -0.56      0.00
   -6    4   25      0.50      0.00
   -5    4   25     -0.70      0.00
   -4    4   25     -1.05      0.00
   -3    4   25      0.42      0.00
   -2    4   25      0.75      0.00
   -1    4   25      2.84      0.00
    0    4   25     -0.61      0.00
    1    4   25     -1.10      0.00
    2    4   25      1.63      0.00
    3    4   25      0.05      0.00
    4    4   25     -0.50      0.00
    5    4   25      0.92      0.00
    6    4   25      0.55      0.00
    7    4   25     -0.41      0.00
    8    4   25     -0.34      0.00
  -10    5   25     -1.33      0.00
   -9    5   25      1.93      0.00
   -8    5   25     -0.66      0.00
   -7    5   25     -1.73      0.00
   -6    5   25      2.00      0.00
   -5    5   25     -0.25      0.00
   -4    5   25     -1.27      0.00
   -3    5   25      0.64      0.00
   -2    5   25      0.54      0.00
   -1    5   25     -0.13      0.00
    0    5   25     -1.99      0.00
    1    5   25      1.07      0.00
    2    5   25      0.47      0.00
    3    5   25     -0.01      0.00
    4    5   25      0.83      0.00
    5    5   25      0.52      0.00
    6    5   25     -0.53      0.00
    7    5   25     -1.51      0.00
    8    5   25     -0.67      0.00
  -10    6   25      0.47      0.00
   -9    6   25      0.26      0.00
   -8    6   25     -1.25      0.00
   -7    6   25     -1.33      0.00
   -6    6   25      0.79      0.00
   -5    6   25     -2.12      0.00
   -4    6   25     -1.60      0.00
   -3    6   25     -0.27      0.00
   -2    6   25      1.91      0.00
   -1    6   25      1.35      0.00
    0    6   25     -0.21      0.00
    1    6   25     -0.62      0.00
    2    6   25      0.05      0.00
    3    6   25     -0.08      0.00
    4    6   25     -0.74      0.00
    5    6   25     -0.91      0.00
    6    6   25      0.57      0.00
    7    6   25     -1.92      0.00
   -9    7   25      0.61      0.00
   -8    7   25      0.37      0.00
   -7    7   25     -0.44      0.00
   -6    7   25      0.54      0.00
   -5    7   25      0.21      0.00
   -4    7   25      1.05      0.00
   -3    7   25      0.67      0.00
   -2    7   25     -0.39      0.00
   -1    7   25     -0.44      0.00
    0    7   25      0.10      0.00
    1    7   25      0.81      0.00
    2    7   25     -0.53      0.00
    3    7   25     -0.22      0.00
    4    7   25     -0.28      0.00
    5    7   25     -1.35      0.00
    6    7   25     -0.04      0.00
    7    7   25     -0.59      0.00
   -9    8   25      0.04      0.00
   -8    8   25      0.91      0.00
   -7    8   25      0.55      0.00
   -6    8   25      0.25      0.00
   -5    8   25      1.15      0.00
   -4    8   25     -0.34      0.00
   -3    8   25     -1.73      0.00
   -2    8   25     -0.95      0.00
   -1    8   25      1.33      0.00
    0    8   25      1.33      0.00
    1    8   25     -0.99      0.00
    2    8   25     -1.46      0.00
    3    8   25     -0.70      0.00
    4    8   25     -2.11      0.00
    5    8   25     -0.75      0.00
    6    8   25      3.28      0.00
   -8    9   25      1.15      0.00
   -7    9   25     -0.88      0.00
   -6    9   25      0.42      0.00
   -5    9   25     -0.58      0.00
   -4    9   25     -0.24      0.00
   -3    9   25     -1.32      0.00
   -2    9   25     -0.99      0.00
   -1    9   25      0.81      0.00
    0    9   25     -0.35      0.00
    1    9   25     -0.67      0.00
    2    9   25     -0.43      0.00
    3    9   25      0.35      0.00
    4    9   25     -0.19      0.00
    5    9   25      1.04      0.00
   -7   10   25      0.11      0.00
   -6   10   25     -0.72      0.00
   -5   10   25      0.00      0.00
   -4   10   25      1.10      0.00
   -3   10   25     -0.38      0.00
   -2   10   25     -0.11      0.00
   -1   10   25     -0.73      0.00
    0   10   25     -0.37      0.00
    1   10   25     -0.68      0.00
    2   10   25     -0.10      0.00
    3   10   25      0.69      0.00
    4   10   25      1.13      0.00
   -5   11   25      1.60      0.00
   -4   11   25      0.28      0.00
   -3   11   25     -0.35      0.00
   -2   11   25     -1.35      0.00
   -1   11   25     -0.56      0.00
    0   11   25     -0.56      0.00
    1   11   25      1.29      0.00
    2   11   25      1.56      0.00
   -2   12   25      0.40      0.00
   -1   12   25      0.10      0.00
  -10    0   26      0.75      0.00
   -8    0   26      0.13      0.00
   -6    0   26      1.58      0.00
   -4    0   26     -0.51      0.00
   -2    0   26     -0.80      0.00
    0    0   26     -1.04      0.00
    2    0   26      2.20      0.00
    4    0   26      0.80      0.00
    6    0   26     -0.80      0.00
  -10    1   26      0.58      0.00
   -9    1   26      0.03      0.00
   -8    1   26     -0.31      0.00
   -7    1   26      0.80      0.00
   -6    1   26     -0.83      0.00
   -5    1   26     -1.05      0.00
   -4    1   26      0.88      0.00
   -3    1   26     -0.75      0.00
   -2    1   26      0.00      0.00
   -1    1   26     -0.96      0.00
    0    1   26      2.87      0.00
    1    1   26      0.76      0.00
    2    1   26     -1.68      0.00
    3    1   26     -0.84      0.00
    4    1   26     -0.19      0.00
    5    1   26     -2.13      0.00
    6    1   26      0.49      0.00
    7    1   26      1.89      0.00
  -10    2   26     -0.48      0.00
   -9    2   26     -1.35      0.00
   -8    2   26     -0.01      0.00
   -7    2   26      0.92      0.00
   -6    2   26      0.80      0.00
   -5    2   26      1.54      0.00
   -4    2   26     -1.45      0.00
   -3    2   26      0.28      0.00
   -2    2   26      0.15      0.00
   -1    2   26     -0.54      0.00
    0    2   26     -1.49      0.00
    1    2   26      0.20      0.00
    2    2   26     -0.16      0.00
    3    2   26      0.56      0.00
    4    2   26      0.33      0.00
    5    2   26      0.52      0.00
    6    2   26      1.94      0.00
    7    2   26     -0.17      0.00
  -10    3   26      0.38      0.00
   -9    3   26     -0.75      0.00
   -8    3   26      0.02      0.00
   -7    3   26      0.73      0.00
   -6    3   26     -0.12      0.00
   -5    3   26     -2.77      0.00
   -4    3   26     -0.76      0.00
   -3    3   26      0.34      0.00
   -2    3   26     -0.28      0.00
   -1    3   26     -1.20      0.00
    0    3   26      1.40      0.00
    1    3   26      0.63      0.00
    2    3   26     -0.45      0.00
    3    3   26      0.99      0.00
    4    3   26      0.98      0.00
    5    3   26     -0.21      0.00
    6    3   26     -0.82      0.00
    7    3   26     -0.19      0.00
  -10    4   26     -0.66      0.00
   -9    4   26     -1.10      0.00
   -8    4   26     -1.07      0.00
   -7    4   26      0.38      0.00
   -6    4   26      0.07      0.00
   -5    4   26     -0.67      0.00
   -4    4   26      0.61      0.00
   -3    4   26      0.76      0.00
   -2    4   26      0.21      0.00
   -1    4   26      0.15      0.00
    0    4   26     -2.01      0.00
    1    4   26      0.58      0.00
    2    4   26      0.75      0.00
    3    4   26      0.03      0.00
    4    4   26      0.76      0.00
    5    4   26     -0.98      0.00
    6    4   26     -0.97      0.00
    7    4   26     -0.19      0.00
   -9    5   26     -0.46      0.00
   -8    5   26     -2.68      0.00
   -7    5   26      1.46      0.00
   -6    5   26     -0.32      0.00
   -5    5   26     -3.00      0.00
   -4    5   26      1.35      0.00
   -3    5   26     -0.45      0.00
   -2    5   26      0.13      0.00
   -1    5   26     -1.03      0.00
    0    5   26      1.07      0.00
    1    5   26      1.51      0.00
    2    5   26     -1.84      0.00
    3    5   26     -0.11      0.00
    4    5   26     -0.24      0.00
    5    5   26     -1.82      0.00
    6    5   26     -1.28      0.00
   -9    6   26     -1.71      0.00
   -8    6   26     -0.13      0.00
   -7    6   26      2.67      0.00
   -6    6   26     -1.19      0.00
   -5    6   26     -0.09      0.00
   -4    6   26      1.71      0.00
   -3    6   26      0.81      0.00
   -2    6   26      0.52      0.00
   -1    6   26      0.02      0.00
    0    6   26      0.99      0.00
    1    6   26     -0.55      0.00
    2    6   26     -1.15      0.00
    3    6   26     -0.38      0.00
    4    6   26     -0.44      0.00
    5    6   26      0.76      0.00
    6    6   26     -0.25      0.00
   -8    7   26      0.84      0.00
   -7    7   26      1.21      0.00
   -6    7   26     -0.56      0.00
   -5    7   26     -0.05      0.00
   -4    7   26     -0.16      0.00
   -3    7   26     -0.64      0.00
   -2    7   26      0.11      0.00
   -1    7   26      0.88      0.00
    0    7   26      0.67      0.00
    1    7   26     -1.14      0.00
    2    7   26     -0.97      0.00
    3    7   26     -1.06      0.00
    4    7   26     -0.30      0.00
    5    7   26      0.64      0.00
   -7    8   26     -1.21      0.00
   -6    8   26     -0.22      0.00
   -5    8   26     -0.73      0.00
   -4    8   26     -1.32      0.00
   -3    8   26      0.17      0.00
   -2    8   26      0.47      0.00
   -1    8   26     -0.40      0.00
    0    8   26     -1.92      0.00
    1    8   26     -0.20      0.00
    2    8   26      0.24      0.00
    3    8   26     -0.23      0.00
    4    8   26      0.07      0.00
   -6    9   26      0.35      0.00
   -5    9   26     -0.51      0.00
   -4    9   26      0.18      0.00
   -3    9   26     -0.81      0.00
   -2    9   26      0.22      0.00
   -1    9   26     -0.51      0.00
    0    9   26      0.40      0.00
    1    9   26      1.94      0.00
    2    9   26      1.37      0.00
    3    9   26     -0.07      0.00
   -5   10   26      2.27      0.00
   -4   10   26     -0.32      0.00
   -3   10   26     -0.94      0.00
   -2   10   26     -0.27      0.00
   -1   10   26     -0.11      0.00
    0   10   26      0.55      0.00
    1   10   26      1.05      0.00
    2   10   26      0.47      0.00
   -9    0   27     -0.24      0.00
   -7    0   27      1.28      0.00
   -5    0   27     -3.34      0.00
   -3    0   27      0.69      0.00
   -1    0   27     -0.95      0.00
    1    0   27      2.60      0.00
    3    0   27     -3.02      0.00
    5    0   27     -1.12      0.00
   -9    1   27     -0.94      0.00
   -8    1   27      0.44      0.00
   -7    1   27      1.16      0.00
   -6    1   27     -2.01      0.00
   -5    1   27      0.93      0.00
   -4    1   27      0.18      0.00
   -3    1   27      0.39      0.00
   -2    1   27     -0.22      0.00
   -1    1   27      0.17      0.00
    0    1   27     -0.37      0.00
    1    1   27     -1.69      0.00
    2    1   27     -1.01      0.00
    3    1   27      1.87      0.00
    4    1   27     -0.52      0.00
    5    1   27      0.89      0.00
    6    1   27      0.68      0.00
   -9    2   27      0.00      0.00
   -8    2   27      1.21      0.00
   -7    2   27     -1.22      0.00
   -6    2   27      0.25      0.00
   -5    2   27     -1.45      0.00
   -4    2   27     -2.14      0.00
   -3    2   27      1.05      0.00
   -2    2   27     -0.62      0.00
   -1    2   27     -1.52      0.00
    0    2   27     -0.60      0.00
    1    2   27      2.49      0.00
    2    2   27      1.88      0.00
    3    2   27     -0.16      0.00
    4    2   27     -0.48      0.00
    5    2   27      0.57      0.00
    6    2   27     -0.62      0.00
   -9    3   27     -0.42      0.00
   -8    3   27     -1.15      0.00
   -7    3   27     -0.17      0.00
   -6    3   27     -0.54      0.00
   -5    3   27     -0.96      0.00
   -4    3   27      0.65      0.00
   -3    3   27      0.04      0.00
   -2    3   27     -0.21      0.00
   -1    3   27      0.01      0.00
    0    3   27      1.47      0.00
    1    3   27     -1.38      0.00
    2    3   27     -0.11      0.00
    3    3   27      0.71      0.00
    4    3   27     -1.15      0.00
    5    3   27     -0.73      0.00
    6    3   27     -0.22      0.00
   -8    4   27      0.41      0.00
   -7    4   27      0.49      0.00
   -6    4   27     -0.15      0.00
   -5    4   27      0.19      0.00
   -4    4   27     -0.40      0.00
   -3    4   27      0.80      0.00
   -2    4   27      0.86      0.00
   -1    4   27      0.03      0.00
    0    4   27     -0.99      0.00
    1    4   27      0.35      0.00
    2    4   27      0.16      0.00
    3    4   27      0.06      0.00
    4    4   27     -1.52      0.00
    5    4   27     -0.63      0.00
   -8    5   27      0.46      0.00
   -7    5   27      0.85      0.00
   -6    5   27     -1.53      0.00
   -5    5   27      1.63      0.00
   -4    5   27      0.34      0.00
   -3    5   27      0.03      0.00
   -2    5   27      1.36      0.00
   -1    5   27     -0.23      0.00
    0    5   27      1.13      0.00
    1    5   27     -2.21      0.00
    2    5   27     -0.99      0.00
    3    5   27      1.42      0.00
    4    5   27     -0.84      0.00
    5    5   27      0.71      0.00
   -7    6   27     -0.42      0.00
   -6    6   27     -0.50      0.00
   -5    6   27      1.66      0.00
   -4    6   27     -1.02      0.00
   -3    6   27      1.21      0.00
   -2    6   27      0.38      0.00
   -1    6   27      0.86      0.00
    0    6   27     -0.19      0.00
    1    6   27     -2.10      0.00
    2    6   27      0.99      0.00
    3    6   27      0.24      0.00
    4    6   27      0.89      0.00
   -7    7   27     -1.79      0.00
   -6    7   27     -1.11      0.00
   -5    7   27     -0.34      0.00
   -4    7   27     -0.04      0.00
   -3    7   27      0.12      0.00
   -2    7   27     -0.20      0.00
   -1    7   27     -0.13      0.00
    0    7   27     -1.26      0.00
    1    7   27     -0.63      0.00
    2    7   27     -0.65      0.00
    3    7   27      0.09      0.00
    4    7   27      0.85      0.00
   -5    8   27      0.07      0.00
   -4    8   27      0.66      0.00
   -3    8   27     -0.20      0.00
   -2    8   27     -0.96      0.00
   -1    8   27      0.07      0.00
    0    8   27      1.74      0.00
    1    8   27      1.69      0.00
    2    8   27     -0.15      0.00
   -4    9   27      0.20      0.00
   -3    9   27     -0.38      0.00
   -2    9   27      0.40      0.00
   -1    9   27      0.60      0.00
    0    9   27      2.04      0.00
    1    9   27     -0.45      0.00
   -8    0   28     -0.04      0.00
   -6    0   28     -2.65      0.00
   -4    0   28      2.34      0.00
   -2    0   28     -1.73      0.00
    0    0   28      1.55      0.00
    2    0   28     -3.86      0.00
    4    0   28      0.21      0.00
   -8    1   28      0.99      0.00
   -7    1   28     -0.96      0.00
   -6    1   28     -1.14      0.00
   -5    1   28      0.83      0.00
   -4    1   28     -0.02      0.00
   -3    1   28      0.02      0.00
   -2    1   28     -1.11      0.00
   -1    1   28      0.00      0.00
    0    1   28      0.07      0.00
    1    1   28      0.08      0.00
    2    1   28      2.43      0.00
    3    1   28      0.30      0.00
    4    1   28     -0.79      0.00
    5    1   28      0.66      0.00
   -8    2   28     -0.36      0.00
   -7    2   28     -0.65      0.00
   -6    2   28      0.69      0.00
   -5    2   28     -2.61      0.00
   -4    2   28      1.38      0.00
   -3    2   28      0.20      0.00
   -2    2   28     -1.00      0.00
   -1    2   28     -0.79      0.00
    0    2   28      1.57      0.00
    1    2   28      1.20      0.00
    2    2   28     -2.25      0.00
    3    2   28     -2.09      0.00
    4    2   28      0.89      0.00
    5    2   28     -0.25      0.00
   -7    3   28      1.86      0.00
   -6    3   28     -0.61      0.00
   -5    3   28      0.14      0.00
   -4    3   28      0.73      0.00
   -3    3   28      0.92      0.00
   -2    3   28      0.49      0.00
   -1    3   28      0.45      0.00
    0    3   28     -0.60      0.00
    1    3   28     -0.87      0.00
    2    3   28      1.05      0.00
    3    3   28      0.22      0.00
    4    3   28     -0.41      0.00
   -7    4   28     -0.17      0.00
   -6    4   28      0.30      0.00
   -5    4   28     -0.72      0.00
   -4    4   28      0.19      0.00
   -3    4   28      1.86      0.00
   -2    4   28     -0.60      0.00
   -1    4   28     -1.24      0.00
    0    4   28     -0.93      0.00
    1    4   28      0.77      0.00
    2    4   28      0.37      0.00
    3    4   28     -0.68      0.00
    4    4   28      0.24      0.00
   -6    5   28      1.05      0.00
   -5    5   28     -0.52      0.00
   -4    5   28      0.19      0.00
   -3    5   28      2.01      0.00
   -2    5   28     -0.08      0.00
   -1    5   28     -0.13      0.00
    0    5   28      0.04      0.00
    1    5   28     -1.04      0.00
    2    5   28      2.37      0.00
    3    5   28      0.10      0.00
   -5    6   28     -1.53      0.00
   -4    6   28      1.30      0.00
   -3    6   28      1.37      0.00
   -2    6   28     -1.43      0.00
   -1    6   28      0.52      0.00
    0    6   28     -1.91      0.00
    1    6   28     -0.09      0.00
    2    6   28      0.67      0.00
   -4    7   28      1.02      0.00
   -3    7   28     -0.98      0.00
   -2    7   28      0.16      0.00
   -1    7   28      0.36      0.00
    0    7   28     -0.38      0.00
    1    7   28      0.70      0.00
   -5    0   29      1.84      0.00
   -3    0   29     -1.03      0.00
   -1    0   29      0.76      0.00
    1    0   29     -2.26      0.00
    3    0   29      1.66      0.00
   -6    1   29      0.22      0.00
   -5    1   29      0.39      0.00
   -4    1   29     -0.01      0.00
   -3    1   29     -1.35      0.00
   -2    1   29     -0.24      0.00
   -1    1   29      0.30      0.00
    0    1   29     -0.36      0.00
    1    1   29      0.55      0.00
    2    1   29      0.55      0.00
    3    1   29     -2.64      0.00
   -6    2   29     -1.13      0.00
   -5    2   29      0.51      0.00
   -4    2   29      0.97      0.00
   -3    2   29     -1.02      0.00
   -2    2   29      0.23      0.00
   -1    2   29      0.39      0.00
    0    2   29      0.83      0.00
    1    2   29     -0.62      0.00
    2    2   29     -1.50      0.00
    3    2   29      2.09      0.00
   -5    3   29      1.08      0.00
   -4    3   29      0.13      0.00
   -3    3   29      0.62      0.00
   -2    3   29     -0.14      0.00
   -1    3   29     -0.12      0.00
    0    3   29     -0.23      0.00
    1    3   29      0.56      0.00
    2    3   29      0.99      0.00
   -5    4   29     -0.49      0.00
   -4    4   29      1.63      0.00
   -3    4   29      0.00      0.00
   -2    4   29     -0.47      0.00
   -1    4   29     -0.50      0.00
    0    4   29      0.70      0.00
    1    4   29      0.64      0.00
   -4    5   29      2.67      0.00
   -3    5   29      0.42      0.00
   -2    5   29     -0.43      0.00
   -1    5   29      0.14      0.00
    0    5   29     -0.64      0.00
   -2    0   30     -0.64      0.00
   -2    1   30      0.27      0.00
   -1    1   30      0.37      0.00
    0    1    0     58.50      0.00
    1    1    0   -173.30      0.00
   18    6    0     -0.54      0.00
   17    9    0      0.10      0.00
   15   13    0      1.60      0.00
    9   19    0      0.33      0.00
    5   21    0     -0.68      0.00
   -1    0    1    276.71      0.00
    1    0    1   -289.19      0.00
    0    1    1   -176.08      0.00
  -18    6    1      0.16      0.00
  -17    9    1      0.21      0.00
   16   11    1      0.24      0.00
  -15   13    1      1.10      0.00
   -9   19    1     -0.20      0.00
    9   19    1     -0.22      0.00
    7   20    1     -0.84      0.00
   -5   21    1      0.44      0.00
    0    0    2   -122.16      0.00
   18    5    2     -0.79      0.00
  -18    6    2     -0.32      0.00
  -17    9    2     -0.49      0.00
   16   11    2      0.10      0.00
  -15   13    2     -0.76      0.00
   -9   19    2     -0.13      0.00
    9   19    2     -0.10      0.00
    7   20    2      0.82      0.00
   -5   21    2     -0.68      0.00
  -18    6    3     -1.22      0.00
  -17    9    3     -0.32      0.00
  -15   13    3     -0.83      0.00
   14   14    3     -1.98      0.00
   10   18    3      0.56      0.00
   -9   19    3     -0.68      0.00
   -7   20    3      0.51      0.00
    7   20    3      0.56      0.00
    4   21    3      0.68      0.00
   18    4    4     -0.35      0.00
  -18    6    4     -0.28      0.00
   17    8    4     -0.36      0.00
  -17    9    4      0.17      0.00
  -15   13    4      1.24      0.00
   13   15    4      0.24      0.00
   10   18    4      2.62      0.00
   -9   19    4     -1.26      0.00
   -7   20    4      0.48      0.00
   -4   21    4     -1.07      0.00
    4   21    4     -0.97      0.00
   18    2    5      0.64      0.00
   18    3    5     -0.47      0.00
  -18    6    5     -0.04      0.00
  -17    9    5     -0.93      0.00
   16   10    5     -1.31      0.00
  -16   11    5      0.36      0.00
   15   12    5     -0.04      0.00
   12   16    5      2.56      0.00
   11   17    5      0.56      0.00
   -7   20    5      0.04      0.00
   -4   21    5      0.08      0.00
    3   21    5     -0.25      0.00
   18    0    6      0.52      0.00
   18    1    6      0.31      0.00
   17    7    6     -0.81      0.00
  -16   11    6     -0.95      0.00
  -14   14    6     -0.83      0.00
  -10   18    6     -0.74      0.00
    8   19    6      1.57      0.00
    6   20    6      0.36      0.00
   -3   21    6      0.60      0.00
    3   21    6     -0.05      0.00
  -18    5    7     -0.13      0.00
   17    6    7     -1.45      0.00
   16    9    7      0.02      0.00
   14   13    7      0.61      0.00
  -14   14    7      0.76      0.00
  -10   18    7     -1.01      0.00
    9   18    7      1.49      0.00
   -6   20    7      0.52      0.00
   -3   21    7      0.88      0.00
   -2   21    7     -1.71      0.00
    1   21    7     -0.11      0.00
    2   21    7      0.32      0.00
   17    5    8     -0.54      0.00
  -17    8    8      0.32      0.00
   13   14    8      0.84      0.00
  -13   15    8      0.10      0.00
  -12   16    8      0.52      0.00
  -11   17    8     -2.33      0.00
   10   17    8      0.58      0.00
   -8   19    8     -0.03      0.00
    7   19    8     -1.39      0.00
   -6   20    8     -0.32      0.00
    5   20    8      1.38      0.00
   -1   21    8      1.92      0.00
    0   21    8      0.62      0.00
  -18    4    9     -0.35      0.00
   17    4    9     -0.23      0.00
  -17    8    9      0.84      0.00
   16    8    9      1.31      0.00
  -15   12    9     -0.88      0.00
   14   12    9      1.06      0.00
   -5   20    9      0.56      0.00
    4   20    9      0.47      0.00
   17    1   10     -0.46      0.00
  -18    2   10     -1.23      0.00
   17    2   10      1.11      0.00
  -18    3   10     -0.08      0.00
   16    7   10      0.32      0.00
  -16   10   10     -1.05      0.00
   13   13   10      0.18      0.00
   -9   18   10      1.47      0.00
    8   18   10     -0.57      0.00
   -7   19   10     -1.24      0.00
    6   19   10      0.62      0.00
    3   20   10     -0.32      0.00
  -18    1   11      0.07      0.00
   16    6   11     -0.29      0.00
   15    9   11     -0.69      0.00
   14   11   11      0.40      0.00
  -14   13   11      0.73      0.00
   12   14   11      0.55      0.00
   11   15   11      1.93      0.00
   10   16   11      1.87      0.00
  -10   17   11     -1.21      0.00
   -3   20   11     -1.27      0.00
    2   20   11     -0.93      0.00
   16    5   12     -1.02      0.00
  -17    6   12     -0.14      0.00
   15    8   12      0.55      0.00
  -16    9   12      0.57      0.00
  -15   11   12      1.05      0.00
   13   12   12     -1.29      0.00
  -12   15   12     -0.76      0.00
  -11   16   12      0.25      0.00
   -8   18   12      0.02      0.00
   -6   19   12     -0.37      0.00
   -1   20   12     -1.20      0.00
    0   20   12      1.74      0.00
   16    2   13     -0.32      0.00
   16    3   13      0.32      0.00
  -17    5   13      0.72      0.00
   15    7   13     -1.11      0.00
  -16    8   13      0.80      0.00
  -14   12   13     -0.99      0.00
   12   13   13     -1.19      0.00
   11   14   13      0.82      0.00
    9   16   13      0.96      0.00
   -9   17   13      1.00      0.00
    6   18   13     -0.53      0.00
   -5   19   13      0.45      0.00
  -17    4   14      0.97      0.00
   15    6   14     -0.56      0.00
  -13   13   14      0.55      0.00
  -12   14   14     -0.57      0.00
  -11   15   14     -1.34      0.00
  -10   16   14     -0.86      0.00
    7   17   14      1.92      0.00
    5   18   14     -1.81      0.00
   -3   19   14     -0.62      0.00
    2   19   14      0.32      0.00
  -17    0   15     -0.15      0.00
  -17    1   15     -0.95      0.00
  -17    2   15     -0.97      0.00
   15    4   15      0.43      0.00
  -15    9   15     -0.81      0.00
   13   10   15     -0.69      0.00
  -14   11   15     -0.11      0.00
   11   13   15     -0.08      0.00
   10   14   15      0.28      0.00
    9   15   15      0.39      0.00
   -8   17   15     -0.41      0.00
    6   17   15      0.58      0.00
    4   18   15     -1.02      0.00
   15    1   16      1.42      0.00
   14    6   16      0.73      0.00
   13    9   16      0.37      0.00
  -12   13   16      0.98      0.00
  -10   15   16     -1.32      0.00
    7   16   16      0.07      0.00
   -7   17   16      1.25      0.00
    5   17   16     -1.08      0.00
   -4   18   16      0.18      0.00
  -16    4   17     -0.89      0.00
  -13   11   17     -0.30      0.00
   -8   16   17     -0.83      0.00
    6   16   17      0.54      0.00
   -6   17   17     -1.60      0.00
    4   17   17     -0.94      0.00
   -2   18   17      0.59      0.00
   -1   18   17     -0.06      0.00
    0   18   17     -0.88      0.00
  -16    0   18      0.09      0.00
   14    0   18      2.12      0.00
  -16    1   18      0.27      0.00
   14    1   18      0.65      0.00
  -15    6   18      0.08      0.00
   13    6   18      1.16      0.00
   10   12   18      0.64      0.00
  -11   13   18     -0.58      0.00
    9   13   18     -0.83      0.00
  -10   14   18      0.13      0.00
    8   14   18      0.04      0.00
   -7   16   18      0.70      0.00
    5   16   18      1.28      0.00
   -4   17   18     -0.25      0.00
    2   17   18      2.20      0.00
   13    4   19      0.87      0.00
  -12   11   19      0.10      0.00
   10   11   19     -0.40      0.00
   -9   14   19      0.40      0.00
    7   14   19     -0.66      0.00
  -15    1   20      0.51      0.00
  -15    2   20      0.47      0.00
  -14    6   20     -2.32      0.00
   12    6   20      0.73      0.00
   11    8   20      1.26      0.00
  -12   10   20      0.34      0.00
   10   10   20     -0.06      0.00
    6   14   20     -0.13      0.00
   -4   16   20      0.82      0.00
    1   16   20      0.29      0.00
   12    3   21     -0.45      0.00
  -14    4   21      0.59      0.00
  -12    9   21     -1.89      0.00
   -7   14   21     -0.73      0.00
    5   14   21      0.28      0.00
   -5   15   21     -0.40      0.00
  -14    0   22     -0.67      0.00
  -14    1   22      0.89      0.00
   11    4   22     -0.49      0.00
  -13    6   22     -0.03      0.00
   10    7   22      1.02      0.00
  -12    8   22     -1.39      0.00
    9    9   22      0.02      0.00
    5   13   22      0.02      0.00
    3   14   22     -1.67      0.00
   -1   15   22      0.04      0.00
  -13    3   23      1.82      0.00
   10    5   23     -0.38      0.00
    8    9   23      0.30      0.00
    5   12   23     -0.94      0.00
   -6   13   23     -0.34      0.00
   -3   14   23     -0.70      0.00
   -2   14   23      1.50      0.00
   -1   14   23     -0.05      0.00
    0   14   23      0.75      0.00
   10    0   24     -0.95      0.00
   10    1   24     -1.73      0.00
   10    2   24     -0.28      0.00
  -12    4   24     -2.71      0.00
  -11    7   24      0.32      0.00
    7    9   24      0.66      0.00
    6   10   24      0.20      0.00
    5   11   24      0.28      0.00
   -6   12   24     -0.10      0.00
   -3   13   24     -0.85      0.00
    0   13   24     -0.45      0.00
    1   13   24     -0.27      0.00
    9    0   25      0.32      0.00
    9    1   25     -1.04      0.00
    9    2   25     -0.97      0.00
  -11    5   25     -0.66      0.00
  -10    7   25     -1.33      0.00
   -6   11   25      0.24      0.00
    3   11   25      2.75      0.00
   -3   12   25     -0.51      0.00
    0   12   25      1.05      0.00
    1   12   25      0.55      0.00
    8    0   26      1.41      0.00
  -11    1   26      0.68      0.00
    8    1   26     -0.24      0.00
    8    2   26     -1.20      0.00
  -10    5   26      1.16      0.00
    7    5   26      0.75      0.00
    6    7   26      0.41      0.00
   -8    8   26      0.48      0.00
    5    8   26      3.42      0.00
   -7    9   26     -0.83      0.00
    4    9   26      0.23      0.00
   -3   11   26     -0.93      0.00
   -2   11   26      0.60      0.00
   -1   11   26      0.50      0.00
    0   11   26      1.07      0.00
    7    0   27     -0.04      0.00
    7    1   27      0.41      0.00
   -9    4   27     -0.78      0.00
    6    4   27      0.57      0.00
   -8    6   27      2.94      0.00
    5    6   27     -0.20      0.00
   -6    8   27      0.49      0.00
    3    8   27      0.66      0.00
   -5    9   27      0.31      0.00
    2    9   27     -1.10      0.00
   -8    3   28      0.20      0.00
    5    3   28      0.10      0.00
   -7    5   28      0.67      0.00
    4    5   28      0.43      0.00
   -6    6   28      0.33      0.00
    3    6   28     -0.84      0.00
   -5    7   28      0.58      0.00
    2    7   28      0.12      0.00
   -3    8   28     -0.57      0.00
   -2    8   28      1.00      0.00
   -1    8   28      1.12      0.00
    0    8   28      0.41      0.00
   -7    0   29     -0.15      0.00
   -6    3   29     -1.39      0.00
    3    3   29     -0.24      0.00
    2    4   29     -0.14      0.00
    1    5   29      0.40      0.00
   -3    6   29     -2.02      0.00
   -2    6   29     -0.52      0.00
   -1    6   29     -0.14      0.00
    0    6   29     -1.30      0.00
   -4    0   30     -0.55      0.00
    0    0   30     -0.24      0.00
   -4    1   30     -0.88      0.00
   -3    1   30     -0.21      0.00
    0    1   30     -0.27      0.00
   -3    2   30      1.21      0.00
   -2    2   30      0.63      0.00
   -1    2   30      0.40      0.00
    0    2   30      0.79      0.00
   -2    3   30     -0.63      0.00
   -1    3   30     -0.26      0.00
    0    0    0      0.00      0.00
# SQUEEZE RESULTS (Version =  21116)
# Note: Data are Listed for all Voids in the P1 Unit Cell
# i.e. Centre of Gravity, Solvent Accessible Volume,
# Recovered number of Electrons in the Void and
# Details about the Squeezed Material
loop_
  _platon_squeeze_void_nr
  _platon_squeeze_void_average_x
  _platon_squeeze_void_average_y
  _platon_squeeze_void_average_z
  _platon_squeeze_void_volume
  _platon_squeeze_void_count_electrons
  _platon_squeeze_void_content
   1  0.250  0.207  0.250      1021       240 ' '
   2 -0.250  0.793  0.750      1022       240 ' '
   3  0.079  0.499  0.624         7         0 ' '
   4  0.420  0.499  0.876         7         0 ' '
   5  0.579  0.501  0.124         7         0 ' '
   6  0.920  0.501  0.376         7         0 ' '
# Missing Reflections Below sin(th)/lambda = 0.25
loop_
  _platon_missing_refln_index_h
  _platon_missing_refln_index_k
  _platon_missing_refln_index_l
  _platon_missing_refln_theta
    0    1    0     1.148
    1    1    0     1.762
   -1    0    1     1.509
    1    0    1     1.633
    0    1    1     1.416
    0    0    2     1.658
_platon_squeeze_void_probe_radius                  1.20
_platon_squeeze_details
)
TITL gac321    P 1 2/n 1    R = 0.10
CELL   15.2966   17.7385   24.6648     90.00     95.05     90.00
SPGR P2/n
# Solvent Accessible Volume =      2067
# Electrons Found in S.A.V. =       475
# Note: Atoms in Void as Cxxx and Qxxx all others
C101 0.343 0.208 0.085 !       2.87 eA-3
C102 0.296 0.405 0.145 !       2.76 eA-3
C103 0.284 0.904 0.402 !       2.64 eA-3
C104 0.135 0.238 0.443 !       2.52 eA-3
C105 0.250 0.531 0.250 !       2.45 eA-3
C106 0.403 0.250 0.319 !       2.12 eA-3
C107 0.190 0.972 0.126 !       2.09 eA-3
Q108 0.371 0.925 0.309 !       2.09 eA-3
C109 0.224 0.093 0.399 !       2.03 eA-3
C110 0.302 0.486 0.215 !       2.01 eA-3
C111 0.232 0.441 0.319 !       2.01 eA-3
C112 0.378 0.519 0.208 !       1.91 eA-3
C113 0.428 0.216 0.377 !       1.59 eA-3
C114 0.668 0.861 0.884 !       1.52 eA-3
C115 0.381 0.142 0.275 !       1.47 eA-3
Q116 0.311 0.936 0.263 !       1.46 eA-3
C117 0.888 0.843 0.801 !       1.32 eA-3
C118 0.091 0.203 0.359 !       1.25 eA-3
C119 0.651 0.033 0.675 !       1.23 eA-3
C120 0.083 0.327 0.189 !       1.21 eA-3
C121 0.370 0.450 0.218 !       1.17 eA-3
Q122 0.855 0.137 0.068 !       1.12 eA-3
Q123 0.560 0.719 0.109 !       1.08 eA-3
Q124 0.958 0.832 0.329 !       1.00 eA-3
Q125 0.125 0.435 0.369 !       0.99 eA-3
Q126 0.576 0.957 0.770 !       0.93 eA-3
C127 0.643 0.625 0.792 !       0.91 eA-3
C128 0.389 0.393 0.192 !       0.83 eA-3
C129 0.311 0.268 0.273 !       0.82 eA-3
Q130 0.161 0.892 0.033 !       0.79 eA-3
Q131 0.921 0.953 0.794 !       0.76 eA-3
Q132 0.457 0.726 0.106 !       0.73 eA-3
Q133 0.434 0.485 0.108 !       0.68 eA-3
Q134 0.149 0.297 0.476 !       0.67 eA-3
Q135 0.872 1.002 0.437 !       0.67 eA-3
Q136 0.413 1.003 0.307 !       0.65 eA-3
Q137 0.144 0.845 0.757 !       0.62 eA-3
Q138 0.755 0.848 0.142 !       0.62 eA-3
Q139 0.106 0.126 0.290 !       0.61 eA-3
Q140 0.890 0.107 0.127 !       0.59 eA-3
Q141 0.244 0.593 0.532 !       0.58 eA-3
C142 0.910 0.560 0.781 !       0.58 eA-3
Q143 0.888 0.095 0.384 !       0.57 eA-3
C144 0.750 0.750 0.750 !       0.57 eA-3
Q145 0.629 0.028 0.450 !       0.57 eA-3
Q146 0.869 0.981 0.458 !       0.57 eA-3
Q147 0.505 0.694 0.101 !       0.56 eA-3
Q148 0.638 0.091 0.371 !       0.55 eA-3
Q149 0.818 0.545 0.156 !       0.55 eA-3
Q150 0.361 0.377 0.026 !       0.54 eA-3
Q151 0.590 0.325 0.880 !       0.54 eA-3
Q152 0.516 0.545 0.078 !       0.54 eA-3
Q153 0.032 0.846 0.315 !       0.53 eA-3
Q154 0.651 0.093 0.473 !       0.53 eA-3
Q155 0.390 0.657 0.941 !       0.52 eA-3
Q156 0.888 0.575 0.424 !       0.52 eA-3
C157 0.749 0.671 0.887 !       0.52 eA-3
Q158 0.601 0.079 0.760 !       0.52 eA-3
Q159 0.486 0.816 0.164 !       0.51 eA-3
Q160 0.814 0.530 0.196 !       0.51 eA-3
Q161 0.011 0.344 0.017 !       0.51 eA-3
Q162 0.527 0.643 0.031 !       0.50 eA-3
Q163 0.607 0.825 0.419 !       0.50 eA-3
)
;
_shelx_fab_checksum              14596
_platon_squeeze_void_probe_radius 1.20
_olex2_submission_special_instructions 'No special instructions were received'
_oxdiff_exptl_absorpt_empirical_details
;
Empirical correction (ABSPACK) includes:
- Absorption correction using spherical harmonics
- Frame scaling
;
_oxdiff_exptl_absorpt_empirical_full_max 1.448
_oxdiff_exptl_absorpt_empirical_full_min 0.608
loop_
_space_group_symop_operation_xyz
'x, y, z'
'-x+1/2, y, -z+1/2'
'-x, -y, -z'
'x-1/2, -y, z-1/2'
loop_
_atom_site_label
_atom_site_type_symbol
_atom_site_fract_x
_atom_site_fract_y
_atom_site_fract_z
_atom_site_U_iso_or_equiv
_atom_site_adp_type
_atom_site_occupancy
_atom_site_site_symmetry_order
_atom_site_calc_flag
_atom_site_refinement_flags_posn
_atom_site_refinement_flags_adp
_atom_site_refinement_flags_occupancy
_atom_site_disorder_assembly
_atom_site_disorder_group
Cu2 Cu -0.00932(2) 0.71215(2) 0.40020(2) 0.03736(12) Uani 1 1 d . . . . .
Cu1 Cu 0.01127(3) 0.82255(2) 0.33117(2) 0.03971(13) Uani 1 1 d . . . . .
O9 O -0.03247(15) 0.21567(11) 0.54403(8) 0.0423(5) Uani 1 1 d . . . . .
O8 O -0.05543(16) 0.12222(12) 0.60233(8) 0.0459(5) Uani 1 1 d . . . . .
O2 O 0.10831(15) 0.14481(11) 0.65794(9) 0.0428(5) Uani 1 1 d . . . . .
O3 O 0.12860(14) 0.24169(12) 0.60191(9) 0.0436(5) Uani 1 1 d . . . . .
O6 O -0.04283(15) 0.74966(13) 0.27834(9) 0.0479(5) Uani 1 1 d . . . . .
O7 O -0.05109(16) 0.65315(13) 0.33634(9) 0.0509(6) Uani 1 1 d . . . . .
O1M O 0.03832(18) 0.91573(15) 0.27961(10) 0.0546(6) Uani 1 1 d D . . . .
O5 O 0.11269(15) 0.68524(13) 0.38947(9) 0.0466(5) Uani 1 1 d . . . . .
O1D O -0.04193(17) 0.62567(13) 0.45711(11) 0.0570(6) Uani 1 1 d . . . . .
O1 O 0.72462(17) 0.38042(15) 0.44717(11) 0.0598(7) Uani 1 1 d . . . . .
O4 O 0.12615(15) 0.77661(14) 0.32757(9) 0.0499(6) Uani 1 1 d . . . . .
C13 C 0.2498(2) 0.16558(16) 0.63053(13) 0.0415(7) Uani 1 1 d . . . . .
O10 O -0.1539(2) 0.13793(17) 0.11316(11) 0.0751(8) Uani 1 1 d . . . . .
C14 C 0.3006(2) 0.19816(18) 0.59396(14) 0.0453(8) Uani 1 1 d . . . . .
H14 H 0.273652 0.228593 0.565530 0.054 Uiso 1 1 calc R . . . .
C51 C -0.0560(2) 0.14931(17) 0.55537(12) 0.0390(7) Uani 1 1 d . . . . .
C15 C 0.1548(2) 0.18484(16) 0.62975(12) 0.0390(7) Uani 1 1 d . . . . .
C40 C -0.1116(2) 0.63787(18) 0.24570(13) 0.0431(7) Uani 1 1 d . . . . .
C37 C -0.2022(2) 0.55529(19) 0.16429(13) 0.0488(8) Uani 1 1 d . . . . .
H37 H -0.233556 0.527124 0.136135 0.059 Uiso 1 1 calc R . . . .
C23 C 0.2819(2) 0.6336(2) 0.37597(13) 0.0476(8) Uani 1 1 d . . . . .
H23 H 0.246544 0.604040 0.397541 0.057 Uiso 1 1 calc R . . . .
C41 C -0.1131(2) 0.56030(18) 0.24884(13) 0.0441(7) Uani 1 1 d . . . . .
H41 H -0.084295 0.535580 0.279590 0.053 Uiso 1 1 calc R . . . .
C22 C 0.2472(2) 0.6983(2) 0.34970(13) 0.0478(8) Uani 1 1 d . . . . .
C50 C -0.0904(2) 0.12783(17) 0.45605(12) 0.0403(7) Uani 1 1 d . . . . .
H50 H -0.078099 0.179551 0.450232 0.048 Uiso 1 1 calc R . . . .
C45 C -0.1141(2) 0.08101(17) 0.41147(13) 0.0446(8) Uani 1 1 d . . . . .
C12 C 0.2889(2) 0.11944(18) 0.67133(15) 0.0500(8) Uani 1 1 d . . . . .
H12 H 0.253951 0.095777 0.696416 0.060 Uiso 1 1 calc R . . . .
C49 C -0.0849(2) 0.09943(16) 0.50860(12) 0.0391(7) Uani 1 1 d . . . . .
C42 C -0.0641(2) 0.68404(18) 0.29041(14) 0.0448(8) Uani 1 1 d . . . . .
C25 C 0.7865(2) 0.3278(2) 0.47205(14) 0.0521(9) Uani 1 1 d . . . . .
H25A H 0.770585 0.275782 0.460474 0.062 Uiso 1 1 calc R . . . .
H25B H 0.787611 0.330678 0.512189 0.062 Uiso 1 1 calc R . . . .
C36 C -0.1565(2) 0.51793(17) 0.20722(13) 0.0428(7) Uani 1 1 d . . . . .
C34 C -0.1508(3) 0.3703(2) 0.20798(13) 0.0523(9) Uani 1 1 d . . . . .
C44 C -0.1211(3) 0.11124(18) 0.35723(14) 0.0505(8) Uani 1 1 d . . . . .
C46 C -0.1311(3) 0.00503(18) 0.42085(14) 0.0523(9) Uani 1 1 d . . . . .
H46 H -0.146261 -0.027626 0.390966 0.063 Uiso 1 1 calc R . . . .
C24 C 0.1548(2) 0.72126(19) 0.35598(13) 0.0452(8) Uani 1 1 d . . . . .
C30 C -0.1468(3) 0.28946(19) 0.20885(14) 0.0503(8) Uani 1 1 d . . . . .
C35 C -0.1541(2) 0.43774(19) 0.20828(13) 0.0475(8) Uani 1 1 d . . . . .
C21 C 0.2986(2) 0.7402(2) 0.31775(15) 0.0575(9) Uani 1 1 d . . . . .
H21 H 0.274883 0.783706 0.299401 0.069 Uiso 1 1 calc R . . . .
C39 C -0.1559(2) 0.67462(19) 0.20192(15) 0.0522(9) Uani 1 1 d . . . . .
H39 H -0.154321 0.728021 0.199300 0.063 Uiso 1 1 calc R . . . .
C9 C 0.3914(3) 0.1874(2) 0.59774(17) 0.0555(9) Uani 1 1 d . . . . .
C47 C -0.1260(3) -0.02296(18) 0.47320(14) 0.0538(9) Uani 1 1 d . . . . .
H47 H -0.138123 -0.074671 0.479210 0.065 Uiso 1 1 calc R . . . .
C3 C 0.5166(3) 0.3233(2) 0.49859(16) 0.0570(9) Uani 1 1 d . . . . .
C38 C -0.2027(3) 0.6322(2) 0.16204(15) 0.0576(10) Uani 1 1 d . . . . .
H38 H -0.235530 0.657003 0.132767 0.069 Uiso 1 1 calc R . . . .
C32 C -0.1334(3) 0.17425(19) 0.26051(14) 0.0520(9) Uani 1 1 d . . . . .
C6 C 0.5855(3) 0.4325(2) 0.43478(14) 0.0541(9) Uani 1 1 d . . . . .
H6 H 0.609767 0.469891 0.412974 0.065 Uiso 1 1 calc R . . . .
C2 C 0.6055(3) 0.3217(2) 0.49041(14) 0.0536(9) Uani 1 1 d . . . . .
H2 H 0.642480 0.283486 0.506779 0.064 Uiso 1 1 calc R . . . .
C43 C -0.1259(3) 0.13765(18) 0.31269(14) 0.0524(9) Uani 1 1 d . . . . .
C48 C -0.1035(2) 0.02375(18) 0.51680(13) 0.0473(8) Uani 1 1 d . . . . .
H48 H -0.100696 0.004129 0.552749 0.057 Uiso 1 1 calc R . . . .
C18 C 0.3690(2) 0.6126(2) 0.37045(14) 0.0542(9) Uani 1 1 d . . . . .
C26 C 0.8739(2) 0.3483(2) 0.45415(14) 0.0536(9) Uani 1 1 d . . . . .
H26A H 0.919381 0.315614 0.473038 0.064 Uiso 1 1 calc R . . . .
H26B H 0.887663 0.401152 0.464742 0.064 Uiso 1 1 calc R . . . .
C1 C 0.6389(2) 0.3759(2) 0.45844(14) 0.0514(8) Uani 1 1 d . . . . .
C31 C -0.1356(3) 0.25176(19) 0.25886(14) 0.0541(9) Uani 1 1 d . . . . .
H31 H -0.129396 0.279822 0.291781 0.065 Uiso 1 1 calc R . . . .
C5 C 0.4976(2) 0.4346(2) 0.44277(15) 0.0566(9) Uani 1 1 d . . . . .
C17 C 0.4074(2) 0.5472(2) 0.39745(15) 0.0567(9) Uani 1 1 d . . . . .
C33 C -0.1399(3) 0.13295(19) 0.21190(14) 0.0547(9) Uani 1 1 d . . . . .
H33 H -0.138676 0.079411 0.212659 0.066 Uiso 1 1 calc R . . . .
C27 C 0.8771(3) 0.3401(2) 0.39299(15) 0.0588(9) Uani 1 1 d . . . . .
H27A H 0.863731 0.287852 0.382319 0.088 Uiso 1 1 calc GR . . . .
H27B H 0.935819 0.353318 0.383109 0.088 Uiso 1 1 calc GR . . . .
H27C H 0.833688 0.373818 0.374118 0.088 Uiso 1 1 calc GR . . . .
C4 C 0.4634(3) 0.3795(2) 0.47451(16) 0.0606(10) Uani 1 1 d . . . . .
H4 H 0.402649 0.380158 0.479879 0.073 Uiso 1 1 calc R . . . .
C28 C -0.1482(3) 0.1711(2) 0.16278(14) 0.0556(9) Uani 1 1 d . . . . .
C8 C 0.4422(3) 0.2283(2) 0.56134(18) 0.0599(10) Uani 1 1 d . . . . .
C29 C -0.1527(3) 0.24900(19) 0.16116(14) 0.0521(9) Uani 1 1 d . . . . .
H29 H -0.159970 0.274428 0.127160 0.062 Uiso 1 1 calc R . . . .
C10 C 0.4300(3) 0.1408(2) 0.63907(18) 0.0630(11) Uani 1 1 d . . . . .
H10 H 0.491471 0.131803 0.641991 0.076 Uiso 1 1 calc R . . . .
N3D N -0.1434(2) 0.5664(2) 0.50633(16) 0.0790(11) Uani 1 1 d . . . . .
C19 C 0.4198(3) 0.6566(3) 0.33794(16) 0.0628(10) Uani 1 1 d . . . . .
H19 H 0.478802 0.642684 0.333797 0.075 Uiso 1 1 calc R . . . .
C20 C 0.3851(3) 0.7193(3) 0.31222(16) 0.0649(11) Uani 1 1 d . . . . .
H20 H 0.420149 0.748875 0.290417 0.078 Uiso 1 1 calc R . . . .
C16 C 0.4450(3) 0.4950(2) 0.41805(16) 0.0597(10) Uani 1 1 d . . . . .
C7 C 0.4787(3) 0.2688(2) 0.53275(18) 0.0610(10) Uani 1 1 d . . . . .
C11 C 0.3781(3) 0.1081(2) 0.67529(18) 0.0627(11) Uani 1 1 d . . . . .
H11 H 0.404403 0.077116 0.703613 0.075 Uiso 1 1 calc R . . . .
C2D C -0.1169(3) 0.6071(3) 0.4649(2) 0.0779(13) Uani 1 1 d . . . . .
H2D H -0.161685 0.623505 0.438364 0.094 Uiso 1 1 calc R . . . .
C52 C -0.1408(4) 0.0634(3) 0.1106(2) 0.0869(14) Uani 1 1 d . . . . .
H52A H -0.188536 0.035783 0.126686 0.104 Uiso 1 1 calc R . . . .
H52B H -0.084139 0.049416 0.130541 0.104 Uiso 1 1 calc R . . . .
C4D C -0.2350(3) 0.5489(3) 0.5094(2) 0.0932(15) Uani 1 1 d . . . . .
H4DA H -0.270593 0.577585 0.481552 0.140 Uiso 1 1 calc GR . . . .
H4DB H -0.252141 0.562503 0.545506 0.140 Uiso 1 1 calc GR . . . .
H4DC H -0.244500 0.494865 0.503247 0.140 Uiso 1 1 calc GR . . . .
C5D C -0.0832(4) 0.5339(3) 0.5488(2) 0.0948(16) Uani 1 1 d . . . . .
H5DA H -0.024832 0.529200 0.535656 0.142 Uiso 1 1 calc GR . . . .
H5DB H -0.104352 0.483931 0.558455 0.142 Uiso 1 1 calc GR . . . .
H5DC H -0.079844 0.566582 0.580944 0.142 Uiso 1 1 calc GR . . . .
C53 C -0.1404(5) 0.0447(3) 0.0482(2) 0.1014(18) Uani 1 1 d . . . . .
H53A H -0.141221 -0.010592 0.042753 0.122 Uiso 1 1 calc R . . . .
H53B H -0.193363 0.066200 0.027874 0.122 Uiso 1 1 calc R . . . .
C54 C -0.0617(6) 0.0767(5) 0.0278(3) 0.158(3) Uani 1 1 d . . . . .
H54A H -0.054739 0.129076 0.040054 0.238 Uiso 1 1 calc GR . . . .
H54B H -0.067223 0.075118 -0.012052 0.238 Uiso 1 1 calc GR . . . .
H54C H -0.010307 0.047335 0.041793 0.238 Uiso 1 1 calc GR . . . .
C1M C 0.0250(6) 0.9877(3) 0.2975(2) 0.121(3) Uani 1 1 d D . . . .
H1MA H 0.050727 1.023788 0.273369 0.182 Uiso 1 1 calc GR . . . .
H1MB H 0.052992 0.993499 0.334594 0.182 Uiso 1 1 calc GR . . . .
H1MC H -0.038081 0.997225 0.297415 0.182 Uiso 1 1 calc GR . . . .
H1M H 0.085(2) 0.910(3) 0.264(2) 0.12(2) Uiso 1 1 d D . . . .
loop_
_atom_site_aniso_label
_atom_site_aniso_U_11
_atom_site_aniso_U_22
_atom_site_aniso_U_33
_atom_site_aniso_U_23
_atom_site_aniso_U_13
_atom_site_aniso_U_12
Cu2 0.0465(2) 0.0284(2) 0.0360(2) -0.00313(14) -0.00302(16) -0.00047(15)
Cu1 0.0483(2) 0.0342(2) 0.0357(2) -0.00066(15) -0.00180(16) -0.00211(16)
O9 0.0596(14) 0.0301(11) 0.0357(11) -0.0019(9) -0.0039(10) -0.0059(10)
O8 0.0630(14) 0.0359(11) 0.0372(12) 0.0020(9) -0.0039(10) -0.0089(10)
O2 0.0510(13) 0.0277(10) 0.0491(12) 0.0006(9) 0.0010(10) -0.0016(10)
O3 0.0467(12) 0.0341(11) 0.0491(13) 0.0046(10) -0.0016(10) 0.0003(10)
O6 0.0556(14) 0.0435(13) 0.0431(12) -0.0114(10) -0.0032(10) -0.0010(11)
O7 0.0645(15) 0.0401(12) 0.0449(13) -0.0103(10) -0.0129(11) -0.0008(11)
O1M 0.0578(16) 0.0540(15) 0.0511(14) 0.0115(12) -0.0005(12) -0.0063(12)
O5 0.0496(13) 0.0450(13) 0.0452(13) -0.0002(10) 0.0032(10) 0.0060(10)
O1D 0.0532(15) 0.0376(13) 0.0783(17) 0.0158(12) -0.0054(13) -0.0111(11)
O1 0.0563(15) 0.0603(16) 0.0649(16) 0.0142(13) 0.0167(12) 0.0179(12)
O4 0.0504(13) 0.0534(14) 0.0451(13) 0.0040(11) 0.0003(10) 0.0049(11)
C13 0.0511(18) 0.0251(14) 0.0464(17) -0.0014(13) -0.0073(14) -0.0072(13)
O10 0.106(2) 0.0618(18) 0.0573(16) -0.0167(14) 0.0034(15) -0.0120(16)
C14 0.0503(19) 0.0328(16) 0.0511(19) -0.0020(14) -0.0053(15) -0.0001(14)
C51 0.0423(17) 0.0340(16) 0.0397(17) 0.0006(13) -0.0011(13) -0.0005(13)
C15 0.0500(18) 0.0283(15) 0.0371(16) -0.0075(13) -0.0046(14) -0.0038(13)
C40 0.0471(18) 0.0423(17) 0.0389(16) -0.0114(14) -0.0011(14) 0.0052(14)
C37 0.060(2) 0.0426(18) 0.0413(17) -0.0124(14) -0.0078(15) 0.0041(16)
C23 0.0498(19) 0.052(2) 0.0409(17) -0.0052(15) 0.0006(15) 0.0048(16)
C41 0.056(2) 0.0411(17) 0.0340(16) -0.0048(13) -0.0003(14) 0.0045(15)
C22 0.0477(19) 0.058(2) 0.0366(17) -0.0065(15) -0.0010(14) 0.0016(16)
C50 0.0507(18) 0.0277(14) 0.0409(16) -0.0018(13) -0.0045(14) -0.0005(13)
C45 0.061(2) 0.0320(16) 0.0389(17) -0.0006(13) -0.0065(15) -0.0016(15)
C12 0.056(2) 0.0347(17) 0.056(2) 0.0038(15) -0.0096(16) -0.0066(15)
C49 0.0452(17) 0.0313(15) 0.0390(16) -0.0001(12) -0.0055(13) -0.0011(13)
C42 0.0470(18) 0.0384(18) 0.0479(19) -0.0131(15) -0.0013(15) 0.0069(14)
C25 0.061(2) 0.054(2) 0.0416(18) 0.0038(15) 0.0049(16) 0.0145(17)
C36 0.0550(19) 0.0353(16) 0.0380(16) -0.0046(13) 0.0028(14) 0.0007(14)
C34 0.071(2) 0.048(2) 0.0354(17) 0.0035(15) -0.0095(16) -0.0043(17)
C44 0.071(2) 0.0325(16) 0.0452(19) -0.0057(15) -0.0087(17) -0.0036(16)
C46 0.076(2) 0.0341(17) 0.0448(19) -0.0068(14) -0.0098(17) -0.0077(16)
C24 0.0500(19) 0.0453(18) 0.0387(17) -0.0096(15) -0.0053(15) 0.0035(15)
C30 0.067(2) 0.0387(18) 0.0432(18) 0.0044(14) -0.0092(16) -0.0056(16)
C35 0.066(2) 0.0430(19) 0.0322(16) -0.0010(14) -0.0033(15) -0.0018(16)
C21 0.055(2) 0.067(2) 0.049(2) 0.0038(18) -0.0032(17) 0.0029(19)
C39 0.062(2) 0.0351(17) 0.057(2) -0.0106(15) -0.0125(17) 0.0110(16)
C9 0.053(2) 0.0441(19) 0.069(2) -0.0006(17) 0.0020(18) -0.0022(16)
C47 0.075(2) 0.0287(16) 0.055(2) 0.0016(15) -0.0060(18) -0.0112(16)
C3 0.055(2) 0.057(2) 0.059(2) -0.0070(18) 0.0076(18) 0.0026(18)
C38 0.077(3) 0.0406(19) 0.051(2) -0.0083(16) -0.0175(18) 0.0130(17)
C32 0.072(2) 0.0421(19) 0.0390(18) 0.0001(14) -0.0086(16) 0.0007(17)
C6 0.063(2) 0.054(2) 0.0470(19) -0.0007(16) 0.0125(17) 0.0073(18)
C2 0.063(2) 0.051(2) 0.0471(19) -0.0048(16) 0.0076(17) 0.0100(17)
C43 0.080(3) 0.0339(17) 0.0408(19) -0.0014(14) -0.0122(17) -0.0014(17)
C48 0.061(2) 0.0380(17) 0.0409(17) 0.0041(14) -0.0050(15) -0.0074(15)
C18 0.048(2) 0.067(2) 0.0470(19) -0.0074(17) -0.0005(16) 0.0080(18)
C26 0.062(2) 0.0452(19) 0.053(2) -0.0081(16) -0.0008(17) 0.0101(17)
C1 0.053(2) 0.055(2) 0.0483(19) -0.0028(16) 0.0145(16) 0.0102(17)
C31 0.082(3) 0.0375(18) 0.0402(18) -0.0013(14) -0.0098(17) -0.0022(17)
C5 0.056(2) 0.060(2) 0.054(2) -0.0078(18) 0.0037(17) 0.0152(18)
C17 0.050(2) 0.066(2) 0.055(2) -0.0086(19) 0.0068(17) 0.0122(19)
C33 0.079(3) 0.0342(17) 0.049(2) -0.0024(15) -0.0047(18) -0.0048(17)
C27 0.062(2) 0.062(2) 0.054(2) -0.0047(18) 0.0086(18) 0.0036(19)
C4 0.055(2) 0.065(2) 0.063(2) -0.004(2) 0.0096(18) 0.0037(19)
C28 0.074(3) 0.052(2) 0.0390(18) -0.0063(16) -0.0064(17) -0.0095(18)
C8 0.051(2) 0.055(2) 0.073(3) 0.002(2) 0.0037(19) 0.0013(18)
C29 0.074(2) 0.0422(18) 0.0376(17) 0.0042(14) -0.0088(16) -0.0068(17)
C10 0.047(2) 0.046(2) 0.092(3) 0.007(2) -0.011(2) 0.0018(17)
N3D 0.066(2) 0.092(3) 0.078(2) 0.032(2) 0.0014(19) -0.001(2)
C19 0.047(2) 0.082(3) 0.059(2) -0.002(2) 0.0053(17) 0.011(2)
C20 0.055(2) 0.084(3) 0.057(2) 0.011(2) 0.0071(18) -0.004(2)
C16 0.056(2) 0.065(2) 0.058(2) -0.0075(19) 0.0060(18) 0.012(2)
C7 0.055(2) 0.056(2) 0.072(3) -0.003(2) 0.006(2) 0.0039(19)
C11 0.063(2) 0.0389(19) 0.082(3) 0.0138(19) -0.017(2) -0.0002(17)
C2D 0.081(3) 0.063(3) 0.086(3) 0.020(2) -0.011(3) 0.005(2)
C52 0.111(4) 0.069(3) 0.080(3) 0.011(2) 0.004(3) 0.006(3)
C4D 0.083(3) 0.092(4) 0.105(4) 0.007(3) 0.008(3) 0.003(3)
C5D 0.093(4) 0.091(4) 0.097(4) 0.021(3) -0.010(3) -0.002(3)
C53 0.137(5) 0.085(4) 0.084(4) -0.041(3) 0.017(3) 0.001(3)
C54 0.192(9) 0.185(9) 0.104(5) -0.031(5) 0.044(5) 0.002(7)
C1M 0.246(8) 0.046(3) 0.071(3) 0.009(2) 0.013(4) 0.002(4)
loop_
_atom_type_symbol
_atom_type_description
_atom_type_scat_dispersion_real
_atom_type_scat_dispersion_imag
_atom_type_scat_source
C C 0.0033 0.0016 'International Tables Vol C Tables 4.2.6.8 and 6.1.1.4'
H H 0.0000 0.0000 'International Tables Vol C Tables 4.2.6.8 and 6.1.1.4'
Cu Cu 0.3201 1.2651 'International Tables Vol C Tables 4.2.6.8 and 6.1.1.4'
N N 0.0061 0.0033 'International Tables Vol C Tables 4.2.6.8 and 6.1.1.4'
O O 0.0106 0.0060 'International Tables Vol C Tables 4.2.6.8 and 6.1.1.4'
loop_
_geom_angle_atom_site_label_1
_geom_angle_atom_site_label_2
_geom_angle_atom_site_label_3
_geom_angle
_geom_angle_site_symmetry_1
_geom_angle_site_symmetry_3
_geom_angle_publ_flag
O9 Cu2 Cu1 85.24(6) 3_566 . ?
O9 Cu2 O3 89.49(9) 3_566 3_566 ?
O9 Cu2 O7 170.95(9) 3_566 . ?
O9 Cu2 O5 89.90(10) 3_566 . ?
O9 Cu2 O1D 95.05(9) 3_566 . ?
O3 Cu2 Cu1 80.74(6) 3_566 . ?
O3 Cu2 O1D 92.59(10) 3_566 . ?
O7 Cu2 Cu1 85.76(7) . . ?
O7 Cu2 O3 88.02(10) . 3_566 ?
O7 Cu2 O5 90.48(10) . . ?
O7 Cu2 O1D 93.76(10) . . ?
O5 Cu2 Cu1 85.67(7) . . ?
O5 Cu2 O3 166.40(9) . 3_566 ?
O5 Cu2 O1D 100.99(10) . . ?
O1D Cu2 Cu1 173.33(7) . . ?
O8 Cu1 Cu2 83.32(6) 3_566 . ?
O8 Cu1 O1M 92.30(9) 3_566 . ?
O2 Cu1 Cu2 87.98(6) 3_566 . ?
O2 Cu1 O8 89.70(10) 3_566 3_566 ?
O2 Cu1 O6 86.66(9) 3_566 . ?
O2 Cu1 O1M 94.86(10) 3_566 . ?
O6 Cu1 Cu2 82.65(7) . . ?
O6 Cu1 O8 165.62(10) . 3_566 ?
O6 Cu1 O1M 101.86(10) . . ?
O1M Cu1 Cu2 174.78(7) . . ?
O4 Cu1 Cu2 82.99(7) . . ?
O4 Cu1 O8 90.08(10) . 3_566 ?
O4 Cu1 O2 170.93(9) . 3_566 ?
O4 Cu1 O6 91.34(10) . . ?
O4 Cu1 O1M 94.20(10) . . ?
C51 O9 Cu2 122.44(19) . 3_566 ?
C51 O8 Cu1 123.40(19) . 3_566 ?
C15 O2 Cu1 119.3(2) . 3_566 ?
C15 O3 Cu2 125.9(2) . 3_566 ?
C42 O6 Cu1 123.9(2) . . ?
C42 O7 Cu2 120.5(2) . . ?
C1M O1M Cu1 118.9(3) . . ?
C24 O5 Cu2 120.6(2) . . ?
C2D O1D Cu2 124.3(3) . . ?
C1 O1 C25 119.1(3) . . ?
C24 O4 Cu1 124.8(2) . . ?
C14 C13 C15 120.3(3) . . ?
C14 C13 C12 119.5(3) . . ?
C12 C13 C15 120.0(3) . . ?
C52 O10 C28 118.2(4) . . ?
C13 C14 C9 121.2(3) . . ?
O9 C51 C49 116.8(3) . . ?
O8 C51 O9 125.5(3) . . ?
O8 C51 C49 117.7(3) . . ?
O2 C15 O3 125.6(3) . . ?
O2 C15 C13 117.5(3) . . ?
O3 C15 C13 116.8(3) . . ?
C41 C40 C42 120.7(3) . . ?
C41 C40 C39 120.2(3) . . ?
C39 C40 C42 119.0(3) . . ?
C38 C37 C36 120.6(3) . . ?
C22 C23 C18 119.9(3) . . ?
C40 C41 C36 120.4(3) . . ?
C23 C22 C24 120.1(3) . . ?
C21 C22 C23 119.6(3) . . ?
C21 C22 C24 120.3(3) . . ?
C49 C50 C45 120.6(3) . . ?
C50 C45 C44 120.2(3) . . ?
C46 C45 C50 118.8(3) . . ?
C46 C45 C44 121.0(3) . . ?
C11 C12 C13 119.9(4) . . ?
C50 C49 C51 119.9(3) . . ?
C50 C49 C48 119.4(3) . . ?
C48 C49 C51 120.8(3) . . ?
O6 C42 O7 126.5(3) . . ?
O6 C42 C40 116.7(3) . . ?
O7 C42 C40 116.7(3) . . ?
O1 C25 C26 106.9(3) . . ?
C37 C36 C41 118.8(3) . . ?
C37 C36 C35 120.2(3) . . ?
C41 C36 C35 121.0(3) . . ?
C35 C34 C30 178.8(4) . . ?
C43 C44 C45 178.5(4) . . ?
C47 C46 C45 120.4(3) . . ?
O5 C24 C22 118.1(3) . . ?
O4 C24 O5 125.8(3) . . ?
O4 C24 C22 116.1(3) . . ?
C31 C30 C34 119.5(3) . . ?
C29 C30 C34 120.6(3) . . ?
C29 C30 C31 119.9(3) . . ?
C34 C35 C36 178.3(4) . . ?
C22 C21 C20 120.5(4) . . ?
C38 C39 C40 119.0(3) . . ?
C14 C9 C8 118.7(3) . . ?
C14 C9 C10 118.8(4) . . ?
C10 C9 C8 122.4(4) . . ?
C48 C47 C46 120.3(3) . . ?
C2 C3 C7 121.4(4) . . ?
C4 C3 C2 119.8(4) . . ?
C4 C3 C7 118.8(4) . . ?
C37 C38 C39 120.8(3) . . ?
C31 C32 C43 118.5(3) . . ?
C31 C32 C33 119.8(3) . . ?
C33 C32 C43 121.6(3) . . ?
C5 C6 C1 120.3(4) . . ?
C1 C2 C3 119.2(4) . . ?
C44 C43 C32 176.1(4) . . ?
C47 C48 C49 120.5(3) . . ?
C23 C18 C17 121.6(4) . . ?
C23 C18 C19 119.1(4) . . ?
C19 C18 C17 119.3(3) . . ?
C25 C26 C27 112.2(3) . . ?
O1 C1 C6 114.3(3) . . ?
O1 C1 C2 124.9(3) . . ?
C2 C1 C6 120.8(3) . . ?
C32 C31 C30 120.3(3) . . ?
C6 C5 C4 119.0(4) . . ?
C6 C5 C16 118.3(4) . . ?
C4 C5 C16 122.6(4) . . ?
C16 C17 C18 174.8(4) . . ?
C28 C33 C32 119.2(3) . . ?
C5 C4 C3 120.8(4) . . ?
O10 C28 C33 125.0(3) . . ?
O10 C28 C29 114.1(3) . . ?
C33 C28 C29 120.9(3) . . ?
C7 C8 C9 172.6(4) . . ?
C30 C29 C28 119.8(3) . . ?
C11 C10 C9 119.4(4) . . ?
C2D N3D C4D 121.0(4) . . ?
C2D N3D C5D 123.3(4) . . ?
C4D N3D C5D 115.7(4) . . ?
C20 C19 C18 120.5(4) . . ?
C19 C20 C21 120.4(4) . . ?
C17 C16 C5 175.3(5) . . ?
C8 C7 C3 174.5(4) . . ?
C10 C11 C12 121.3(3) . . ?
O1D C2D N3D 127.8(4) . . ?
O10 C52 C53 105.5(4) . . ?
C54 C53 C52 109.2(5) . . ?
loop_
_geom_bond_atom_site_label_1
_geom_bond_atom_site_label_2
_geom_bond_distance
_geom_bond_site_symmetry_2
_geom_bond_publ_flag
Cu2 Cu1 2.6321(5) . ?
Cu2 O9 1.946(2) 3_566 ?
Cu2 O3 1.996(2) 3_566 ?
Cu2 O7 1.951(2) . ?
Cu2 O5 1.967(2) . ?
Cu2 O1D 2.167(2) . ?
Cu1 O8 1.978(2) 3_566 ?
Cu1 O2 1.959(2) 3_566 ?
Cu1 O6 1.966(2) . ?
Cu1 O1M 2.148(2) . ?
Cu1 O4 1.946(2) . ?
O9 C51 1.269(4) . ?
O8 C51 1.254(4) . ?
O2 C15 1.257(4) . ?
O3 C15 1.265(4) . ?
O6 C42 1.252(4) . ?
O7 C42 1.258(4) . ?
O1M C1M 1.372(5) . ?
O5 C24 1.264(4) . ?
O1D C2D 1.223(5) . ?
O1 C25 1.429(4) . ?
O1 C1 1.366(4) . ?
O4 C24 1.262(4) . ?
C13 C14 1.370(5) . ?
C13 C15 1.491(5) . ?
C13 C12 1.391(4) . ?
O10 C28 1.354(4) . ?
O10 C52 1.339(5) . ?
C14 C9 1.396(5) . ?
C51 C49 1.490(4) . ?
C40 C41 1.379(5) . ?
C40 C42 1.508(4) . ?
C40 C39 1.387(5) . ?
C37 C36 1.385(5) . ?
C37 C38 1.366(5) . ?
C23 C22 1.398(5) . ?
C23 C18 1.401(5) . ?
C41 C36 1.393(4) . ?
C22 C24 1.492(5) . ?
C22 C21 1.380(5) . ?
C50 C45 1.400(4) . ?
C50 C49 1.386(4) . ?
C45 C44 1.437(5) . ?
C45 C46 1.396(5) . ?
C12 C11 1.375(5) . ?
C49 C48 1.391(4) . ?
C25 C26 1.490(5) . ?
C36 C35 1.423(5) . ?
C34 C30 1.436(5) . ?
C34 C35 1.197(5) . ?
C44 C43 1.191(5) . ?
C46 C47 1.379(5) . ?
C30 C31 1.400(5) . ?
C30 C29 1.374(5) . ?
C21 C20 1.392(6) . ?
C39 C38 1.386(5) . ?
C9 C8 1.435(6) . ?
C9 C10 1.403(5) . ?
C47 C48 1.377(5) . ?
C3 C2 1.392(5) . ?
C3 C4 1.387(6) . ?
C3 C7 1.438(6) . ?
C32 C43 1.437(5) . ?
C32 C31 1.376(5) . ?
C32 C33 1.401(5) . ?
C6 C1 1.390(5) . ?
C6 C5 1.376(5) . ?
C2 C1 1.371(5) . ?
C18 C17 1.437(6) . ?
C18 C19 1.403(6) . ?
C26 C27 1.521(5) . ?
C5 C4 1.383(6) . ?
C5 C16 1.443(5) . ?
C17 C16 1.181(5) . ?
C33 C28 1.383(5) . ?
C28 C29 1.384(5) . ?
C8 C7 1.181(6) . ?
C10 C11 1.374(6) . ?
N3D C2D 1.343(6) . ?
N3D C4D 1.444(6) . ?
N3D C5D 1.452(6) . ?
C19 C20 1.365(6) . ?
C52 C53 1.577(7) . ?
C53 C54 1.459(10) . ?
loop_
_platon_squeeze_void_nr
_platon_squeeze_void_average_x
_platon_squeeze_void_average_y
_platon_squeeze_void_average_z
_platon_squeeze_void_volume
_platon_squeeze_void_count_electrons
_platon_squeeze_void_content
1 0.250 0.207 0.250 1021 240 ' '
2 -0.250 0.793 0.750 1022 240 ' '
3 0.079 0.499 0.624 7 0 ' '
4 0.420 0.499 0.876 7 0 ' '
5 0.579 0.501 0.124 7 0 ' '
6 0.920 0.501 0.376 7 0 ' '
