#------------------------------------------------------------------------------
#$Date: 2020-06-05 12:42:00 +0300 (Fri, 05 Jun 2020) $
#$Revision: 252681 $
#$URL: file:///home/coder/svn-repositories/cod/cif/7/12/64/7126487.cif $
#------------------------------------------------------------------------------
#
# This file is available in the Crystallography Open Database (COD),
# http://www.crystallography.net/
#
# All data on this site have been placed in the public domain by the
# contributors.
#
data_7126487
loop_
_publ_author_name
'Chen, Jing'
'Chao, Meng-Yao'
'Yan Liu, ?'
'Xu, Bo-Wei'
'Zhang, Wen-Hua'
'Young, David J.'
_publ_section_title
;
 An N,N'-diethylformamide solvent-induced conversion cascade within a
 metal-organic framework single crystal.
;
_journal_issue                   44
_journal_name_full
'Chemical communications (Cambridge, England)'
_journal_page_first              5877
_journal_page_last               5880
_journal_paper_doi               10.1039/d0cc02420a
_journal_volume                  56
_journal_year                    2020
_chemical_formula_sum            'C83.5 H62.1 Cd3 N5.1 O13.5'
_chemical_formula_weight         1690.08
_space_group_crystal_system      triclinic
_space_group_IT_number           2
_space_group_name_Hall           '-P 1'
_space_group_name_H-M_alt        'P -1'
_atom_sites_solution_hydrogens   geom
_audit_creation_method           SHELXL-2016/6
_audit_update_record
;
2020-01-17 deposited with the CCDC.	2020-04-28 downloaded from the CCDC.
;
_cell_angle_alpha                90.241(5)
_cell_angle_beta                 110.656(5)
_cell_angle_gamma                117.102(4)
_cell_formula_units_Z            2
_cell_length_a                   16.377(3)
_cell_length_b                   17.024(4)
_cell_length_c                   20.123(4)
_cell_measurement_reflns_used    692
_cell_measurement_temperature    296(2)
_cell_measurement_theta_max      24.71
_cell_measurement_theta_min      2.91
_cell_volume                     4580.7(17)
_computing_structure_refinement  'SHELXL-2016/6 (Sheldrick, 2016)'
_computing_structure_solution    'SHELXT 2014/5 (Sheldrick, 2014)'
_diffrn_ambient_temperature      296(2)
_diffrn_measured_fraction_theta_full 0.999
_diffrn_measured_fraction_theta_max 0.999
_diffrn_measurement_device_type  'Bruker APEX-II CCD'
_diffrn_measurement_method       '\f and \w scans'
_diffrn_radiation_type           MoK\a
_diffrn_radiation_wavelength     0.71073
_diffrn_reflns_av_R_equivalents  0.0700
_diffrn_reflns_av_unetI/netI     0.0563
_diffrn_reflns_Laue_measured_fraction_full 0.999
_diffrn_reflns_Laue_measured_fraction_max 0.999
_diffrn_reflns_limit_h_max       19
_diffrn_reflns_limit_h_min       -19
_diffrn_reflns_limit_k_max       20
_diffrn_reflns_limit_k_min       -20
_diffrn_reflns_limit_l_max       24
_diffrn_reflns_limit_l_min       -24
_diffrn_reflns_number            100338
_diffrn_reflns_point_group_measured_fraction_full 0.999
_diffrn_reflns_point_group_measured_fraction_max 0.999
_diffrn_reflns_theta_full        25.242
_diffrn_reflns_theta_max         25.681
_diffrn_reflns_theta_min         2.207
_diffrn_standards_decay_%        0
_diffrn_standards_interval_count 0
_diffrn_standards_number         0
_exptl_absorpt_coefficient_mu    0.746
_exptl_absorpt_correction_T_max  0.894
_exptl_absorpt_correction_T_min  0.836
_exptl_absorpt_correction_type   multi-scan
_exptl_absorpt_process_details
;
 Sheldrick, G.M. SADABS (Program for Scaling and Correction of Area Detector
 Data), version 2008/1; University of G\"ottingen: G\"ottingen, Germany, 2008.
;
_exptl_crystal_colour            colourless
_exptl_crystal_density_diffrn    1.225
_exptl_crystal_description       block
_exptl_crystal_F_000             1702
_exptl_crystal_size_max          0.250
_exptl_crystal_size_mid          0.200
_exptl_crystal_size_min          0.150
_refine_diff_density_max         2.995
_refine_diff_density_min         -3.815
_refine_diff_density_rms         0.196
_refine_ls_extinction_method     none
_refine_ls_goodness_of_fit_ref   1.127
_refine_ls_hydrogen_treatment    constr
_refine_ls_matrix_type           full
_refine_ls_number_parameters     931
_refine_ls_number_reflns         17387
_refine_ls_number_restraints     204
_refine_ls_restrained_S_all      1.122
_refine_ls_R_factor_all          0.1627
_refine_ls_R_factor_gt           0.1305
_refine_ls_shift/su_max          0.000
_refine_ls_shift/su_mean         0.000
_refine_ls_structure_factor_coef Fsqd
_refine_ls_weighting_details
'w=1/[\s^2^(Fo^2^)+(0.0284P)^2^+149.5692P] where P=(Fo^2^+2Fc^2^)/3'
_refine_ls_weighting_scheme      calc
_refine_ls_wR_factor_gt          0.2806
_refine_ls_wR_factor_ref         0.2999
_reflns_Friedel_coverage         0.000
_reflns_number_gt                12520
_reflns_number_total             17387
_reflns_threshold_expression     'I > 2\s(I)'
_cod_data_source_file            d0cc02420a2.cif
_cod_data_source_block           CD3-120S
_cod_depositor_comments
'Adding full bibliography for 7126483--7126489.cif.'
_cod_original_cell_volume        4580.8(17)
_cod_original_formula_sum        'C83.50 H62.10 Cd3 N5.10 O13.50'
_cod_database_code               7126487
_publcif_datablock.id            {900f3e82-8494-4516-b57b-0d8cd0e43131}
_shelx_shelxl_version_number     2016/6
_shelx_space_group_comment
;
The symmetry employed for this shelxl refinement is uniquely defined
by the following loop, which should always be used as a source of
symmetry information in preference to the above space-group names.
They are only intended as comments.
;
_shelx_estimated_absorpt_t_min   0.836
_shelx_estimated_absorpt_t_max   0.896
_shelx_res_file
;
TITL b180914d_0ma_a_a.res in P-1
    CD3.res
    created by SHELXL-2016/6 at 00:05:30 on 17-Jan-2020
REM Old TITL b180914d_0ma_a.res in P-1
REM SHELXT solution in P-1
REM R1 0.251, Rweak 0.048, Alpha 0.213, Orientation as input
REM Formula found by SHELXT: C86 N16 O16 Cd3
CELL 0.71073 16.3769 17.0245 20.1227 90.241 110.656 117.102
ZERR 2 0.0034 0.0035 0.0043 0.005 0.005 0.004
LATT 1
SFAC C H N O Cd
UNIT 167 124.2 10.2 27.0 6.0

L.S. 40
PLAN  20
SIZE 0.15 0.2 0.25
TEMP 23
BOND $H
fmap 2
SHEL 9999 0.82
acta
REM <olex2.extras>
REM <HklSrc "%.\\T.hkl">
REM </olex2.extras>
DFIX 1.25 0.02 O13 C25 O14 C84
DFIX 1.32 0.02 C25 N5 C84 N6
DFIX 1.45 0.02 N5 C27 N5 C29 N6 C86 N6 C88
DFIX 1.54 0.02 C26 C27 C28 C29 C85 C86 C87 C88
DANG 2.30 0.04 O13 N5 O14 N6
DANG 2.45 0.04 C25 C27 C25 C29 C84 C86 C84 C88
SIMU O2W O14 N6 C84 C85 C86 C87 C88
DELU O2W O14 N6 C84 C85 C86 C87 C88
EADP O13 N5 C25 C26 C27 C28 C29
EADP C51 C52 C53
SIMU N3 > C24
DELU N3 > C24
EADP C44 C50 O5 O6
EADP O1 O2 C30
ABIN
WGHT    0.028400  149.569199
FVAR       0.21076
CD1   5    0.179580    0.382369    0.556022    11.00000    0.02502    0.02346 =
         0.05208    0.01013    0.01576    0.01131
CD2   5    0.275707    0.292908    0.738276    11.00000    0.02596    0.03282 =
         0.04320    0.00805    0.01266    0.01668
CD3   5    0.361334    0.200513    0.919421    11.00000    0.03402    0.04974 =
         0.05366    0.00549    0.01255    0.02783
O1    4    0.082304    0.339207    0.616458    11.00000    0.02349    0.04902 =
         0.07951    0.02238    0.03100    0.01424
O2    4    0.112122    0.247884    0.690140    11.00000    0.02349    0.04902 =
         0.07951    0.02238    0.03100    0.01424
O3    4   -0.801672    0.266765    0.509818    11.00000    0.05687    0.05366 =
         0.05024    0.00253    0.00736    0.04330
O4    4   -0.711982    0.329635    0.625957    11.00000    0.03173    0.03102 =
         0.05157    0.01283    0.02261    0.02052
O5    4   -0.697780   -0.487362    0.542538    11.00000    0.03809    0.01997 =
         0.08937    0.01235    0.03860    0.00776
O6    4   -0.790108   -0.472651    0.591448    11.00000    0.03809    0.01997 =
         0.08937    0.01235    0.03860    0.00776
O7    4    0.436224    0.323384    0.787519    11.00000    0.02742    0.07530 =
         0.06487    0.02946    0.01449    0.01677
O8    4    0.455727    0.226797    0.856145    11.00000    0.04597    0.03784 =
         0.07242    0.01174    0.02542    0.01925
O9    4    1.336265    1.058610    0.928751    11.00000    0.05538    0.04153 =
         0.16956    0.02819    0.05286    0.01382
O10   4    1.200289    1.044050    0.843327    11.00000    0.11665    0.05958 =
         0.19511    0.06494    0.08335    0.05758
O11   4    1.268741    0.267300    0.850813    11.00000    0.04875    0.05259 =
         0.04832    0.00863    0.01614    0.03767
O12   4    1.381157    0.349724    0.958761    11.00000    0.12059    0.16295 =
         0.06153   -0.02160   -0.02100    0.12801
N1    3    0.055774    0.359477    0.446895    11.00000    0.01305    0.01626 =
         0.06559   -0.00157    0.00439   -0.00532
N2    3   -0.488128    0.255696    0.024235    11.00000    0.03445    0.04453 =
         0.06755    0.01846    0.02486    0.02441
C1    1    0.006497    0.403755    0.435704    11.00000    0.03554    0.05964 =
         0.06318   -0.00412    0.01415    0.02277
AFIX  43
H1A   2    0.023931    0.446572    0.474288    11.00000   -1.20000
AFIX   0
C2    1   -0.068524    0.392475    0.372077    11.00000    0.02747    0.06504 =
         0.08735    0.01444    0.01564    0.03135
AFIX  43
H2A   2   -0.097700    0.429131    0.366554    11.00000   -1.20000
AFIX   0
C3    1   -0.099693    0.324637    0.316065    11.00000    0.03951    0.07014 =
         0.05798    0.00103    0.01048    0.02307
C4    1   -0.051772    0.274866    0.325629    11.00000    0.06107    0.10172 =
         0.05410   -0.00934    0.00009    0.04950
AFIX  43
H4A   2   -0.069442    0.230595    0.288081    11.00000   -1.20000
AFIX   0
C5    1    0.021346    0.291390    0.390454    11.00000    0.07987    0.07341 =
         0.05710    0.00475    0.01362    0.05373
AFIX  43
H5A   2    0.050472    0.254605    0.397639    11.00000   -1.20000
AFIX   0
C6    1   -0.185993    0.298691    0.244666    11.00000    0.05364    0.09670 =
         0.06725    0.01447    0.02078    0.04346
AFIX  43
H6A   2   -0.208898    0.245386    0.214101    11.00000   -1.20000
AFIX   0
C7    1   -0.230218    0.345103    0.223019    11.00000    0.03688    0.06172 =
         0.07920    0.01377    0.01782    0.01937
AFIX  43
H7A   2   -0.206861    0.400151    0.251365    11.00000   -1.20000
AFIX   0
C8    1   -0.321296    0.310650    0.150793    11.00000    0.02549    0.08287 =
         0.08910    0.01702    0.01561    0.02062
C9    1   -0.347555    0.369499    0.118528    11.00000    0.04831    0.07118 =
         0.09742    0.00236   -0.00560    0.02673
AFIX  43
H9A   2   -0.309310    0.430481    0.139415    11.00000   -1.20000
AFIX   0
C10   1   -0.431619    0.339453    0.054112    11.00000    0.05282    0.06118 =
         0.08617   -0.00192   -0.00967    0.02593
AFIX  43
H10A  2   -0.447463    0.381347    0.031926    11.00000   -1.20000
AFIX   0
C11   1   -0.467962    0.193342    0.052686    11.00000    0.08419    0.14702 =
         0.05333    0.00079    0.00535    0.09593
AFIX  43
H11A  2   -0.509223    0.132556    0.031535    11.00000   -1.20000
AFIX   0
C12   1   -0.378904    0.224457    0.118031    11.00000    0.07394    0.07555 =
         0.08750    0.03088    0.02484    0.05845
AFIX  43
H12A  2   -0.360967    0.182663    0.138108    11.00000   -1.20000
AFIX   0
C30   1    0.056214    0.275302    0.649271    11.00000    0.02349    0.04902 =
         0.07951    0.02238    0.03100    0.01424
C31   1   -0.051204    0.225560    0.638226    11.00000    0.01394    0.02191 =
         0.05973    0.00181    0.01606    0.00115
C32   1   -0.116086    0.253530    0.595516    11.00000    0.02551    0.04211 =
         0.06927    0.03383    0.03080    0.01290
AFIX  43
H32A  2   -0.093374    0.302974    0.574039    11.00000   -1.20000
AFIX   0
C33   1   -0.215468    0.206250    0.585521    11.00000    0.01566    0.03796 =
         0.09172    0.01266    0.01584    0.00905
AFIX  43
H33A  2   -0.259398    0.223722    0.555218    11.00000   -1.20000
AFIX   0
C34   1   -0.253419    0.133789    0.618404    11.00000    0.02124    0.02763 =
         0.08779    0.00695    0.02268    0.01028
C35   1   -0.185719    0.109532    0.661757    11.00000    0.02664    0.04128 =
         0.08606    0.03733    0.03083    0.01969
AFIX  43
H35A  2   -0.206840    0.062437    0.685789    11.00000   -1.20000
AFIX   0
C36   1   -0.087683    0.153726    0.670037    11.00000    0.03227    0.05055 =
         0.07081    0.02188    0.01852    0.02323
AFIX  43
H36A  2   -0.044513    0.134206    0.698239    11.00000   -1.20000
AFIX   0
C37   1   -0.733201    0.276977    0.569785    11.00000    0.02523    0.03055 =
         0.05481    0.00566    0.01585    0.01655
C38   1   -0.678152    0.227363    0.572912    11.00000    0.02485    0.02841 =
         0.05520    0.00403    0.01183    0.01844
C39   1   -0.719106    0.148274    0.525220    11.00000    0.01977    0.02921 =
         0.05114   -0.00249    0.00653    0.00972
AFIX  43
H39A  2   -0.783155    0.125389    0.489297    11.00000   -1.20000
AFIX   0
C40   1   -0.666542    0.101893    0.529705    11.00000    0.02589    0.02002 =
         0.06540   -0.01118    0.01148    0.00769
AFIX  43
H40A  2   -0.695941    0.047801    0.497805    11.00000   -1.20000
AFIX   0
C41   1   -0.568952    0.137237    0.582635    11.00000    0.01945    0.02457 =
         0.06615    0.00228    0.01199    0.01059
C42   1   -0.528395    0.216421    0.631460    11.00000    0.02391    0.02232 =
         0.07761    0.00841    0.01348    0.01354
AFIX  43
H42A  2   -0.464375    0.239198    0.667401    11.00000   -1.20000
AFIX   0
C43   1   -0.581105    0.262441    0.627932    11.00000    0.03796    0.04302 =
         0.04894    0.00308    0.01224    0.02977
AFIX  43
H43A  2   -0.553038    0.315169    0.661090    11.00000   -1.20000
AFIX   0
C44   1   -0.719177   -0.436597    0.569853    11.00000    0.03809    0.01997 =
         0.08937    0.01235    0.03860    0.00776
C45   1   -0.662555   -0.337886    0.576577    11.00000    0.03356    0.01744 =
         0.05699    0.01080    0.02816    0.00687
C46   1   -0.587353   -0.300243    0.552618    11.00000    0.04563    0.02127 =
         0.08389    0.01910    0.03894    0.01532
AFIX  43
H46A  2   -0.569657   -0.336781    0.533241    11.00000   -1.20000
AFIX   0
C47   1   -0.537265   -0.208287    0.556905    11.00000    0.03033    0.01739 =
         0.07937    0.01600    0.03419    0.00328
AFIX  43
H47A  2   -0.486286   -0.183619    0.540248    11.00000   -1.20000
AFIX   0
C48   1   -0.562196   -0.152075    0.585872    11.00000    0.02741    0.02038 =
         0.06576    0.01676    0.02564    0.01004
C49   1   -0.637285   -0.190883    0.611163    11.00000    0.03672    0.01602 =
         0.09043    0.00248    0.03977    0.00738
AFIX  43
H49A  2   -0.653971   -0.154622    0.632047    11.00000   -1.20000
AFIX   0
C50   1   -0.686293   -0.280336    0.605863    11.00000    0.03809    0.01997 =
         0.08937    0.01235    0.03860    0.00776
AFIX  43
H50A  2   -0.737655   -0.304924    0.622147    11.00000   -1.20000
AFIX   0
C51   1   -0.360114    0.084831    0.607411    11.00000    0.02483    0.01448 =
         0.07605    0.00957    0.02748    0.00664
C52   1   -0.413557    0.131137    0.601483    11.00000    0.02483    0.01448 =
         0.07605    0.00957    0.02748    0.00664
AFIX  43
H52A  2   -0.380668    0.193367    0.606143    11.00000   -1.20000
AFIX   0
C53   1   -0.515073    0.086337    0.588743    11.00000    0.02483    0.01448 =
         0.07605    0.00957    0.02748    0.00664
C54   1   -0.561130   -0.004940    0.581761    11.00000    0.01653    0.01532 =
         0.08181    0.01176    0.02483    0.00065
AFIX  43
H54A  2   -0.629083   -0.036036    0.571936    11.00000   -1.20000
AFIX   0
C55   1   -0.509956   -0.053508    0.588827    11.00000    0.02934    0.01302 =
         0.07948    0.00510    0.03064    0.00360
C56   1   -0.409296   -0.005830    0.602317    11.00000    0.04526    0.01509 =
         0.08031    0.01906    0.03821    0.02009
AFIX  43
H56A  2   -0.373870   -0.036995    0.608130    11.00000   -1.20000
AFIX   0
C57   1    0.486123    0.293612    0.828863    11.00000    0.03417    0.05673 =
         0.04532   -0.01260    0.01173    0.01866
C58   1    0.597074    0.342706    0.843791    11.00000    0.04206    0.05080 =
         0.04397    0.00582    0.02443    0.02776
C59   1    0.661782    0.310865    0.883396    11.00000    0.04834    0.07832 =
         0.05219   -0.00467    0.00742    0.04271
AFIX  43
H59A  2    0.636941    0.257667    0.900245    11.00000   -1.20000
AFIX   0
C60   1    0.762329    0.359053    0.897085    11.00000    0.05090    0.04108 =
         0.07292    0.01661    0.03220    0.02926
AFIX  43
H60A  2    0.804182    0.336238    0.921127    11.00000   -1.20000
AFIX   0
C61   1    0.801996    0.440570    0.875740    11.00000    0.02586    0.03384 =
         0.07541    0.00087    0.02360    0.01171
C62   1    0.739012    0.472041    0.838838    11.00000    0.03561    0.04986 =
         0.06433    0.01614    0.02482    0.01823
AFIX  43
H62A  2    0.765086    0.527057    0.824654    11.00000   -1.20000
AFIX   0
C63   1    0.636596    0.423587    0.821969    11.00000    0.04203    0.07433 =
         0.07230    0.01924    0.02608    0.04150
AFIX  43
H63A  2    0.594995    0.445792    0.796034    11.00000   -1.20000
AFIX   0
C64   1    1.248835    1.013707    0.887559    11.00000    0.10436    0.07674 =
         0.11692    0.01092    0.04931    0.05875
C65   1    1.200690    0.916443    0.894326    11.00000    0.06250    0.04466 =
         0.10214    0.01594    0.03472    0.03395
C66   1    1.097330    0.860852    0.854524    11.00000    0.06474    0.04238 =
         0.08430    0.02034    0.03317    0.03259
AFIX  43
H66A  2    1.059407    0.884032    0.824641    11.00000   -1.20000
AFIX   0
C67   1    1.052652    0.771410    0.860257    11.00000    0.04257    0.04113 =
         0.08412    0.00927    0.01628    0.02438
AFIX  43
H67A  2    0.984282    0.735447    0.833646    11.00000   -1.20000
AFIX   0
C68   1    1.105912    0.732231    0.904548    11.00000    0.05215    0.04574 =
         0.07357    0.01031    0.02610    0.03279
C69   1    1.207774    0.789547    0.944236    11.00000    0.05819    0.04623 =
         0.07767   -0.00039    0.00690    0.03224
AFIX  43
H69A  2    1.246469    0.767768    0.975210    11.00000   -1.20000
AFIX   0
C70   1    1.250881    0.877579    0.937750    11.00000    0.05700    0.02725 =
         0.08572   -0.00134    0.01237    0.01721
AFIX  43
H70A  2    1.319133    0.913631    0.964743    11.00000   -1.20000
AFIX   0
C71   1    1.303771    0.329424    0.907298    11.00000    0.05319    0.08127 =
         0.04760    0.01451    0.02045    0.04758
C72   1    1.241784    0.372319    0.905884    11.00000    0.06438    0.06492 =
         0.04286    0.01457    0.02181    0.04693
C73   1    1.279641    0.442112    0.962861    11.00000    0.06614    0.08836 =
         0.06235   -0.00918    0.00314    0.06298
AFIX  43
H73A  2    1.342568    0.462915    0.999809    11.00000   -1.20000
AFIX   0
C74   1    1.219917    0.479808    0.962642    11.00000    0.06305    0.07579 =
         0.07260    0.00157    0.02538    0.05321
AFIX  43
H74A  2    1.244056    0.525643    1.001212    11.00000   -1.20000
AFIX   0
C75   1    1.128065    0.453480    0.909186    11.00000    0.05847    0.08844 =
         0.06652    0.02500    0.03430    0.05784
C76   1    1.091276    0.382791    0.853225    11.00000    0.04441    0.07850 =
         0.05151   -0.00422    0.00826    0.04400
AFIX  43
H76A  2    1.027842    0.361522    0.816833    11.00000   -1.20000
AFIX   0
C77   1    1.149251    0.343519    0.851416    11.00000    0.05001    0.05374 =
         0.05533   -0.00414    0.01570    0.03664
AFIX  43
H77A  2    1.124940    0.297461    0.812973    11.00000   -1.20000
AFIX   0
C78   1    0.909135    0.491066    0.889532    11.00000    0.03296    0.02839 =
         0.08006    0.00175    0.02586    0.01019
C79   1    0.957470    0.583529    0.896480    11.00000    0.02815    0.04611 =
         0.07001    0.00230    0.02445    0.01867
AFIX  43
H79A  2    0.921405    0.613126    0.895327    11.00000   -1.20000
AFIX   0
C80   1    1.058099    0.636137    0.905224    11.00000    0.04393    0.04118 =
         0.07587    0.00651    0.02312    0.02962
C81   1    1.112241    0.590443    0.911998    11.00000    0.03890    0.06300 =
         0.07391   -0.00248    0.02190    0.03423
AFIX  43
H81A  2    1.179356    0.622393    0.919433    11.00000   -1.20000
AFIX   0
C82   1    1.066554    0.496961    0.907717    11.00000    0.03545    0.05261 =
         0.07087   -0.00464    0.01995    0.02656
C83   1    0.966485    0.448369    0.895974    11.00000    0.04357    0.04966 =
         0.08534    0.01731    0.04088    0.02766
AFIX  43
H83A  2    0.936773    0.386278    0.892292    11.00000   -1.20000
AFIX   0
N3    3    0.361943    0.450629    0.781529    11.00000    0.08207    0.06197 =
         0.07198    0.01844    0.02970    0.04740
N4    3    0.755428    1.086663    0.866249    11.00000    0.15353    0.08466 =
         0.13113    0.02671    0.07884    0.05343
C13   1    0.449916    0.489452    0.840809    11.00000    0.06027    0.05404 =
         0.08609    0.02422    0.02586    0.02953
AFIX  43
H13A  2    0.465537    0.452863    0.871172    11.00000   -1.20000
AFIX   0
C14   1    0.518135    0.581742    0.858410    11.00000    0.06871    0.06395 =
         0.10576    0.02657    0.02485    0.03314
AFIX  43
H14A  2    0.577517    0.604780    0.899460    11.00000   -1.20000
AFIX   0
C15   1    0.497849    0.638844    0.815212    11.00000    0.09474    0.06195 =
         0.07754    0.02154    0.04340    0.04026
C16   1    0.410004    0.600333    0.753975    11.00000    0.13332    0.07212 =
         0.06048    0.01564    0.02817    0.05452
AFIX  43
H16A  2    0.394988    0.635101    0.721304    11.00000   -1.20000
AFIX   0
C17   1    0.340942    0.504151    0.741220    11.00000    0.10244    0.07870 =
         0.06448    0.01190    0.01954    0.05649
AFIX  43
H17A  2    0.278988    0.479862    0.702492    11.00000   -1.20000
AFIX   0
C18   1    0.565579    0.736009    0.838459    11.00000    0.11356    0.07097 =
         0.09221    0.02893    0.03184    0.04510
AFIX  43
H18A  2    0.616516    0.754947    0.884483    11.00000   -1.20000
AFIX   0
C19   1    0.563700    0.798598    0.803397    11.00000    0.14607    0.07015 =
         0.09979    0.03750    0.04532    0.03059
AFIX  43
H19A  2    0.516769    0.777101    0.755745    11.00000   -1.20000
AFIX   0
C20   1    0.616299    0.889197    0.822049    11.00000    0.16599    0.07337 =
         0.11400    0.02892    0.06579    0.07788
C21   1    0.690535    0.935367    0.893777    11.00000    0.13563    0.07945 =
         0.12445    0.01475    0.06791    0.05396
AFIX  43
H21A  2    0.695882    0.901911    0.929916    11.00000   -1.20000
AFIX   0
C22   1    0.756581    1.030376    0.912177    11.00000    0.13142    0.08593 =
         0.14851    0.03071    0.05136    0.05907
AFIX  43
H22A  2    0.803830    1.054817    0.959601    11.00000   -1.20000
AFIX   0
C23   1    0.688937    1.043678    0.800256    11.00000    0.17020    0.07734 =
         0.12790    0.02805    0.08484    0.05192
AFIX  43
H23A  2    0.682544    1.077940    0.764864    11.00000   -1.20000
AFIX   0
C24   1    0.629274    0.953546    0.780047    11.00000    0.18255    0.06362 =
         0.13721    0.03078    0.06876    0.06730
AFIX  43
H24A  2    0.591554    0.931987    0.730541    11.00000   -1.20000
AFIX   0
O13   4    0.248719    0.174710    0.976603    10.50000    0.05658    0.05361 =
         0.12911    0.05044    0.06239    0.03665
N5    3    0.090495    0.142003    0.958266    10.50000    0.05658    0.05361 =
         0.12911    0.05044    0.06239    0.03665
C25   1    0.159900    0.151822    0.936025    10.50000    0.05658    0.05361 =
         0.12911    0.05044    0.06239    0.03665
AFIX  43
H25A  2    0.142160    0.141024    0.886278    10.50000   -1.20000
AFIX   0
C26   1    0.171941    0.266408    1.069364    10.50000    0.05658    0.05361 =
         0.12911    0.05044    0.06239    0.03665
AFIX  33
H26A  2    0.180322    0.271646    1.119152    10.50000   -1.50000
H26B  2    0.236365    0.293246    1.066938    10.50000   -1.50000
H26C  2    0.136412    0.296770    1.044951    10.50000   -1.50000
AFIX   0
C27   1    0.112925    0.167553    1.033033    10.50000    0.05658    0.05361 =
         0.12911    0.05044    0.06239    0.03665
AFIX  23
H27A  2    0.149180    0.138451    1.060398    10.50000   -1.20000
H27B  2    0.049829    0.141955    1.038543    10.50000   -1.20000
AFIX   0
C28   1   -0.015119    0.214365    0.952714    10.50000    0.05658    0.05361 =
         0.12911    0.05044    0.06239    0.03665
AFIX  33
H28A  2   -0.082343    0.202992    0.926753    10.50000   -1.50000
H28B  2   -0.000733    0.218976    1.003578    10.50000   -1.50000
H28C  2    0.030672    0.269683    0.944515    10.50000   -1.50000
AFIX   0
C29   1   -0.003801    0.136395    0.925891    10.50000    0.05658    0.05361 =
         0.12911    0.05044    0.06239    0.03665
AFIX  23
H29A  2   -0.052436    0.081019    0.932995    10.50000   -1.20000
H29B  2   -0.021145    0.131542    0.874146    10.50000   -1.20000
AFIX   0
O2W   4    0.239832    0.147887    0.697673    10.40000    0.08967    0.06670 =
         0.15581   -0.02903    0.07189   -0.02477
O14   4    0.228467    0.145357    0.712950    10.60000    0.08466    0.01144 =
         0.16875    0.01237    0.07844    0.01677
N6    3    0.124239    0.001088    0.641563    10.60000    0.13936    0.07728 =
         0.17325   -0.02692   -0.00792   -0.00024
C84   1    0.204095    0.083475    0.665094    10.60000    0.13019    0.08421 =
         0.15759   -0.03900    0.05210    0.00044
AFIX  13
H84A  2    0.252805    0.065259    0.693150    10.60000   -1.20000
AFIX   0
C85   1    0.075843   -0.090939    0.514724    10.60000    0.21686    0.08558 =
         0.20332   -0.01988    0.10643   -0.08815
AFIX  33
H85A  2    0.083499   -0.139238    0.498326    10.60000   -1.50000
H85B  2    0.006036   -0.108851    0.497336    10.60000   -1.50000
H85C  2    0.109117   -0.038824    0.496509    10.60000   -1.50000
AFIX   0
C86   1    0.122091   -0.068360    0.598014    10.60000    0.10085    0.02380 =
         0.19545    0.01135   -0.03369    0.01416
AFIX  23
H86A  2    0.088983   -0.123908    0.613550    10.60000   -1.20000
H86B  2    0.191085   -0.054545    0.612732    10.60000   -1.20000
AFIX   0
C87   1    0.010920    0.050748    0.551867    10.60000    0.04069    0.23911 =
         0.02918   -0.03925   -0.00382    0.00447
AFIX  33
H87A  2   -0.058152    0.035629    0.530297    10.60000   -1.50000
H87B  2    0.050606    0.111852    0.578191    10.60000   -1.50000
H87C  2    0.032500    0.044321    0.514576    10.60000   -1.50000
AFIX   0
C88   1    0.023452   -0.012747    0.604090    10.60000    0.12222    0.12376 =
         0.16003   -0.04201    0.04434    0.01370
AFIX  23
H88B  2   -0.000983   -0.006829    0.640239    10.60000   -1.20000
H88A  2   -0.019031   -0.074146    0.576826    10.60000   -1.20000

AFIX   0
HKLF 4

REM  b180914d_0ma_a_a.res in P-1
REM R1 =  0.1305 for   12520 Fo > 4sig(Fo)  and  0.1627 for all   17387 data
REM    931 parameters refined using    204 restraints

END

WGHT      0.0143    149.8327

REM Highest difference peak  2.995,  deepest hole -3.815,  1-sigma level  0.196
Q1    1   0.3221  0.3494  0.7361  11.00000  0.05    2.99
Q2    1   0.3998  0.2416  0.9141  11.00000  0.05    2.24
Q3    1   0.2349  0.4441  0.5597  11.00000  0.05    2.17
Q4    1   0.1380  0.3256  0.5643  11.00000  0.05    1.97
Q5    1   1.2989  1.0685  0.9635  11.00000  0.05    1.83
Q6    1  -0.7264 -0.4460  0.5141  11.00000  0.05    1.70
Q7    1   1.2363  0.9898  0.9724  11.00000  0.05    1.69
Q8    1   1.1462  1.0833  0.7883  11.00000  0.05    1.50
Q9    1   0.2167  0.1560  0.7800  11.00000  0.05    1.42
Q10   1   0.3612  0.4582  0.6871  11.00000  0.05    1.28
Q11   1   0.3347  0.1673  0.8819  11.00000  0.05    1.26
Q12   1  -0.5609  0.1003  0.1018  11.00000  0.05    1.16
Q13   1   0.3632  0.1950  0.9588  11.00000  0.05    1.15
Q14   1   0.1424  0.3041  0.6862  11.00000  0.05    1.12
Q15   1   0.0031 -0.0503  0.6627  11.00000  0.05    1.09
Q16   1   0.0581  0.1954  0.6202  11.00000  0.05    1.08
Q17   1  -0.0263  0.0877  0.5443  11.00000  0.05    1.06
Q18   1   0.2826  0.4195  0.7581  11.00000  0.05    1.06
Q19   1  -0.0120  0.2940  0.4370  11.00000  0.05    1.04
Q20   1   0.4418  0.3595  0.8528  11.00000  0.05    1.03
;
_shelx_res_checksum              10467
_shelx_fab_file
;
    2    0    0     -1.39      0.00
    3    0    0    -47.70      0.00
    4    0    0     23.40      0.00
    5    0    0    -26.82      0.00
    6    0    0     34.24      0.00
    7    0    0    -16.13      0.00
    8    0    0     -9.61      0.00
    9    0    0      1.84      0.00
   10    0    0     -0.10      0.00
   11    0    0     -8.58      0.00
   12    0    0      0.49      0.00
   13    0    0     -4.86      0.00
   14    0    0      2.27      0.00
   15    0    0     -1.16      0.00
   16    0    0      0.22      0.00
   17    0    0     -2.37      0.00
   18    0    0      0.03      0.00
  -18    1    0      1.54      0.00
  -17    1    0      0.60      0.00
  -16    1    0      0.54      0.00
  -15    1    0     -1.68      0.00
  -14    1    0      3.33      0.00
  -13    1    0     -0.89      0.00
  -12    1    0      3.79      0.00
  -11    1    0     -2.16      0.00
  -10    1    0      4.00      0.00
   -9    1    0     -3.27      0.00
   -8    1    0      9.96      0.00
   -7    1    0     -7.48      0.00
   -6    1    0      6.77      0.00
   -5    1    0    -38.33      0.00
   -4    1    0     15.71      0.00
   -3    1    0     22.65      0.00
   -2    1    0     28.23      0.00
    1    1    0    -28.02      0.00
    2    1    0     42.66      0.00
    3    1    0    -11.33      0.00
    4    1    0     14.66      0.00
    5    1    0    -44.92      0.00
    6    1    0     21.41      0.00
    7    1    0      0.80      0.00
    8    1    0     -2.75      0.00
    9    1    0     -0.38      0.00
   10    1    0      7.89      0.00
   11    1    0     -3.39      0.00
   12    1    0      1.93      0.00
   13    1    0      0.81      0.00
   14    1    0     -0.57      0.00
   15    1    0      2.09      0.00
   16    1    0      3.33      0.00
   17    1    0     -2.78      0.00
  -18    2    0      1.47      0.00
  -17    2    0     -3.18      0.00
  -16    2    0     -1.39      0.00
  -15    2    0      2.21      0.00
  -14    2    0     -3.18      0.00
  -13    2    0     -7.91      0.00
  -12    2    0     10.50      0.00
  -11    2    0     -1.86      0.00
  -10    2    0     -6.88      0.00
   -9    2    0      1.70      0.00
   -8    2    0      1.27      0.00
   -7    2    0    -20.32      0.00
   -6    2    0     20.70      0.00
   -5    2    0    -19.36      0.00
   -4    2    0     29.17      0.00
   -3    2    0    -41.07      0.00
   -2    2    0    159.79      0.00
   -1    2    0    -11.47      0.00
    0    2    0    122.26      0.00
    1    2    0    -54.16      0.00
    2    2    0     19.98      0.00
    3    2    0     -4.27      0.00
    4    2    0      7.23      0.00
    5    2    0    -29.98      0.00
    6    2    0      9.32      0.00
    7    2    0     -4.71      0.00
    8    2    0      2.30      0.00
    9    2    0     -4.05      0.00
   10    2    0     -1.06      0.00
   11    2    0     -7.37      0.00
   12    2    0      2.21      0.00
   13    2    0      0.73      0.00
   14    2    0      0.84      0.00
   15    2    0     -0.32      0.00
   16    2    0      2.81      0.00
  -19    3    0     -0.73      0.00
  -18    3    0      1.33      0.00
  -17    3    0     -2.95      0.00
  -16    3    0      2.26      0.00
  -15    3    0     -2.22      0.00
  -14    3    0      2.67      0.00
  -13    3    0     -2.01      0.00
  -12    3    0      4.11      0.00
  -11    3    0      5.30      0.00
  -10    3    0      1.34      0.00
   -9    3    0      0.79      0.00
   -8    3    0      3.02      0.00
   -7    3    0    -30.81      0.00
   -6    3    0      1.40      0.00
   -5    3    0     16.01      0.00
   -4    3    0    -16.07      0.00
   -3    3    0     37.66      0.00
   -2    3    0     19.23      0.00
   -1    3    0    -43.43      0.00
    0    3    0     14.98      0.00
    1    3    0    -15.26      0.00
    2    3    0    -23.51      0.00
    3    3    0    -22.55      0.00
    4    3    0     26.20      0.00
    5    3    0     -2.62      0.00
    6    3    0      8.83      0.00
    7    3    0     -5.95      0.00
    8    3    0     -8.64      0.00
    9    3    0      3.44      0.00
   10    3    0      4.75      0.00
   11    3    0      3.36      0.00
   12    3    0      4.23      0.00
   13    3    0     -0.83      0.00
   14    3    0      0.00      0.00
   15    3    0     -0.94      0.00
   16    3    0      1.04      0.00
  -19    4    0      1.62      0.00
  -18    4    0     -0.34      0.00
  -17    4    0     -1.23      0.00
  -16    4    0      1.65      0.00
  -15    4    0      0.31      0.00
  -14    4    0      1.66      0.00
  -13    4    0     -2.57      0.00
  -12    4    0      5.37      0.00
  -11    4    0     -4.75      0.00
  -10    4    0     -4.71      0.00
   -9    4    0      4.05      0.00
   -8    4    0      6.92      0.00
   -7    4    0    -18.79      0.00
   -6    4    0     14.83      0.00
   -5    4    0    -13.57      0.00
   -4    4    0     10.69      0.00
   -3    4    0      4.81      0.00
   -2    4    0     67.54      0.00
   -1    4    0     -6.14      0.00
    0    4    0     -1.54      0.00
    1    4    0     16.57      0.00
    2    4    0      2.29      0.00
    3    4    0    -10.09      0.00
    4    4    0     -0.39      0.00
    5    4    0    -16.81      0.00
    6    4    0     -0.81      0.00
    7    4    0      3.28      0.00
    8    4    0     -1.72      0.00
    9    4    0     -9.06      0.00
   10    4    0     -0.26      0.00
   11    4    0      1.00      0.00
   12    4    0     -4.54      0.00
   13    4    0      0.08      0.00
   14    4    0      2.90      0.00
   15    4    0     -3.91      0.00
  -19    5    0     -6.85      0.00
  -18    5    0      0.48      0.00
  -17    5    0     -0.48      0.00
  -16    5    0      3.47      0.00
  -15    5    0     -1.20      0.00
  -14    5    0      3.43      0.00
  -13    5    0     -1.28      0.00
  -12    5    0     10.00      0.00
  -11    5    0      2.59      0.00
  -10    5    0     -2.94      0.00
   -9    5    0    -10.04      0.00
   -8    5    0     -3.97      0.00
   -7    5    0      2.51      0.00
   -6    5    0      8.10      0.00
   -5    5    0     22.67      0.00
   -4    5    0    -33.87      0.00
   -3    5    0     14.15      0.00
   -2    5    0    -15.74      0.00
   -1    5    0    -33.30      0.00
    0    5    0     17.37      0.00
    1    5    0     17.19      0.00
    2    5    0    -22.13      0.00
    3    5    0     -3.44      0.00
    4    5    0     12.70      0.00
    5    5    0     -4.88      0.00
    6    5    0      2.63      0.00
    7    5    0     10.72      0.00
    8    5    0      3.55      0.00
    9    5    0      4.37      0.00
   10    5    0      0.28      0.00
   11    5    0      0.65      0.00
   12    5    0      1.03      0.00
   13    5    0      0.30      0.00
   14    5    0      2.62      0.00
   15    5    0     -1.32      0.00
  -20    6    0     -2.41      0.00
  -19    6    0      0.50      0.00
  -18    6    0      1.12      0.00
  -17    6    0      2.51      0.00
  -16    6    0     -2.29      0.00
  -15    6    0     -2.80      0.00
  -14    6    0      9.45      0.00
  -13    6    0     -6.31      0.00
  -12    6    0     -3.27      0.00
  -11    6    0     -6.56      0.00
  -10    6    0     14.79      0.00
   -9    6    0     -9.68      0.00
   -8    6    0     12.49      0.00
   -7    6    0    -16.12      0.00
   -6    6    0     10.47      0.00
   -5    6    0      9.62      0.00
   -4    6    0      1.07      0.00
   -3    6    0      2.98      0.00
   -2    6    0     17.66      0.00
   -1    6    0      8.94      0.00
    0    6    0    -15.61      0.00
    1    6    0     13.08      0.00
    2    6    0     -8.91      0.00
    3    6    0     -0.10      0.00
    4    6    0     14.29      0.00
    5    6    0     -7.39      0.00
    6    6    0    -16.97      0.00
    7    6    0     -5.83      0.00
    8    6    0     -0.05      0.00
    9    6    0      5.27      0.00
   10    6    0      3.81      0.00
   11    6    0     -4.05      0.00
   12    6    0     -1.85      0.00
   13    6    0     -0.11      0.00
   14    6    0      4.71      0.00
  -20    7    0      0.70      0.00
  -19    7    0     -3.84      0.00
  -18    7    0      1.37      0.00
  -17    7    0     -0.36      0.00
  -16    7    0      0.69      0.00
  -15    7    0     -2.74      0.00
  -14    7    0      4.54      0.00
  -13    7    0     -6.04      0.00
  -12    7    0      7.14      0.00
  -11    7    0      3.26      0.00
  -10    7    0     -0.78      0.00
   -9    7    0    -12.13      0.00
   -8    7    0     12.75      0.00
   -7    7    0     -1.70      0.00
   -6    7    0    -10.39      0.00
   -5    7    0      7.19      0.00
   -4    7    0      2.92      0.00
   -3    7    0    -11.06      0.00
   -2    7    0     -8.68      0.00
   -1    7    0     -3.39      0.00
    0    7    0      3.81      0.00
    1    7    0     11.73      0.00
    2    7    0      2.36      0.00
    3    7    0     -6.03      0.00
    4    7    0      0.43      0.00
    5    7    0      6.86      0.00
    6    7    0      9.28      0.00
    7    7    0      5.50      0.00
    8    7    0     -1.00      0.00
    9    7    0     -4.58      0.00
   10    7    0      1.00      0.00
   11    7    0      1.96      0.00
   12    7    0      0.16      0.00
   13    7    0     -0.67      0.00
  -20    8    0      1.18      0.00
  -19    8    0      2.28      0.00
  -18    8    0      0.01      0.00
  -17    8    0     -1.10      0.00
  -16    8    0      0.77      0.00
  -15    8    0     -3.32      0.00
  -14    8    0      2.75      0.00
  -13    8    0    -12.11      0.00
  -12    8    0      6.87      0.00
  -11    8    0      1.49      0.00
  -10    8    0     12.34      0.00
   -9    8    0    -20.46      0.00
   -8    8    0     27.22      0.00
   -7    8    0     -7.26      0.00
   -6    8    0     -1.44      0.00
   -5    8    0      3.68      0.00
   -4    8    0     -0.68      0.00
   -3    8    0     -1.54      0.00
   -2    8    0     22.94      0.00
   -1    8    0      6.47      0.00
    0    8    0    -14.37      0.00
    1    8    0      6.26      0.00
    2    8    0     -1.04      0.00
    3    8    0     -9.54      0.00
    4    8    0     11.54      0.00
    5    8    0    -10.91      0.00
    6    8    0     -6.68      0.00
    7    8    0      4.56      0.00
    8    8    0     -0.28      0.00
    9    8    0      3.13      0.00
   10    8    0     -0.23      0.00
   11    8    0      0.05      0.00
   12    8    0      4.91      0.00
   13    8    0     -3.92      0.00
  -20    9    0     -0.95      0.00
  -19    9    0     -0.64      0.00
  -18    9    0      1.48      0.00
  -17    9    0     -1.04      0.00
  -16    9    0      1.70      0.00
  -15    9    0     -8.27      0.00
  -14    9    0      9.23      0.00
  -13    9    0     -2.84      0.00
  -12    9    0      3.75      0.00
  -11    9    0     -4.26      0.00
  -10    9    0      5.89      0.00
   -9    9    0     -8.97      0.00
   -8    9    0     16.61      0.00
   -7    9    0    -17.03      0.00
   -6    9    0      4.53      0.00
   -5    9    0      3.16      0.00
   -4    9    0      3.78      0.00
   -3    9    0    -26.06      0.00
   -2    9    0      9.21      0.00
   -1    9    0      8.38      0.00
    0    9    0     -3.87      0.00
    1    9    0     -1.10      0.00
    2    9    0     16.43      0.00
    3    9    0     -7.02      0.00
    4    9    0      1.22      0.00
    5    9    0      1.04      0.00
    6    9    0      2.81      0.00
    7    9    0      0.13      0.00
    8    9    0      5.16      0.00
    9    9    0     -1.13      0.00
   10    9    0      2.53      0.00
   11    9    0     -2.86      0.00
   12    9    0     -0.75      0.00
  -20   10    0      2.60      0.00
  -19   10    0      0.40      0.00
  -18   10    0     -1.37      0.00
  -17   10    0     -3.23      0.00
  -16   10    0      0.30      0.00
  -15   10    0     -5.78      0.00
  -14   10    0      5.34      0.00
  -13   10    0     -2.80      0.00
  -12   10    0      7.63      0.00
  -11   10    0     -7.24      0.00
  -10   10    0     11.56      0.00
   -9   10    0     -8.57      0.00
   -8   10    0     16.63      0.00
   -7   10    0     -6.91      0.00
   -6   10    0     -0.73      0.00
   -5   10    0      0.87      0.00
   -4   10    0      9.42      0.00
   -3   10    0     -3.55      0.00
   -2   10    0      4.84      0.00
   -1   10    0      1.31      0.00
    0   10    0     -1.33      0.00
    1   10    0     -3.75      0.00
    2   10    0      4.13      0.00
    3   10    0     -9.14      0.00
    4   10    0      0.05      0.00
    5   10    0     -4.37      0.00
    6   10    0      3.94      0.00
    7   10    0      5.75      0.00
    8   10    0     -3.90      0.00
    9   10    0     -1.50      0.00
   10   10    0      2.77      0.00
   11   10    0     -2.05      0.00
  -20   11    0     -0.54      0.00
  -19   11    0     -0.62      0.00
  -18   11    0     -0.07      0.00
  -17   11    0     -4.21      0.00
  -16   11    0      1.52      0.00
  -15   11    0     -3.02      0.00
  -14   11    0      3.86      0.00
  -13   11    0      0.16      0.00
  -12   11    0      2.72      0.00
  -11   11    0     -8.44      0.00
  -10   11    0     11.19      0.00
   -9   11    0    -11.99      0.00
   -8   11    0      9.50      0.00
   -7   11    0     -1.14      0.00
   -6   11    0      5.82      0.00
   -5   11    0    -12.92      0.00
   -4   11    0      3.20      0.00
   -3   11    0      0.33      0.00
   -2   11    0      7.11      0.00
   -1   11    0      2.41      0.00
    0   11    0      4.84      0.00
    1   11    0     -3.77      0.00
    2   11    0      0.70      0.00
    3   11    0      0.86      0.00
    4   11    0      7.04      0.00
    5   11    0     -0.62      0.00
    6   11    0      2.03      0.00
    7   11    0      2.21      0.00
    8   11    0      3.80      0.00
    9   11    0     -4.98      0.00
   10   11    0     -0.18      0.00
  -20   12    0      2.19      0.00
  -19   12    0     -4.93      0.00
  -18   12    0      0.99      0.00
  -17   12    0      0.53      0.00
  -16   12    0     -0.30      0.00
  -15   12    0     -7.79      0.00
  -14   12    0      2.64      0.00
  -13   12    0     -3.42      0.00
  -12   12    0      2.39      0.00
  -11   12    0      0.38      0.00
  -10   12    0     12.26      0.00
   -9   12    0     -5.82      0.00
   -8   12    0     -2.05      0.00
   -7   12    0     -0.34      0.00
   -6   12    0      3.06      0.00
   -5   12    0      1.40      0.00
   -4   12    0      6.71      0.00
   -3   12    0     -8.52      0.00
   -2   12    0     -1.57      0.00
   -1   12    0      4.26      0.00
    0   12    0      4.94      0.00
    1   12    0     -3.10      0.00
    2   12    0     -3.47      0.00
    3   12    0      0.18      0.00
    4   12    0     -1.32      0.00
    5   12    0      6.48      0.00
    6   12    0      0.00      0.00
    7   12    0     -1.09      0.00
    8   12    0     -0.90      0.00
    9   12    0     -2.43      0.00
  -20   13    0      1.70      0.00
  -19   13    0     -2.87      0.00
  -18   13    0      1.67      0.00
  -17   13    0     -4.59      0.00
  -16   13    0     -2.33      0.00
  -15   13    0     -1.39      0.00
  -14   13    0      5.31      0.00
  -13   13    0     -3.26      0.00
  -12   13    0     -0.96      0.00
  -11   13    0     -0.11      0.00
  -10   13    0      5.52      0.00
   -9   13    0     -2.29      0.00
   -8   13    0      1.91      0.00
   -7   13    0      1.99      0.00
   -6   13    0     -1.07      0.00
   -5   13    0     -0.79      0.00
   -4   13    0      4.13      0.00
   -3   13    0      5.73      0.00
   -2   13    0     -1.53      0.00
   -1   13    0     -1.42      0.00
    0   13    0     -7.74      0.00
    1   13    0      0.42      0.00
    2   13    0      4.26      0.00
    3   13    0      3.58      0.00
    4   13    0      2.52      0.00
    5   13    0      3.41      0.00
    6   13    0      1.18      0.00
    7   13    0     -4.17      0.00
    8   13    0      0.23      0.00
  -20   14    0     -0.60      0.00
  -19   14    0     -1.45      0.00
  -18   14    0      0.65      0.00
  -17   14    0      1.45      0.00
  -16   14    0      1.37      0.00
  -15   14    0     -6.67      0.00
  -14   14    0     -1.04      0.00
  -13   14    0      4.34      0.00
  -12   14    0      4.35      0.00
  -11   14    0     -0.23      0.00
  -10   14    0     -0.90      0.00
   -9   14    0     -0.89      0.00
   -8   14    0     -3.10      0.00
   -7   14    0      1.18      0.00
   -6   14    0      0.91      0.00
   -5   14    0     -4.84      0.00
   -4   14    0      0.96      0.00
   -3   14    0      3.26      0.00
   -2   14    0     -2.42      0.00
   -1   14    0      1.26      0.00
    0   14    0     -8.86      0.00
    1   14    0     -1.62      0.00
    2   14    0     -0.72      0.00
    3   14    0      5.29      0.00
    4   14    0     -3.49      0.00
    5   14    0      1.73      0.00
    6   14    0     -3.47      0.00
    7   14    0      1.34      0.00
  -19   15    0     -0.87      0.00
  -18   15    0     -3.97      0.00
  -17   15    0     -2.91      0.00
  -16   15    0      4.72      0.00
  -15   15    0      0.76      0.00
  -14   15    0     -0.51      0.00
  -13   15    0      2.82      0.00
  -12   15    0      0.13      0.00
  -11   15    0      2.57      0.00
  -10   15    0     -0.69      0.00
   -9   15    0      1.50      0.00
   -8   15    0      0.49      0.00
   -7   15    0      1.47      0.00
   -6   15    0     -2.04      0.00
   -5   15    0      0.30      0.00
   -4   15    0      1.82      0.00
   -3   15    0      0.80      0.00
   -2   15    0     -7.49      0.00
   -1   15    0      2.09      0.00
    0   15    0     -0.74      0.00
    1   15    0      3.43      0.00
    2   15    0     -3.12      0.00
    3   15    0      5.12      0.00
    4   15    0     -1.04      0.00
    5   15    0     -1.07      0.00
    6   15    0     -1.46      0.00
  -19   16    0      2.65      0.00
  -18   16    0      1.69      0.00
  -17   16    0      0.95      0.00
  -16   16    0      0.88      0.00
  -15   16    0      0.55      0.00
  -14   16    0      0.59      0.00
  -13   16    0      4.25      0.00
  -12   16    0     -0.06      0.00
  -11   16    0      2.10      0.00
  -10   16    0     -1.17      0.00
   -9   16    0     -3.27      0.00
   -8   16    0     -2.05      0.00
   -7   16    0      0.00      0.00
   -6   16    0      0.45      0.00
   -5   16    0     -4.95      0.00
   -4   16    0     -4.65      0.00
   -3   16    0     -3.54      0.00
   -2   16    0    -11.26      0.00
   -1   16    0      1.51      0.00
    0   16    0     -1.69      0.00
    1   16    0      1.73      0.00
    2   16    0     -3.17      0.00
    3   16    0     -2.07      0.00
    4   16    0     -1.30      0.00
    5   16    0      3.77      0.00
  -19   17    0      1.65      0.00
  -18   17    0     -1.02      0.00
  -17   17    0     -1.50      0.00
  -16   17    0      1.01      0.00
  -15   17    0      1.07      0.00
  -14   17    0     -2.34      0.00
  -13   17    0      4.70      0.00
  -12   17    0      0.12      0.00
  -11   17    0     -0.63      0.00
  -10   17    0     -1.83      0.00
   -9   17    0      2.76      0.00
   -8   17    0     -5.50      0.00
   -7   17    0      2.45      0.00
   -6   17    0      7.35      0.00
   -5   17    0      3.58      0.00
   -4   17    0     -0.85      0.00
   -3   17    0      0.10      0.00
   -2   17    0     -4.93      0.00
   -1   17    0      5.21      0.00
    0   17    0     -0.66      0.00
    1   17    0      1.69      0.00
    2   17    0     -1.85      0.00
    3   17    0      4.01      0.00
    4   17    0      0.31      0.00
  -18   18    0      0.22      0.00
  -17   18    0      1.27      0.00
  -16   18    0      3.08      0.00
  -15   18    0     -0.95      0.00
  -14   18    0      1.56      0.00
  -13   18    0      2.64      0.00
  -12   18    0      0.84      0.00
  -11   18    0     -2.48      0.00
  -10   18    0     -2.60      0.00
   -9   18    0      4.41      0.00
   -8   18    0      1.51      0.00
   -7   18    0     -3.99      0.00
   -6   18    0     -3.69      0.00
   -5   18    0     -4.98      0.00
   -4   18    0     -7.06      0.00
   -3   18    0     -0.62      0.00
   -2   18    0     -1.15      0.00
   -1   18    0     -0.95      0.00
    0   18    0     -3.82      0.00
    1   18    0      0.75      0.00
    2   18    0      1.46      0.00
    3   18    0     -1.13      0.00
  -17   19    0      1.37      0.00
  -16   19    0     -1.45      0.00
  -15   19    0     -2.66      0.00
  -14   19    0     -1.20      0.00
  -13   19    0      4.19      0.00
  -12   19    0     -2.70      0.00
  -11   19    0      2.38      0.00
  -10   19    0     -3.74      0.00
   -9   19    0     -1.41      0.00
   -8   19    0     -1.79      0.00
   -7   19    0      3.74      0.00
   -6   19    0      1.92      0.00
   -5   19    0      4.73      0.00
   -4   19    0      0.81      0.00
   -3   19    0      0.80      0.00
   -2   19    0     -2.55      0.00
   -1   19    0      5.63      0.00
    0   19    0      1.45      0.00
    1   19    0      0.58      0.00
  -17   20    0     -0.53      0.00
  -16   20    0      3.50      0.00
  -15   20    0      1.04      0.00
  -14   20    0      1.02      0.00
  -13   20    0     -0.58      0.00
  -12   20    0     -2.40      0.00
  -11   20    0      3.79      0.00
  -10   20    0      0.89      0.00
   -9   20    0      2.29      0.00
   -8   20    0      0.54      0.00
   -7   20    0     -0.63      0.00
   -6   20    0     -5.91      0.00
   -5   20    0     -1.89      0.00
   -4   20    0     -0.92      0.00
   -3   20    0     -2.32      0.00
   -2   20    0      1.41      0.00
   -1   20    0     -0.42      0.00
  -15   21    0      3.46      0.00
  -14   21    0     -1.13      0.00
  -13   21    0     -1.50      0.00
  -12   21    0     -1.57      0.00
  -11   21    0      2.05      0.00
  -10   21    0     -5.28      0.00
   -9   21    0     -1.46      0.00
   -8   21    0      1.24      0.00
   -7   21    0      1.21      0.00
   -6   21    0     -0.46      0.00
   -5   21    0      2.21      0.00
   -4   21    0      0.01      0.00
   -3   21    0      0.86      0.00
  -13   22    0      0.94      0.00
  -12   22    0     -0.96      0.00
  -11   22    0      1.68      0.00
  -10   22    0      1.47      0.00
   -9   22    0      1.08      0.00
   -8   22    0     -1.75      0.00
   -7   22    0      1.14      0.00
   -6   22    0      0.81      0.00
    6  -22    1     -0.61      0.00
    7  -22    1     -5.34      0.00
    8  -22    1      1.23      0.00
    9  -22    1     -0.22      0.00
   10  -22    1     -1.67      0.00
   11  -22    1     -3.25      0.00
   12  -22    1      0.21      0.00
   13  -22    1     -1.40      0.00
    3  -21    1     -0.18      0.00
    4  -21    1     -0.28      0.00
    5  -21    1      1.56      0.00
    6  -21    1      1.33      0.00
    7  -21    1      1.87      0.00
    8  -21    1      1.22      0.00
    9  -21    1      1.09      0.00
   10  -21    1      3.45      0.00
   11  -21    1      5.63      0.00
   12  -21    1     -0.67      0.00
   13  -21    1      3.32      0.00
   14  -21    1      1.76      0.00
   15  -21    1     -0.87      0.00
    0  -20    1     -2.19      0.00
    1  -20    1     -0.47      0.00
    2  -20    1     -0.87      0.00
    3  -20    1     -0.28      0.00
    4  -20    1     -1.89      0.00
    5  -20    1     -0.35      0.00
    6  -20    1     -2.54      0.00
    7  -20    1      2.76      0.00
    8  -20    1     -1.27      0.00
    9  -20    1     -0.72      0.00
   10  -20    1     -3.42      0.00
   11  -20    1     -2.85      0.00
   12  -20    1     -1.92      0.00
   13  -20    1      3.13      0.00
   14  -20    1      0.02      0.00
   15  -20    1      1.45      0.00
   16  -20    1     -1.92      0.00
   -1  -19    1      2.11      0.00
    0  -19    1      3.14      0.00
    1  -19    1     -1.73      0.00
    2  -19    1      3.49      0.00
    3  -19    1      0.83      0.00
    4  -19    1      0.96      0.00
    5  -19    1      0.95      0.00
    6  -19    1      0.29      0.00
    7  -19    1     -1.11      0.00
    8  -19    1     -2.60      0.00
    9  -19    1      6.51      0.00
   10  -19    1     -0.14      0.00
   11  -19    1      2.86      0.00
   12  -19    1      0.31      0.00
   13  -19    1      2.27      0.00
   14  -19    1     -1.91      0.00
   15  -19    1      0.76      0.00
   16  -19    1      4.52      0.00
   17  -19    1      1.12      0.00
   -3  -18    1      2.36      0.00
   -2  -18    1      0.15      0.00
   -1  -18    1     -3.63      0.00
    0  -18    1     -0.39      0.00
    1  -18    1      3.34      0.00
    2  -18    1     -0.43      0.00
    3  -18    1     -2.48      0.00
    4  -18    1     -3.94      0.00
    5  -18    1      2.56      0.00
    6  -18    1      1.47      0.00
    7  -18    1      2.84      0.00
    8  -18    1     -4.55      0.00
    9  -18    1     -3.54      0.00
   10  -18    1     -8.66      0.00
   11  -18    1      2.70      0.00
   12  -18    1     -3.44      0.00
   13  -18    1      4.84      0.00
   14  -18    1     -0.88      0.00
   15  -18    1      1.27      0.00
   16  -18    1      1.34      0.00
   17  -18    1      0.57      0.00
   18  -18    1      0.26      0.00
   -4  -17    1      1.47      0.00
   -3  -17    1     -1.15      0.00
   -2  -17    1      1.35      0.00
   -1  -17    1      1.53      0.00
    0  -17    1      2.68      0.00
    1  -17    1     -1.73      0.00
    2  -17    1     -0.82      0.00
    3  -17    1      2.10      0.00
    4  -17    1     -1.52      0.00
    5  -17    1     -0.89      0.00
    6  -17    1     -6.45      0.00
    7  -17    1     -6.38      0.00
    8  -17    1     -1.81      0.00
    9  -17    1      5.71      0.00
   10  -17    1      0.16      0.00
   11  -17    1      4.11      0.00
   12  -17    1     -3.71      0.00
   13  -17    1      0.00      0.00
   14  -17    1      0.39      0.00
   15  -17    1      1.51      0.00
   16  -17    1      0.20      0.00
   17  -17    1      2.64      0.00
   18  -17    1     -0.26      0.00
   19  -17    1      1.28      0.00
   -6  -16    1      0.16      0.00
   -5  -16    1     -1.97      0.00
   -4  -16    1     -1.30      0.00
   -3  -16    1      4.42      0.00
   -2  -16    1      0.90      0.00
   -1  -16    1      2.75      0.00
    0  -16    1     -1.62      0.00
    1  -16    1     -4.87      0.00
    2  -16    1     -3.13      0.00
    3  -16    1      0.41      0.00
    4  -16    1      2.28      0.00
    5  -16    1      2.04      0.00
    6  -16    1     -0.47      0.00
    7  -16    1     -2.21      0.00
    8  -16    1     -8.74      0.00
    9  -16    1      0.83      0.00
   10  -16    1     -3.77      0.00
   11  -16    1      7.06      0.00
   12  -16    1     -3.15      0.00
   13  -16    1      2.40      0.00
   14  -16    1      0.04      0.00
   15  -16    1     -0.81      0.00
   16  -16    1      2.23      0.00
   17  -16    1      2.25      0.00
   18  -16    1     -0.79      0.00
   19  -16    1     -1.99      0.00
   -7  -15    1      1.48      0.00
   -6  -15    1     -2.98      0.00
   -5  -15    1      3.92      0.00
   -4  -15    1      1.77      0.00
   -3  -15    1     -0.29      0.00
   -2  -15    1      4.61      0.00
   -1  -15    1      1.39      0.00
    0  -15    1     -4.94      0.00
    1  -15    1      1.25      0.00
    2  -15    1     -4.70      0.00
    3  -15    1      3.12      0.00
    4  -15    1     -1.87      0.00
    5  -15    1     -7.86      0.00
    6  -15    1     -4.92      0.00
    7  -15    1      4.54      0.00
    8  -15    1      2.52      0.00
    9  -15    1      1.87      0.00
   10  -15    1     -0.15      0.00
   11  -15    1      6.10      0.00
   12  -15    1     -2.78      0.00
   13  -15    1      3.24      0.00
   14  -15    1      0.63      0.00
   15  -15    1     -0.90      0.00
   16  -15    1     -4.09      0.00
   17  -15    1      0.90      0.00
   18  -15    1      1.30      0.00
   19  -15    1      0.24      0.00
   -8  -14    1     -1.04      0.00
   -7  -14    1     -0.84      0.00
   -6  -14    1      1.07      0.00
   -5  -14    1      4.40      0.00
   -4  -14    1      1.31      0.00
   -3  -14    1      5.75      0.00
   -2  -14    1     -2.88      0.00
   -1  -14    1     -4.57      0.00
    0  -14    1      0.06      0.00
    1  -14    1      6.32      0.00
    2  -14    1     -1.99      0.00
    3  -14    1      0.72      0.00
    4  -14    1     -2.95      0.00
    5  -14    1      5.17      0.00
    6  -14    1     -3.28      0.00
    7  -14    1      2.11      0.00
    8  -14    1     -5.90      0.00
    9  -14    1      1.61      0.00
   10  -14    1     -4.50      0.00
   11  -14    1      9.29      0.00
   12  -14    1     -2.05      0.00
   13  -14    1     -1.37      0.00
   14  -14    1      1.48      0.00
   15  -14    1     -1.80      0.00
   16  -14    1      0.47      0.00
   17  -14    1     -0.66      0.00
   18  -14    1      0.38      0.00
   19  -14    1     -0.97      0.00
   -9  -13    1      0.15      0.00
   -8  -13    1     -3.89      0.00
   -7  -13    1      7.64      0.00
   -6  -13    1      2.76      0.00
   -5  -13    1      5.75      0.00
   -4  -13    1     -2.15      0.00
   -3  -13    1      0.62      0.00
   -2  -13    1     -5.73      0.00
   -1  -13    1     -4.21      0.00
    0  -13    1     -4.70      0.00
    1  -13    1     11.23      0.00
    2  -13    1      3.60      0.00
    3  -13    1     -3.34      0.00
    4  -13    1     -7.16      0.00
    5  -13    1      0.68      0.00
    6  -13    1      0.30      0.00
    7  -13    1      4.04      0.00
    8  -13    1      0.23      0.00
    9  -13    1      4.62      0.00
   10  -13    1     -2.61      0.00
   11  -13    1      4.87      0.00
   12  -13    1     -2.52      0.00
   13  -13    1      3.58      0.00
   14  -13    1      3.19      0.00
   15  -13    1     -5.59      0.00
   16  -13    1     -1.86      0.00
   17  -13    1      2.00      0.00
   18  -13    1      1.91      0.00
   19  -13    1     -0.42      0.00
  -10  -12    1     -2.26      0.00
   -9  -12    1      0.34      0.00
   -8  -12    1      0.21      0.00
   -7  -12    1      4.18      0.00
   -6  -12    1      4.07      0.00
   -5  -12    1      3.09      0.00
   -4  -12    1     -0.58      0.00
   -3  -12    1     -0.37      0.00
   -2  -12    1     -0.01      0.00
   -1  -12    1      8.91      0.00
    0  -12    1     -6.60      0.00
    1  -12    1     -0.42      0.00
    2  -12    1     -8.07      0.00
    3  -12    1      7.46      0.00
    4  -12    1      0.08      0.00
    5  -12    1      4.52      0.00
    6  -12    1     -7.65      0.00
    7  -12    1     -0.82      0.00
    8  -12    1      1.06      0.00
    9  -12    1      6.38      0.00
   10  -12    1     -1.89      0.00
   11  -12    1      0.40      0.00
   12  -12    1     -2.24      0.00
   13  -12    1     -3.04      0.00
   14  -12    1     -0.01      0.00
   15  -12    1      0.30      0.00
   16  -12    1      2.25      0.00
   17  -12    1     -2.34      0.00
   18  -12    1      0.80      0.00
   19  -12    1      1.89      0.00
   20  -12    1      0.98      0.00
  -11  -11    1      1.29      0.00
  -10  -11    1      0.22      0.00
   -9  -11    1      6.47      0.00
   -8  -11    1      3.67      0.00
   -7  -11    1      3.09      0.00
   -6  -11    1     -2.16      0.00
   -5  -11    1      0.23      0.00
   -4  -11    1     -2.31      0.00
   -3  -11    1     -4.63      0.00
   -2  -11    1     -1.48      0.00
   -1  -11    1      7.12      0.00
    0  -11    1     -5.27      0.00
    1  -11    1      1.14      0.00
    2  -11    1      0.06      0.00
    3  -11    1    -10.27      0.00
    4  -11    1     -7.27      0.00
    5  -11    1      6.31      0.00
    6  -11    1     -2.47      0.00
    7  -11    1     -4.84      0.00
    8  -11    1      2.77      0.00
    9  -11    1      3.40      0.00
   10  -11    1     -3.71      0.00
   11  -11    1      6.29      0.00
   12  -11    1      4.00      0.00
   13  -11    1     -6.41      0.00
   14  -11    1     -0.15      0.00
   15  -11    1     -0.49      0.00
   16  -11    1     -0.39      0.00
   17  -11    1     -1.49      0.00
   18  -11    1      4.88      0.00
   19  -11    1     -0.86      0.00
   20  -11    1      0.41      0.00
  -11  -10    1      2.86      0.00
  -10  -10    1      2.78      0.00
   -9  -10    1     -1.99      0.00
   -8  -10    1      2.63      0.00
   -7  -10    1      5.17      0.00
   -6  -10    1     -3.20      0.00
   -5  -10    1     -3.16      0.00
   -4  -10    1      0.73      0.00
   -3  -10    1      0.52      0.00
   -2  -10    1      2.83      0.00
   -1  -10    1      6.94      0.00
    0  -10    1     -7.65      0.00
    1  -10    1      4.56      0.00
    2  -10    1      4.30      0.00
    3  -10    1     -3.44      0.00
    4  -10    1     -2.41      0.00
    5  -10    1      1.41      0.00
    6  -10    1     -4.31      0.00
    7  -10    1     -2.98      0.00
    8  -10    1     10.22      0.00
    9  -10    1     -3.73      0.00
   10  -10    1     -4.75      0.00
   11  -10    1      4.02      0.00
   12  -10    1      0.96      0.00
   13  -10    1     -5.00      0.00
   14  -10    1      0.43      0.00
   15  -10    1     -2.55      0.00
   16  -10    1     -0.82      0.00
   17  -10    1     -2.53      0.00
   18  -10    1      3.24      0.00
   19  -10    1     -0.44      0.00
   20  -10    1     -3.04      0.00
  -12   -9    1     -2.44      0.00
  -11   -9    1      3.92      0.00
  -10   -9    1      5.37      0.00
   -9   -9    1      4.98      0.00
   -8   -9    1     -3.39      0.00
   -7   -9    1     -0.55      0.00
   -6   -9    1      3.23      0.00
   -5   -9    1    -10.11      0.00
   -4   -9    1      8.32      0.00
   -3   -9    1     -4.47      0.00
   -2   -9    1     -7.36      0.00
   -1   -9    1     -5.40      0.00
    0   -9    1      2.83      0.00
    1   -9    1    -10.65      0.00
    2   -9    1     -1.94      0.00
    3   -9    1     -6.16      0.00
    4   -9    1      9.32      0.00
    5   -9    1     -2.15      0.00
    6   -9    1     -0.86      0.00
    7   -9    1     -9.91      0.00
    8   -9    1     16.36      0.00
    9   -9    1     -6.26      0.00
   10   -9    1      2.00      0.00
   11   -9    1      1.19      0.00
   12   -9    1      4.40      0.00
   13   -9    1     -8.17      0.00
   14   -9    1     -0.01      0.00
   15   -9    1     -0.70      0.00
   16   -9    1      2.57      0.00
   17   -9    1      0.12      0.00
   18   -9    1      1.68      0.00
   19   -9    1     -4.44      0.00
   20   -9    1      0.66      0.00
  -13   -8    1      6.02      0.00
  -12   -8    1     -0.57      0.00
  -11   -8    1     -3.26      0.00
  -10   -8    1      0.03      0.00
   -9   -8    1     -0.05      0.00
   -8   -8    1     -3.33      0.00
   -7   -8    1     -7.47      0.00
   -6   -8    1     -1.06      0.00
   -5   -8    1      8.43      0.00
   -4   -8    1      7.75      0.00
   -3   -8    1     -1.32      0.00
   -2   -8    1     -6.51      0.00
   -1   -8    1      5.87      0.00
    0   -8    1      8.15      0.00
    1   -8    1      6.17      0.00
    2   -8    1      7.00      0.00
    3   -8    1     -9.04      0.00
    4   -8    1     -7.59      0.00
    5   -8    1     -3.93      0.00
    6   -8    1     11.27      0.00
    7   -8    1     -7.41      0.00
    8   -8    1      1.81      0.00
    9   -8    1     -2.48      0.00
   10   -8    1      1.14      0.00
   11   -8    1     -6.04      0.00
   12   -8    1     -0.90      0.00
   13   -8    1     -9.92      0.00
   14   -8    1      6.84      0.00
   15   -8    1      0.45      0.00
   16   -8    1      0.96      0.00
   17   -8    1     -1.59      0.00
   18   -8    1      0.23      0.00
   19   -8    1     -4.69      0.00
   20   -8    1     -3.24      0.00
  -14   -7    1     -1.47      0.00
  -13   -7    1     -2.41      0.00
  -12   -7    1      1.75      0.00
  -11   -7    1     -2.26      0.00
  -10   -7    1     -2.06      0.00
   -9   -7    1      4.57      0.00
   -8   -7    1      2.49      0.00
   -7   -7    1      0.35      0.00
   -6   -7    1      1.37      0.00
   -5   -7    1    -26.47      0.00
   -4   -7    1      7.40      0.00
   -3   -7    1     -0.11      0.00
   -2   -7    1     -5.01      0.00
   -1   -7    1      4.03      0.00
    0   -7    1     -6.00      0.00
    1   -7    1    -30.17      0.00
    2   -7    1     17.66      0.00
    3   -7    1     14.17      0.00
    4   -7    1      0.11      0.00
    5   -7    1    -15.63      0.00
    6   -7    1     24.87      0.00
    7   -7    1    -19.30      0.00
    8   -7    1     11.73      0.00
    9   -7    1     -9.76      0.00
   10   -7    1     13.65      0.00
   11   -7    1     -9.10      0.00
   12   -7    1      9.40      0.00
   13   -7    1    -13.22      0.00
   14   -7    1      5.17      0.00
   15   -7    1     -2.69      0.00
   16   -7    1      0.93      0.00
   17   -7    1     -0.66      0.00
   18   -7    1      2.41      0.00
   19   -7    1     -0.68      0.00
  -14   -6    1      0.02      0.00
  -13   -6    1     -1.84      0.00
  -12   -6    1     -6.72      0.00
  -11   -6    1      1.03      0.00
  -10   -6    1      1.13      0.00
   -9   -6    1     -1.73      0.00
   -8   -6    1    -13.49      0.00
   -7   -6    1     -5.05      0.00
   -6   -6    1      7.32      0.00
   -5   -6    1      7.18      0.00
   -4   -6    1     -2.53      0.00
   -3   -6    1     10.20      0.00
   -2   -6    1    -15.16      0.00
   -1   -6    1     12.40      0.00
    0   -6    1     29.76      0.00
    1   -6    1     -1.15      0.00
    2   -6    1     -9.41      0.00
    3   -6    1     16.49      0.00
    4   -6    1    -16.39      0.00
    5   -6    1     -6.58      0.00
    6   -6    1      5.11      0.00
    7   -6    1    -19.12      0.00
    8   -6    1      4.96      0.00
    9   -6    1      1.73      0.00
   10   -6    1     -6.59      0.00
   11   -6    1    -17.95      0.00
   12   -6    1     15.87      0.00
   13   -6    1     -1.59      0.00
   14   -6    1      1.62      0.00
   15   -6    1     -3.82      0.00
   16   -6    1      2.08      0.00
   17   -6    1     -4.13      0.00
   18   -6    1      1.85      0.00
   19   -6    1     -5.19      0.00
  -15   -5    1     -1.91      0.00
  -14   -5    1      0.84      0.00
  -13   -5    1     -2.51      0.00
  -12   -5    1     -1.21      0.00
  -11   -5    1     -0.72      0.00
  -10   -5    1      0.77      0.00
   -9   -5    1      4.60      0.00
   -8   -5    1     -0.62      0.00
   -7   -5    1     -1.98      0.00
   -6   -5    1     -4.40      0.00
   -5   -5    1    -17.17      0.00
   -4   -5    1    -11.53      0.00
   -3   -5    1      4.86      0.00
   -2   -5    1     -8.76      0.00
   -1   -5    1     14.57      0.00
    0   -5    1    -20.48      0.00
    1   -5    1    -16.61      0.00
    2   -5    1     17.74      0.00
    3   -5    1      4.89      0.00
    4   -5    1      4.97      0.00
    5   -5    1     -8.06      0.00
    6   -5    1     21.04      0.00
    7   -5    1    -31.77      0.00
    8   -5    1      4.28      0.00
    9   -5    1      0.12      0.00
   10   -5    1     12.49      0.00
   11   -5    1     -8.41      0.00
   12   -5    1     12.24      0.00
   13   -5    1     -8.45      0.00
   14   -5    1      2.92      0.00
   15   -5    1     -0.60      0.00
   16   -5    1     -0.28      0.00
   17   -5    1     -6.55      0.00
   18   -5    1     -0.77      0.00
   19   -5    1      1.06      0.00
  -16   -4    1      3.29      0.00
  -15   -4    1      3.67      0.00
  -14   -4    1     -3.64      0.00
  -13   -4    1     -5.30      0.00
  -12   -4    1      0.66      0.00
  -11   -4    1      3.73      0.00
  -10   -4    1    -11.17      0.00
   -9   -4    1      5.84      0.00
   -8   -4    1     -6.66      0.00
   -7   -4    1      2.14      0.00
   -6   -4    1      1.37      0.00
   -5   -4    1      1.66      0.00
   -4   -4    1     -9.77      0.00
   -3   -4    1     35.86      0.00
   -2   -4    1     -2.02      0.00
   -1   -4    1      5.11      0.00
    0   -4    1     24.85      0.00
    1   -4    1     39.19      0.00
    2   -4    1    -51.78      0.00
    3   -4    1     33.66      0.00
    4   -4    1    -30.46      0.00
    5   -4    1    -17.10      0.00
    6   -4    1      0.04      0.00
    7   -4    1     -5.56      0.00
    8   -4    1      3.34      0.00
    9   -4    1     -9.13      0.00
   10   -4    1      1.46      0.00
   11   -4    1     -6.44      0.00
   12   -4    1     11.24      0.00
   13   -4    1     -4.10      0.00
   14   -4    1     -0.51      0.00
   15   -4    1      0.56      0.00
   16   -4    1     -0.21      0.00
   17   -4    1     -4.60      0.00
   18   -4    1      3.58      0.00
   19   -4    1     -1.84      0.00
  -16   -3    1      3.50      0.00
  -15   -3    1     -3.65      0.00
  -14   -3    1      0.58      0.00
  -13   -3    1      3.50      0.00
  -12   -3    1      1.27      0.00
  -11   -3    1      3.52      0.00
  -10   -3    1     -1.62      0.00
   -9   -3    1     -2.10      0.00
   -8   -3    1    -13.53      0.00
   -7   -3    1     -3.97      0.00
   -6   -3    1      9.26      0.00
   -5   -3    1     -1.97      0.00
   -4   -3    1    -34.53      0.00
   -3   -3    1      9.10      0.00
   -2   -3    1    -15.70      0.00
   -1   -3    1    -10.56      0.00
    0   -3    1     39.81      0.00
    1   -3    1     17.32      0.00
    2   -3    1     -7.62      0.00
    3   -3    1     -5.02      0.00
    4   -3    1     11.70      0.00
    5   -3    1    -26.91      0.00
    6   -3    1     -3.97      0.00
    7   -3    1      4.58      0.00
    8   -3    1      7.60      0.00
    9   -3    1      5.31      0.00
   10   -3    1     10.48      0.00
   11   -3    1    -12.30      0.00
   12   -3    1      5.23      0.00
   13   -3    1     -3.40      0.00
   14   -3    1     -3.63      0.00
   15   -3    1     -2.52      0.00
   16   -3    1      0.56      0.00
   17   -3    1     -4.72      0.00
   18   -3    1      2.49      0.00
  -17   -2    1      1.02      0.00
  -16   -2    1      0.56      0.00
  -15   -2    1      1.79      0.00
  -14   -2    1     -2.75      0.00
  -13   -2    1      2.95      0.00
  -12   -2    1     -5.08      0.00
  -11   -2    1      1.37      0.00
  -10   -2    1     -1.19      0.00
   -9   -2    1     12.21      0.00
   -8   -2    1     -8.67      0.00
   -7   -2    1     -8.52      0.00
   -6   -2    1      4.81      0.00
   -5   -2    1     -6.68      0.00
   -4   -2    1      1.98      0.00
   -3   -2    1     38.06      0.00
   -2   -2    1     -5.44      0.00
   -1   -2    1     38.06      0.00
    0   -2    1     28.50      0.00
    1   -2    1     54.30      0.00
    2   -2    1   -102.46      0.00
    3   -2    1      6.65      0.00
    4   -2    1     -2.88      0.00
    5   -2    1    -16.31      0.00
    6   -2    1     -1.33      0.00
    7   -2    1      4.78      0.00
    8   -2    1     -4.39      0.00
    9   -2    1     -3.21      0.00
   10   -2    1     12.89      0.00
   11   -2    1     -1.14      0.00
   12   -2    1     -2.55      0.00
   13   -2    1     -3.68      0.00
   14   -2    1      0.06      0.00
   15   -2    1     -5.45      0.00
   16   -2    1      1.23      0.00
   17   -2    1      0.60      0.00
   18   -2    1      1.93      0.00
  -17   -1    1     -0.60      0.00
  -16   -1    1      2.55      0.00
  -15   -1    1     -1.11      0.00
  -14   -1    1      0.97      0.00
  -13   -1    1      0.87      0.00
  -12   -1    1      2.23      0.00
  -11   -1    1      4.23      0.00
  -10   -1    1     -5.69      0.00
   -9   -1    1     -0.07      0.00
   -8   -1    1     -1.48      0.00
   -7   -1    1    -18.21      0.00
   -6   -1    1     -8.19      0.00
   -5   -1    1     -1.65      0.00
   -4   -1    1     -1.45      0.00
   -3   -1    1      7.15      0.00
   -2   -1    1     22.28      0.00
   -1   -1    1   -116.41      0.00
    2   -1    1    -15.33      0.00
    3   -1    1    -18.23      0.00
    4   -1    1      0.48      0.00
    5   -1    1    -14.15      0.00
    6   -1    1     25.99      0.00
    7   -1    1     19.46      0.00
    8   -1    1     -6.35      0.00
    9   -1    1      2.93      0.00
   10   -1    1      9.62      0.00
   11   -1    1     -5.50      0.00
   12   -1    1      3.57      0.00
   13   -1    1     -1.81      0.00
   14   -1    1     -2.95      0.00
   15   -1    1     -3.78      0.00
   16   -1    1      2.77      0.00
   17   -1    1     -2.22      0.00
   18   -1    1     -1.39      0.00
  -18    0    1     -0.44      0.00
  -17    0    1     -0.76      0.00
  -16    0    1     -2.89      0.00
  -15    0    1      4.59      0.00
  -14    0    1     -2.11      0.00
  -13    0    1     -0.79      0.00
  -12    0    1      2.93      0.00
  -11    0    1     -0.20      0.00
  -10    0    1     -5.43      0.00
   -9    0    1     -7.18      0.00
   -8    0    1      6.73      0.00
   -7    0    1     -7.22      0.00
   -6    0    1     18.98      0.00
   -5    0    1     -8.35      0.00
   -4    0    1    -15.10      0.00
   -3    0    1      0.30      0.00
   -2    0    1    103.62      0.00
    1    0    1   -148.36      0.00
    2    0    1    -23.85      0.00
    3    0    1     -6.57      0.00
    4    0    1     29.20      0.00
    5    0    1     -8.46      0.00
    6    0    1     -5.65      0.00
    7    0    1     -4.55      0.00
    8    0    1      4.63      0.00
    9    0    1     -3.69      0.00
   10    0    1      6.36      0.00
   11    0    1     -2.23      0.00
   12    0    1     -1.51      0.00
   13    0    1      1.93      0.00
   14    0    1      0.67      0.00
   15    0    1     -2.28      0.00
   16    0    1      3.83      0.00
   17    0    1      0.91      0.00
  -18    1    1      1.53      0.00
  -17    1    1     -0.24      0.00
  -16    1    1     -1.72      0.00
  -15    1    1      5.31      0.00
  -14    1    1      4.20      0.00
  -13    1    1     -3.37      0.00
  -12    1    1      8.75      0.00
  -11    1    1      3.20      0.00
  -10    1    1    -14.48      0.00
   -9    1    1     -1.35      0.00
   -8    1    1      6.04      0.00
   -7    1    1    -41.87      0.00
   -6    1    1      6.40      0.00
   -5    1    1      1.02      0.00
   -4    1    1     29.02      0.00
   -3    1    1    -66.32      0.00
    1    1    1     38.87      0.00
    2    1    1      1.78      0.00
    3    1    1    -36.31      0.00
    4    1    1     23.19      0.00
    5    1    1     -2.73      0.00
    6    1    1     16.48      0.00
    7    1    1      5.74      0.00
    8    1    1      5.09      0.00
    9    1    1     -3.08      0.00
   10    1    1      7.04      0.00
   11    1    1     -7.19      0.00
   12    1    1     -0.11      0.00
   13    1    1     -4.14      0.00
   14    1    1      1.86      0.00
   15    1    1     -0.17      0.00
   16    1    1     -1.11      0.00
   17    1    1     -0.17      0.00
  -19    2    1     -2.33      0.00
  -18    2    1     -2.61      0.00
  -17    2    1     -0.02      0.00
  -16    2    1      1.47      0.00
  -15    2    1     -3.56      0.00
  -14    2    1      2.03      0.00
  -13    2    1      5.56      0.00
  -12    2    1      0.89      0.00
  -11    2    1     -0.90      0.00
  -10    2    1     -1.42      0.00
   -9    2    1     -8.85      0.00
   -8    2    1     19.42      0.00
   -7    2    1    -13.19      0.00
   -6    2    1     18.30      0.00
   -5    2    1      6.44      0.00
   -4    2    1     -0.86      0.00
   -3    2    1     18.76      0.00
   -2    2    1    114.08      0.00
   -1    2    1   -133.72      0.00
    0    2    1    -42.53      0.00
    1    2    1    -19.09      0.00
    2    2    1     36.34      0.00
    3    2    1    -54.44      0.00
    4    2    1     31.10      0.00
    5    2    1    -17.39      0.00
    6    2    1      4.21      0.00
    7    2    1      6.57      0.00
    8    2    1      2.09      0.00
    9    2    1     -6.67      0.00
   10    2    1      3.43      0.00
   11    2    1      2.51      0.00
   12    2    1      2.18      0.00
   13    2    1     -2.12      0.00
   14    2    1      1.24      0.00
   15    2    1     -1.47      0.00
   16    2    1      0.44      0.00
  -19    3    1      0.99      0.00
  -18    3    1     -2.01      0.00
  -17    3    1      4.19      0.00
  -16    3    1      0.35      0.00
  -15    3    1      0.65      0.00
  -14    3    1      5.47      0.00
  -13    3    1     -2.71      0.00
  -12    3    1     -0.56      0.00
  -11    3    1      3.63      0.00
  -10    3    1     -5.06      0.00
   -9    3    1     -9.15      0.00
   -8    3    1      4.77      0.00
   -7    3    1    -19.50      0.00
   -6    3    1     31.04      0.00
   -5    3    1    -17.93      0.00
   -4    3    1     30.87      0.00
   -3    3    1    -76.24      0.00
   -2    3    1     81.45      0.00
   -1    3    1    -25.68      0.00
    0    3    1     31.67      0.00
    1    3    1    -28.13      0.00
    2    3    1     28.67      0.00
    3    3    1    -13.02      0.00
    4    3    1     38.57      0.00
    5    3    1    -10.53      0.00
    6    3    1     -8.59      0.00
    7    3    1     -3.16      0.00
    8    3    1     17.64      0.00
    9    3    1     -4.63      0.00
   10    3    1      4.58      0.00
   11    3    1     -2.80      0.00
   12    3    1     -3.76      0.00
   13    3    1      0.08      0.00
   14    3    1     -0.34      0.00
   15    3    1     -0.09      0.00
   16    3    1     -1.93      0.00
  -19    4    1     -5.17      0.00
  -18    4    1     -1.29      0.00
  -17    4    1      1.27      0.00
  -16    4    1      1.63      0.00
  -15    4    1     -2.39      0.00
  -14    4    1      2.02      0.00
  -13    4    1      0.94      0.00
  -12    4    1     -6.86      0.00
  -11    4    1      5.27      0.00
  -10    4    1      9.43      0.00
   -9    4    1    -10.04      0.00
   -8    4    1     12.83      0.00
   -7    4    1      1.10      0.00
   -6    4    1     -8.62      0.00
   -5    4    1     12.54      0.00
   -4    4    1     35.11      0.00
   -3    4    1    -39.42      0.00
   -2    4    1     39.86      0.00
   -1    4    1    -66.21      0.00
    0    4    1     22.19      0.00
    1    4    1    -12.85      0.00
    2    4    1     17.19      0.00
    3    4    1    -50.75      0.00
    4    4    1     24.17      0.00
    6    4    1      4.61      0.00
    7    4    1     -3.59      0.00
    8    4    1     -0.90      0.00
    9    4    1     -2.28      0.00
   10    4    1      7.10      0.00
   11    4    1     -0.18      0.00
   12    4    1      2.47      0.00
   13    4    1      1.69      0.00
   14    4    1     -1.36      0.00
   15    4    1     -1.25      0.00
  -20    5    1     -6.10      0.00
  -19    5    1     -1.43      0.00
  -18    5    1     -0.28      0.00
  -17    5    1      3.53      0.00
  -16    5    1      0.12      0.00
  -15    5    1     -0.50      0.00
  -14    5    1      2.16      0.00
  -13    5    1      4.92      0.00
  -12    5    1     -7.93      0.00
  -11    5    1     -1.49      0.00
  -10    5    1      4.53      0.00
   -9    5    1    -10.11      0.00
   -8    5    1     23.91      0.00
   -7    5    1     -4.43      0.00
   -6    5    1     -6.53      0.00
   -5    5    1    -26.96      0.00
   -4    5    1     21.05      0.00
   -3    5    1    -41.20      0.00
   -2    5    1     36.31      0.00
   -1    5    1     24.39      0.00
    0    5    1      6.58      0.00
    1    5    1    -24.85      0.00
    2    5    1     27.76      0.00
    3    5    1     -8.21      0.00
    4    5    1     11.24      0.00
    5    5    1      6.28      0.00
    6    5    1      8.08      0.00
    7    5    1     -0.72      0.00
    8    5    1      4.28      0.00
    9    5    1    -10.55      0.00
   10    5    1     -1.37      0.00
   11    5    1      0.46      0.00
   12    5    1     -3.34      0.00
   13    5    1      2.73      0.00
   14    5    1      0.44      0.00
  -20    6    1      0.88      0.00
  -19    6    1     -2.20      0.00
  -18    6    1     -1.24      0.00
  -17    6    1     -2.15      0.00
  -16    6    1     -1.15      0.00
  -15    6    1      1.48      0.00
  -14    6    1     -1.69      0.00
  -13    6    1     -1.13      0.00
  -12    6    1      1.91      0.00
  -11    6    1     13.95      0.00
  -10    6    1      5.33      0.00
   -9    6    1    -10.60      0.00
   -8    6    1     -0.66      0.00
   -7    6    1      8.17      0.00
   -6    6    1     -6.43      0.00
   -5    6    1      7.15      0.00
   -4    6    1     16.98      0.00
   -3    6    1    -26.21      0.00
   -2    6    1     14.69      0.00
   -1    6    1    -16.84      0.00
    0    6    1      3.33      0.00
    1    6    1    -17.39      0.00
    2    6    1     18.07      0.00
    3    6    1    -13.94      0.00
    4    6    1     -0.76      0.00
    5    6    1     -8.23      0.00
    6    6    1      4.61      0.00
    7    6    1      4.62      0.00
    8    6    1      8.31      0.00
    9    6    1      0.62      0.00
   10    6    1      0.15      0.00
   11    6    1      0.91      0.00
   12    6    1      1.87      0.00
   13    6    1      1.21      0.00
   14    6    1      2.31      0.00
  -20    7    1     -2.82      0.00
  -19    7    1      2.67      0.00
  -18    7    1     -0.70      0.00
  -17    7    1      0.08      0.00
  -16    7    1     -0.25      0.00
  -15    7    1     -2.26      0.00
  -14    7    1      1.25      0.00
  -13    7    1      5.06      0.00
  -12    7    1      1.78      0.00
  -11    7    1     -3.57      0.00
  -10    7    1     11.06      0.00
   -9    7    1     -8.08      0.00
   -8    7    1      8.35      0.00
   -7    7    1     -8.02      0.00
   -6    7    1    -11.00      0.00
   -5    7    1      4.32      0.00
   -4    7    1      2.56      0.00
   -3    7    1    -20.13      0.00
   -2    7    1     14.93      0.00
   -1    7    1     23.95      0.00
    0    7    1     -6.81      0.00
    1    7    1      0.27      0.00
    2    7    1     10.13      0.00
    3    7    1    -10.89      0.00
    4    7    1      8.89      0.00
    5    7    1     11.62      0.00
    6    7    1     -3.29      0.00
    7    7    1     -9.29      0.00
    8    7    1     -6.44      0.00
    9    7    1     -1.10      0.00
   10    7    1      0.52      0.00
   11    7    1      1.78      0.00
   12    7    1     -1.44      0.00
   13    7    1      0.60      0.00
  -20    8    1      1.99      0.00
  -19    8    1     -0.58      0.00
  -18    8    1     -2.59      0.00
  -17    8    1      1.02      0.00
  -16    8    1      2.62      0.00
  -15    8    1     -4.85      0.00
  -14    8    1      2.77      0.00
  -13    8    1      6.25      0.00
  -12    8    1      8.82      0.00
  -11    8    1     -4.36      0.00
  -10    8    1      2.09      0.00
   -9    8    1     -3.76      0.00
   -8    8    1      0.61      0.00
   -7    8    1     -5.67      0.00
   -6    8    1     -2.00      0.00
   -5    8    1     -6.48      0.00
   -4    8    1     19.32      0.00
   -3    8    1     -1.61      0.00
   -2    8    1     -7.31      0.00
   -1    8    1     -8.28      0.00
    0    8    1     -2.05      0.00
    1    8    1     -8.51      0.00
    2    8    1     13.66      0.00
    3    8    1      2.60      0.00
    4    8    1     -6.14      0.00
    5    8    1     -2.19      0.00
    6    8    1      4.85      0.00
    7    8    1     -3.07      0.00
    8    8    1      6.30      0.00
    9    8    1     -4.37      0.00
   10    8    1      0.61      0.00
   11    8    1      3.17      0.00
   12    8    1      0.13      0.00
  -20    9    1     -0.57      0.00
  -19    9    1      2.39      0.00
  -18    9    1     -1.38      0.00
  -17    9    1     -1.04      0.00
  -16    9    1      0.42      0.00
  -15    9    1      0.32      0.00
  -14    9    1      6.88      0.00
  -13    9    1     -1.72      0.00
  -12    9    1      4.39      0.00
  -11    9    1     -9.02      0.00
  -10    9    1     17.76      0.00
   -9    9    1    -11.64      0.00
   -8    9    1     -3.72      0.00
   -7    9    1      8.44      0.00
   -6    9    1      2.59      0.00
   -5    9    1     -9.28      0.00
   -4    9    1     -3.55      0.00
   -3    9    1     11.12      0.00
   -2    9    1      3.75      0.00
   -1    9    1      6.22      0.00
    0    9    1      0.58      0.00
    1    9    1     -1.24      0.00
    2    9    1      4.14      0.00
    3    9    1     -4.55      0.00
    4    9    1      4.49      0.00
    5    9    1     -0.17      0.00
    6    9    1     -5.63      0.00
    7    9    1      1.98      0.00
    8    9    1     -4.34      0.00
    9    9    1     -2.24      0.00
   10    9    1     -3.38      0.00
   11    9    1     -1.41      0.00
   12    9    1      1.68      0.00
  -20   10    1     -1.50      0.00
  -19   10    1     -1.41      0.00
  -18   10    1     -0.94      0.00
  -17   10    1     -0.59      0.00
  -16   10    1      2.69      0.00
  -15   10    1     -1.65      0.00
  -14   10    1      7.00      0.00
  -13   10    1      2.70      0.00
  -12   10    1      1.91      0.00
  -11   10    1    -10.04      0.00
  -10   10    1     14.44      0.00
   -9   10    1    -12.58      0.00
   -8   10    1      0.42      0.00
   -7   10    1     -4.61      0.00
   -6   10    1      8.22      0.00
   -5   10    1     -6.57      0.00
   -4   10    1      9.82      0.00
   -3   10    1     -3.36      0.00
   -2   10    1     -4.36      0.00
   -1   10    1      1.90      0.00
    0   10    1      3.14      0.00
    1   10    1     -8.18      0.00
    2   10    1      6.20      0.00
    3   10    1     -2.89      0.00
    4   10    1      2.65      0.00
    5   10    1      0.69      0.00
    6   10    1      1.62      0.00
    7   10    1     -8.84      0.00
    8   10    1      1.74      0.00
    9   10    1     -0.53      0.00
   10   10    1      0.66      0.00
   11   10    1     -5.17      0.00
  -20   11    1      1.85      0.00
  -19   11    1     -1.93      0.00
  -18   11    1     -1.87      0.00
  -17   11    1     -3.26      0.00
  -16   11    1      4.50      0.00
  -15   11    1     -4.95      0.00
  -14   11    1      3.82      0.00
  -13   11    1     -3.23      0.00
  -12   11    1      4.79      0.00
  -11   11    1     -9.19      0.00
  -10   11    1     12.59      0.00
   -9   11    1     -9.29      0.00
   -8   11    1      4.88      0.00
   -7   11    1     -0.35      0.00
   -6   11    1     -1.25      0.00
   -5   11    1     -3.74      0.00
   -4   11    1     13.33      0.00
   -3   11    1      2.36      0.00
   -2   11    1     -4.10      0.00
   -1   11    1     -3.48      0.00
    0   11    1      8.09      0.00
    1   11    1     -9.92      0.00
    2   11    1      8.17      0.00
    3   11    1      1.76      0.00
    4   11    1     -5.02      0.00
    5   11    1     -2.18      0.00
    6   11    1     -2.18      0.00
    7   11    1     -0.54      0.00
    8   11    1     -0.70      0.00
    9   11    1     -1.08      0.00
   10   11    1     -0.05      0.00
  -20   12    1     -3.03      0.00
  -19   12    1     -0.61      0.00
  -18   12    1      0.70      0.00
  -17   12    1     -3.38      0.00
  -16   12    1     -0.09      0.00
  -15   12    1     -1.21      0.00
  -14   12    1      2.19      0.00
  -13   12    1     -1.51      0.00
  -12   12    1      9.01      0.00
  -11   12    1     -8.10      0.00
  -10   12    1      8.99      0.00
   -9   12    1    -12.48      0.00
   -8   12    1      5.82      0.00
   -7   12    1      0.09      0.00
   -6   12    1      8.54      0.00
   -5   12    1     -9.31      0.00
   -4   12    1     -0.93      0.00
   -3   12    1      1.02      0.00
   -2   12    1      1.92      0.00
   -1   12    1     -0.15      0.00
    0   12    1      3.94      0.00
    1   12    1     -8.92      0.00
    2   12    1      5.42      0.00
    3   12    1     -3.83      0.00
    4   12    1      6.35      0.00
    5   12    1     -4.69      0.00
    6   12    1     -4.04      0.00
    7   12    1     -7.45      0.00
    8   12    1      3.36      0.00
    9   12    1     -0.92      0.00
  -20   13    1     -0.23      0.00
  -19   13    1     -4.78      0.00
  -18   13    1     -3.09      0.00
  -17   13    1     -3.49      0.00
  -16   13    1      7.72      0.00
  -15   13    1     -2.16      0.00
  -14   13    1     -2.98      0.00
  -13   13    1     -5.64      0.00
  -12   13    1      9.30      0.00
  -11   13    1     -9.38      0.00
  -10   13    1      6.53      0.00
   -9   13    1     -4.38      0.00
   -8   13    1      3.13      0.00
   -7   13    1     -3.71      0.00
   -6   13    1      7.26      0.00
   -5   13    1     -5.66      0.00
   -4   13    1      3.86      0.00
   -3   13    1     -4.80      0.00
   -2   13    1     -2.88      0.00
   -1   13    1     -8.12      0.00
    0   13    1      7.06      0.00
    1   13    1      5.20      0.00
    2   13    1     -2.95      0.00
    3   13    1      2.80      0.00
    4   13    1     -1.27      0.00
    5   13    1     -1.14      0.00
    6   13    1     -1.02      0.00
    7   13    1     -2.53      0.00
    8   13    1      4.36      0.00
  -20   14    1      1.01      0.00
  -19   14    1     -0.91      0.00
  -18   14    1     -0.95      0.00
  -17   14    1     -4.36      0.00
  -16   14    1      1.54      0.00
  -15   14    1      1.12      0.00
  -14   14    1      6.47      0.00
  -13   14    1     -0.88      0.00
  -12   14    1      2.06      0.00
  -11   14    1    -11.05      0.00
  -10   14    1      6.78      0.00
   -9   14    1     -1.83      0.00
   -8   14    1      5.55      0.00
   -7   14    1      1.65      0.00
   -6   14    1      2.66      0.00
   -5   14    1     -5.05      0.00
   -4   14    1      0.91      0.00
   -3   14    1      3.46      0.00
   -2   14    1     -2.54      0.00
   -1   14    1     -3.49      0.00
    0   14    1      2.34      0.00
    1   14    1     -1.80      0.00
    2   14    1      0.81      0.00
    3   14    1     -4.20      0.00
    4   14    1      0.52      0.00
    5   14    1     -4.02      0.00
    6   14    1      2.61      0.00
    7   14    1     -0.70      0.00
  -20   15    1     -1.01      0.00
  -19   15    1     -3.12      0.00
  -18   15    1      2.30      0.00
  -17   15    1      0.31      0.00
  -16   15    1      3.87      0.00
  -15   15    1     -2.93      0.00
  -14   15    1      0.17      0.00
  -13   15    1     -0.56      0.00
  -12   15    1      3.96      0.00
  -11   15    1     -7.52      0.00
  -10   15    1      2.14      0.00
   -9   15    1      0.76      0.00
   -8   15    1      1.78      0.00
   -7   15    1     -2.77      0.00
   -6   15    1      4.05      0.00
   -5   15    1     -0.93      0.00
   -4   15    1     -0.96      0.00
   -3   15    1      1.04      0.00
   -2   15    1      0.58      0.00
   -1   15    1      3.60      0.00
    0   15    1      0.95      0.00
    1   15    1      2.30      0.00
    2   15    1     -3.39      0.00
    3   15    1     -0.42      0.00
    4   15    1     -0.74      0.00
    5   15    1      0.40      0.00
    6   15    1      3.44      0.00
  -19   16    1      1.28      0.00
  -18   16    1      0.10      0.00
  -17   16    1     -5.86      0.00
  -16   16    1      1.66      0.00
  -15   16    1      0.81      0.00
  -14   16    1      1.14      0.00
  -13   16    1     -1.59      0.00
  -12   16    1      6.22      0.00
  -11   16    1     -3.48      0.00
  -10   16    1     -1.10      0.00
   -9   16    1      4.34      0.00
   -8   16    1      4.02      0.00
   -7   16    1      0.17      0.00
   -6   16    1      2.49      0.00
   -5   16    1      1.28      0.00
   -4   16    1     -5.67      0.00
   -3   16    1      0.09      0.00
   -2   16    1      1.58      0.00
   -1   16    1      2.76      0.00
    0   16    1      2.09      0.00
    1   16    1      0.60      0.00
    2   16    1     -3.93      0.00
    3   16    1      1.15      0.00
    4   16    1      3.22      0.00
    5   16    1      0.58      0.00
  -19   17    1     -0.86      0.00
  -18   17    1      1.63      0.00
  -17   17    1     -0.24      0.00
  -16   17    1      0.13      0.00
  -15   17    1     -2.00      0.00
  -14   17    1     -0.31      0.00
  -13   17    1     -3.08      0.00
  -12   17    1     -0.21      0.00
  -11   17    1     -0.35      0.00
  -10   17    1      3.21      0.00
   -9   17    1     -0.02      0.00
   -8   17    1      3.53      0.00
   -7   17    1      0.79      0.00
   -6   17    1     -0.21      0.00
   -5   17    1      0.19      0.00
   -4   17    1     -4.60      0.00
   -3   17    1      3.20      0.00
   -2   17    1      0.00      0.00
   -1   17    1      1.64      0.00
    0   17    1     -3.22      0.00
    1   17    1      0.95      0.00
    2   17    1      1.45      0.00
    3   17    1     -1.41      0.00
    4   17    1     -0.39      0.00
  -18   18    1      1.21      0.00
  -17   18    1      0.55      0.00
  -16   18    1     -0.97      0.00
  -15   18    1      1.41      0.00
  -14   18    1      0.27      0.00
  -13   18    1     -1.45      0.00
  -12   18    1     -1.78      0.00
  -11   18    1      2.37      0.00
  -10   18    1      4.06      0.00
   -9   18    1      3.29      0.00
   -8   18    1      1.68      0.00
   -7   18    1     -2.54      0.00
   -6   18    1      0.68      0.00
   -5   18    1     -1.12      0.00
   -4   18    1      2.79      0.00
   -3   18    1      5.40      0.00
   -2   18    1     -2.55      0.00
   -1   18    1      2.74      0.00
    0   18    1      0.30      0.00
    1   18    1      1.71      0.00
    2   18    1     -0.31      0.00
  -18   19    1      0.28      0.00
  -17   19    1     -2.47      0.00
  -16   19    1     -1.10      0.00
  -15   19    1      0.43      0.00
  -14   19    1      1.62      0.00
  -13   19    1     -4.76      0.00
  -12   19    1     -1.08      0.00
  -11   19    1     -0.55      0.00
  -10   19    1     -4.76      0.00
   -9   19    1     -0.12      0.00
   -8   19    1      2.11      0.00
   -7   19    1     -0.51      0.00
   -6   19    1     -3.14      0.00
   -5   19    1     -3.24      0.00
   -4   19    1     -3.69      0.00
   -3   19    1      1.07      0.00
   -2   19    1      1.76      0.00
   -1   19    1      0.88      0.00
    0   19    1     -1.72      0.00
    1   19    1     -0.23      0.00
  -17   20    1      0.77      0.00
  -16   20    1     -0.18      0.00
  -15   20    1      1.30      0.00
  -14   20    1     -1.55      0.00
  -13   20    1      1.14      0.00
  -12   20    1      1.32      0.00
  -11   20    1      5.03      0.00
  -10   20    1      0.14      0.00
   -9   20    1     -0.76      0.00
   -8   20    1      1.30      0.00
   -7   20    1     -2.07      0.00
   -6   20    1      0.65      0.00
   -5   20    1      2.98      0.00
   -4   20    1      1.80      0.00
   -3   20    1      6.41      0.00
   -2   20    1     -1.74      0.00
   -1   20    1      2.32      0.00
  -16   21    1      2.75      0.00
  -15   21    1     -4.25      0.00
  -14   21    1     -3.71      0.00
  -13   21    1     -0.29      0.00
  -12   21    1     -0.46      0.00
  -11   21    1     -1.08      0.00
  -10   21    1     -1.60      0.00
   -9   21    1      1.00      0.00
   -8   21    1     -3.36      0.00
   -7   21    1     -1.67      0.00
   -6   21    1     -0.17      0.00
   -5   21    1     -1.62      0.00
   -4   21    1      1.91      0.00
   -3   21    1      0.64      0.00
  -14   22    1      0.74      0.00
  -13   22    1      2.60      0.00
  -12   22    1      0.65      0.00
  -11   22    1      2.00      0.00
  -10   22    1     -1.05      0.00
   -9   22    1      0.74      0.00
   -8   22    1      0.57      0.00
   -7   22    1      2.76      0.00
   -6   22    1      0.18      0.00
    6  -22    2     -4.03      0.00
    7  -22    2     -1.46      0.00
    8  -22    2      1.92      0.00
    9  -22    2     -1.26      0.00
   10  -22    2     -1.73      0.00
   11  -22    2      3.02      0.00
   12  -22    2      1.29      0.00
   13  -22    2      0.54      0.00
    3  -21    2      0.03      0.00
    4  -21    2     -2.78      0.00
    5  -21    2      1.51      0.00
    6  -21    2     -0.48      0.00
    7  -21    2     -2.68      0.00
    8  -21    2      0.05      0.00
    9  -21    2      3.91      0.00
   10  -21    2      5.00      0.00
   11  -21    2     -4.57      0.00
   12  -21    2     -0.61      0.00
   13  -21    2      0.54      0.00
   14  -21    2     -2.17      0.00
   15  -21    2      1.06      0.00
    0  -20    2      0.89      0.00
    1  -20    2     -0.01      0.00
    2  -20    2      2.47      0.00
    3  -20    2      2.12      0.00
    4  -20    2     -3.87      0.00
    5  -20    2     -2.60      0.00
    6  -20    2      5.80      0.00
    7  -20    2      2.31      0.00
    8  -20    2     -4.14      0.00
    9  -20    2      2.91      0.00
   10  -20    2      0.91      0.00
   11  -20    2      0.62      0.00
   12  -20    2     -1.14      0.00
   13  -20    2      1.35      0.00
   14  -20    2     -0.45      0.00
   15  -20    2     -2.97      0.00
   16  -20    2     -1.98      0.00
   -2  -19    2      0.32      0.00
   -1  -19    2     -0.97      0.00
    0  -19    2     -1.69      0.00
    1  -19    2     -0.73      0.00
    2  -19    2     -2.37      0.00
    3  -19    2      0.82      0.00
    4  -19    2     -5.69      0.00
    5  -19    2     -3.45      0.00
    6  -19    2     -2.69      0.00
    7  -19    2      0.90      0.00
    8  -19    2      1.86      0.00
    9  -19    2     -0.85      0.00
   10  -19    2     -0.39      0.00
   11  -19    2      0.94      0.00
   12  -19    2     -5.11      0.00
   13  -19    2     -0.09      0.00
   14  -19    2      2.54      0.00
   15  -19    2      4.67      0.00
   16  -19    2     -0.50      0.00
   17  -19    2     -0.30      0.00
   -3  -18    2      0.27      0.00
   -2  -18    2     -3.55      0.00
   -1  -18    2      2.08      0.00
    0  -18    2      8.16      0.00
    1  -18    2     -1.62      0.00
    2  -18    2     -0.65      0.00
    3  -18    2      1.85      0.00
    4  -18    2      5.23      0.00
    5  -18    2      5.63      0.00
    6  -18    2     -2.62      0.00
    7  -18    2      0.84      0.00
    8  -18    2     -4.08      0.00
    9  -18    2     -0.27      0.00
   10  -18    2      2.40      0.00
   11  -18    2      4.94      0.00
   12  -18    2     -2.67      0.00
   13  -18    2     -1.52      0.00
   14  -18    2     -3.36      0.00
   15  -18    2     -0.90      0.00
   16  -18    2     -1.61      0.00
   17  -18    2      1.50      0.00
   18  -18    2     -1.41      0.00
   -4  -17    2     -2.70      0.00
   -3  -17    2      0.74      0.00
   -2  -17    2      1.06      0.00
   -1  -17    2     -1.66      0.00
    0  -17    2     -0.90      0.00
    1  -17    2     -1.79      0.00
    2  -17    2      2.02      0.00
    3  -17    2     -4.27      0.00
    4  -17    2     -0.65      0.00
    5  -17    2     -2.86      0.00
    6  -17    2     -4.85      0.00
    7  -17    2      5.36      0.00
    8  -17    2      1.74      0.00
    9  -17    2      1.73      0.00
   10  -17    2     -8.91      0.00
   11  -17    2      2.68      0.00
   12  -17    2     -3.53      0.00
   13  -17    2      2.36      0.00
   14  -17    2      1.50      0.00
   15  -17    2     -1.97      0.00
   16  -17    2      0.03      0.00
   17  -17    2      1.26      0.00
   18  -17    2      0.96      0.00
   -6  -16    2     -2.73      0.00
   -5  -16    2      2.43      0.00
   -4  -16    2      0.27      0.00
   -3  -16    2     -3.71      0.00
   -2  -16    2      6.40      0.00
   -1  -16    2      1.11      0.00
    0  -16    2     -0.63      0.00
    1  -16    2      1.49      0.00
    2  -16    2      4.03      0.00
    3  -16    2      2.40      0.00
    4  -16    2      2.21      0.00
    5  -16    2      1.63      0.00
    6  -16    2     -3.96      0.00
    7  -16    2     -0.50      0.00
    8  -16    2      2.86      0.00
    9  -16    2      4.34      0.00
   10  -16    2     -0.84      0.00
   11  -16    2      3.09      0.00
   12  -16    2     -4.95      0.00
   13  -16    2      0.03      0.00
   14  -16    2     -0.36      0.00
   15  -16    2     -0.52      0.00
   16  -16    2     -4.70      0.00
   17  -16    2     -2.49      0.00
   18  -16    2     -0.04      0.00
   -7  -15    2     -0.78      0.00
   -6  -15    2      2.92      0.00
   -5  -15    2      1.35      0.00
   -4  -15    2     -3.69      0.00
   -3  -15    2      0.67      0.00
   -2  -15    2      0.79      0.00
   -1  -15    2     -6.52      0.00
    0  -15    2      2.96      0.00
    1  -15    2     -1.40      0.00
    2  -15    2      2.47      0.00
    3  -15    2     -2.55      0.00
    4  -15    2     -8.38      0.00
    5  -15    2      4.26      0.00
    6  -15    2      5.56      0.00
    7  -15    2      8.28      0.00
    8  -15    2    -10.64      0.00
    9  -15    2      2.63      0.00
   10  -15    2     -7.36      0.00
   11  -15    2      4.03      0.00
   12  -15    2     -1.26      0.00
   13  -15    2     -1.62      0.00
   14  -15    2      1.05      0.00
   15  -15    2     -0.22      0.00
   16  -15    2      0.18      0.00
   17  -15    2      0.85      0.00
   18  -15    2      0.96      0.00
   19  -15    2      0.19      0.00
   -8  -14    2     -1.79      0.00
   -7  -14    2      3.93      0.00
   -6  -14    2     -0.31      0.00
   -5  -14    2     -0.83      0.00
   -4  -14    2      2.45      0.00
   -3  -14    2     -4.69      0.00
   -2  -14    2     -2.04      0.00
   -1  -14    2      4.76      0.00
    0  -14    2      4.55      0.00
    1  -14    2      0.51      0.00
    2  -14    2      1.32      0.00
    3  -14    2     -1.33      0.00
    4  -14    2     -1.90      0.00
    5  -14    2     -3.66      0.00
    6  -14    2      0.81      0.00
    7  -14    2      0.07      0.00
    8  -14    2      0.68      0.00
    9  -14    2      6.54      0.00
   10  -14    2     -2.06      0.00
   11  -14    2      2.33      0.00
   12  -14    2     -4.63      0.00
   13  -14    2     -0.03      0.00
   14  -14    2     -0.56      0.00
   15  -14    2      1.41      0.00
   16  -14    2     -0.36      0.00
   17  -14    2     -3.36      0.00
   18  -14    2      0.14      0.00
   19  -14    2     -0.23      0.00
   -9  -13    2      0.06      0.00
   -8  -13    2      2.47      0.00
   -7  -13    2     -0.04      0.00
   -6  -13    2     -2.67      0.00
   -5  -13    2     -6.63      0.00
   -4  -13    2     -3.61      0.00
   -3  -13    2     -5.35      0.00
   -2  -13    2     -0.59      0.00
   -1  -13    2      4.92      0.00
    0  -13    2      0.23      0.00
    1  -13    2      2.43      0.00
    2  -13    2    -13.40      0.00
    3  -13    2      0.35      0.00
    4  -13    2     -0.24      0.00
    5  -13    2     12.85      0.00
    6  -13    2     -9.43      0.00
    7  -13    2      1.98      0.00
    8  -13    2     -6.17      0.00
    9  -13    2      4.81      0.00
   10  -13    2     -7.60      0.00
   11  -13    2      4.80      0.00
   12  -13    2      1.89      0.00
   13  -13    2     -1.21      0.00
   14  -13    2     -4.20      0.00
   15  -13    2      2.68      0.00
   16  -13    2      3.08      0.00
   17  -13    2      0.33      0.00
   18  -13    2      0.95      0.00
   19  -13    2      4.65      0.00
  -10  -12    2      2.13      0.00
   -9  -12    2      3.37      0.00
   -8  -12    2     -0.61      0.00
   -7  -12    2      2.19      0.00
   -6  -12    2     -0.79      0.00
   -5  -12    2      1.31      0.00
   -4  -12    2     -4.66      0.00
   -3  -12    2      2.84      0.00
   -2  -12    2      5.42      0.00
   -1  -12    2      1.64      0.00
    0  -12    2     -9.96      0.00
    1  -12    2      2.72      0.00
    2  -12    2      3.43      0.00
    3  -12    2      3.17      0.00
    4  -12    2     -6.71      0.00
    5  -12    2      0.55      0.00
    6  -12    2     -4.18      0.00
    7  -12    2      2.67      0.00
    8  -12    2     -1.36      0.00
    9  -12    2      7.31      0.00
   10  -12    2    -12.98      0.00
   11  -12    2      4.57      0.00
   12  -12    2     -1.35      0.00
   13  -12    2     -2.33      0.00
   14  -12    2      2.17      0.00
   15  -12    2      2.53      0.00
   16  -12    2     -1.19      0.00
   17  -12    2     -1.09      0.00
   18  -12    2      2.75      0.00
   19  -12    2     -1.26      0.00
  -11  -11    2      1.60      0.00
  -10  -11    2      3.50      0.00
   -9  -11    2     -0.04      0.00
   -8  -11    2     -8.28      0.00
   -7  -11    2     -6.41      0.00
   -6  -11    2     -3.65      0.00
   -5  -11    2      1.28      0.00
   -4  -11    2     -2.76      0.00
   -3  -11    2      3.26      0.00
   -2  -11    2     -4.80      0.00
   -1  -11    2      8.64      0.00
    0  -11    2    -13.80      0.00
    1  -11    2      5.01      0.00
    2  -11    2    -12.80      0.00
    3  -11    2     12.04      0.00
    4  -11    2     -7.74      0.00
    5  -11    2     14.25      0.00
    6  -11    2     -9.91      0.00
    7  -11    2      4.41      0.00
    8  -11    2     -9.11      0.00
    9  -11    2      6.96      0.00
   10  -11    2     -6.99      0.00
   11  -11    2      6.04      0.00
   12  -11    2     -4.69      0.00
   13  -11    2     -0.36      0.00
   14  -11    2      1.04      0.00
   15  -11    2      2.99      0.00
   16  -11    2     -0.38      0.00
   17  -11    2      2.50      0.00
   18  -11    2      2.56      0.00
   19  -11    2      1.17      0.00
  -12  -10    2      0.94      0.00
  -11  -10    2      2.88      0.00
  -10  -10    2     -2.24      0.00
   -9  -10    2      1.14      0.00
   -8  -10    2      1.02      0.00
   -7  -10    2     -3.08      0.00
   -6  -10    2     -1.81      0.00
   -5  -10    2      7.08      0.00
   -4  -10    2      5.32      0.00
   -3  -10    2      9.83      0.00
   -2  -10    2     -7.67      0.00
   -1  -10    2      4.18      0.00
    0  -10    2      2.93      0.00
    1  -10    2      4.59      0.00
    2  -10    2     -7.30      0.00
    3  -10    2      4.53      0.00
    4  -10    2    -13.47      0.00
    5  -10    2     -1.03      0.00
    6  -10    2     -0.58      0.00
    7  -10    2      5.70      0.00
    8  -10    2    -16.43      0.00
    9  -10    2      7.86      0.00
   10  -10    2     -7.61      0.00
   11  -10    2      1.81      0.00
   12  -10    2      0.49      0.00
   13  -10    2     -0.03      0.00
   14  -10    2     -4.26      0.00
   15  -10    2      2.10      0.00
   16  -10    2      1.18      0.00
   17  -10    2      0.77      0.00
   18  -10    2      1.98      0.00
   19  -10    2     -4.88      0.00
  -12   -9    2      4.30      0.00
  -11   -9    2     -0.39      0.00
  -10   -9    2     -3.64      0.00
   -9   -9    2     -6.28      0.00
   -8   -9    2     -6.57      0.00
   -7   -9    2      0.43      0.00
   -6   -9    2     -6.29      0.00
   -5   -9    2      5.32      0.00
   -4   -9    2     -6.32      0.00
   -3   -9    2      6.22      0.00
   -2   -9    2    -18.05      0.00
   -1   -9    2     16.76      0.00
    0   -9    2     -6.91      0.00
    1   -9    2      5.20      0.00
    2   -9    2     -5.33      0.00
    3   -9    2     28.55      0.00
    4   -9    2    -18.79      0.00
    5   -9    2     -1.99      0.00
    6   -9    2      1.63      0.00
    7   -9    2      9.74      0.00
    8   -9    2    -16.46      0.00
    9   -9    2     12.83      0.00
   10   -9    2     -6.08      0.00
   11   -9    2     -1.41      0.00
   12   -9    2     -1.80      0.00
   13   -9    2      3.28      0.00
   14   -9    2     -1.63      0.00
   15   -9    2      3.07      0.00
   16   -9    2      1.29      0.00
   17   -9    2     -1.23      0.00
   18   -9    2     -1.73      0.00
   19   -9    2     -0.10      0.00
  -13   -8    2      0.58      0.00
  -12   -8    2     -3.62      0.00
  -11   -8    2     -1.35      0.00
  -10   -8    2     -1.55      0.00
   -9   -8    2      1.63      0.00
   -8   -8    2     -1.99      0.00
   -7   -8    2      3.37      0.00
   -6   -8    2     17.62      0.00
   -5   -8    2     -5.60      0.00
   -4   -8    2     -2.25      0.00
   -3   -8    2      5.49      0.00
   -2   -8    2     -1.44      0.00
   -1   -8    2      7.13      0.00
    0   -8    2      9.46      0.00
    1   -8    2    -11.60      0.00
    2   -8    2    -15.86      0.00
    3   -8    2      4.50      0.00
    4   -8    2     -8.32      0.00
    5   -8    2     -8.07      0.00
    6   -8    2      1.22      0.00
    7   -8    2     -9.05      0.00
    8   -8    2     -9.18      0.00
    9   -8    2     11.27      0.00
   10   -8    2     -2.36      0.00
   11   -8    2     -5.03      0.00
   12   -8    2      5.41      0.00
   13   -8    2      4.85      0.00
   14   -8    2     -0.70      0.00
   15   -8    2     -2.11      0.00
   16   -8    2      1.28      0.00
   17   -8    2     -5.14      0.00
   18   -8    2      0.33      0.00
   19   -8    2     -0.27      0.00
  -14   -7    2     -4.11      0.00
  -13   -7    2      2.13      0.00
  -12   -7    2     -1.32      0.00
  -11   -7    2     -4.93      0.00
  -10   -7    2     -2.53      0.00
   -9   -7    2      0.85      0.00
   -8   -7    2     -5.15      0.00
   -7   -7    2     -7.71      0.00
   -6   -7    2     -6.85      0.00
   -5   -7    2      7.74      0.00
   -4   -7    2     -6.98      0.00
   -3   -7    2     13.30      0.00
   -2   -7    2     -9.27      0.00
   -1   -7    2     -8.73      0.00
    0   -7    2      2.36      0.00
    1   -7    2     28.43      0.00
    2   -7    2      4.63      0.00
    3   -7    2      0.74      0.00
    4   -7    2    -11.79      0.00
    5   -7    2     -6.35      0.00
    6   -7    2      3.34      0.00
    7   -7    2     -1.17      0.00
    8   -7    2     -8.55      0.00
    9   -7    2     13.47      0.00
   10   -7    2     -3.04      0.00
   11   -7    2     -9.36      0.00
   12   -7    2      1.29      0.00
   13   -7    2      1.65      0.00
   14   -7    2     -2.66      0.00
   15   -7    2     -0.71      0.00
   16   -7    2      2.85      0.00
   17   -7    2     -2.29      0.00
   18   -7    2      0.49      0.00
   19   -7    2     -1.15      0.00
  -15   -6    2      3.00      0.00
  -14   -6    2     -5.01      0.00
  -13   -6    2     -4.64      0.00
  -12   -6    2      4.18      0.00
  -11   -6    2      6.08      0.00
  -10   -6    2     -5.30      0.00
   -9   -6    2     -7.40      0.00
   -8   -6    2      3.35      0.00
   -7   -6    2      4.31      0.00
   -6   -6    2     20.78      0.00
   -5   -6    2     -8.73      0.00
   -4   -6    2     -6.27      0.00
   -3   -6    2      5.01      0.00
   -2   -6    2     12.28      0.00
   -1   -6    2      2.81      0.00
    0   -6    2     -5.19      0.00
    1   -6    2    -20.79      0.00
    2   -6    2     -3.04      0.00
    3   -6    2    -10.34      0.00
    4   -6    2      5.61      0.00
    5   -6    2    -25.08      0.00
    6   -6    2      7.55      0.00
    7   -6    2     -4.37      0.00
    8   -6    2      4.11      0.00
    9   -6    2     -8.08      0.00
   10   -6    2      6.91      0.00
   11   -6    2      1.51      0.00
   12   -6    2      9.56      0.00
   13   -6    2     -5.66      0.00
   14   -6    2     -3.02      0.00
   15   -6    2     -3.19      0.00
   16   -6    2      0.74      0.00
   17   -6    2     -4.68      0.00
   18   -6    2     -0.89      0.00
   19   -6    2      1.59      0.00
  -15   -5    2      3.65      0.00
  -14   -5    2     -2.89      0.00
  -13   -5    2     -3.44      0.00
  -12   -5    2     -2.81      0.00
  -11   -5    2      3.23      0.00
  -10   -5    2     -2.14      0.00
   -9   -5    2      1.23      0.00
   -8   -5    2     -4.82      0.00
   -7   -5    2    -14.78      0.00
   -6   -5    2     -6.45      0.00
   -5   -5    2      9.60      0.00
   -4   -5    2    -12.48      0.00
   -3   -5    2     17.40      0.00
   -2   -5    2     17.14      0.00
   -1   -5    2    -19.09      0.00
    0   -5    2     20.90      0.00
    1   -5    2     38.57      0.00
    2   -5    2    -28.84      0.00
    3   -5    2     -9.92      0.00
    4   -5    2     19.67      0.00
    5   -5    2    -21.77      0.00
    6   -5    2     -2.73      0.00
    7   -5    2      3.56      0.00
    8   -5    2     13.76      0.00
    9   -5    2     -3.87      0.00
   10   -5    2      8.03      0.00
   11   -5    2    -16.65      0.00
   12   -5    2     -0.19      0.00
   13   -5    2     -0.68      0.00
   14   -5    2     -2.24      0.00
   15   -5    2     -2.76      0.00
   16   -5    2     -0.30      0.00
   17   -5    2     -3.79      0.00
   18   -5    2      2.07      0.00
   19   -5    2      3.17      0.00
  -16   -4    2      0.84      0.00
  -15   -4    2     -5.37      0.00
  -14   -4    2     -3.82      0.00
  -13   -4    2      5.95      0.00
  -12   -4    2      4.44      0.00
  -11   -4    2     -7.01      0.00
  -10   -4    2      2.40      0.00
   -9   -4    2      4.93      0.00
   -8   -4    2      6.07      0.00
   -7   -4    2     -2.41      0.00
   -6   -4    2      3.48      0.00
   -5   -4    2     11.65      0.00
   -4   -4    2     -5.18      0.00
   -3   -4    2      7.19      0.00
   -2   -4    2     -6.42      0.00
   -1   -4    2    -10.38      0.00
    0   -4    2     -1.32      0.00
    1   -4    2    -18.36      0.00
    2   -4    2    -29.56      0.00
    3   -4    2    -36.13      0.00
    4   -4    2      6.85      0.00
    5   -4    2    -19.04      0.00
    6   -4    2     18.81      0.00
    7   -4    2      4.07      0.00
    8   -4    2     -2.54      0.00
    9   -4    2     -8.36      0.00
   10   -4    2     21.62      0.00
   11   -4    2     -7.20      0.00
   12   -4    2      0.06      0.00
   13   -4    2     -2.68      0.00
   14   -4    2      1.40      0.00
   15   -4    2     -4.35      0.00
   16   -4    2      2.86      0.00
   17   -4    2     -2.57      0.00
   18   -4    2     -0.60      0.00
  -16   -3    2     -2.72      0.00
  -15   -3    2      3.65      0.00
  -14   -3    2      1.42      0.00
  -13   -3    2      0.30      0.00
  -12   -3    2     -4.92      0.00
  -11   -3    2      2.46      0.00
  -10   -3    2    -12.79      0.00
   -9   -3    2      1.41      0.00
   -8   -3    2      1.48      0.00
   -7   -3    2      3.12      0.00
   -6   -3    2     -8.20      0.00
   -5   -3    2      5.61      0.00
   -4   -3    2    -13.34      0.00
   -3   -3    2     17.36      0.00
   -2   -3    2     20.86      0.00
   -1   -3    2     38.72      0.00
    0   -3    2     -3.09      0.00
    1   -3    2     31.84      0.00
    2   -3    2    -48.50      0.00
    3   -3    2    -10.83      0.00
    4   -3    2      3.87      0.00
    5   -3    2    -21.32      0.00
    6   -3    2     14.28      0.00
    7   -3    2     15.07      0.00
    8   -3    2      6.72      0.00
    9   -3    2    -16.76      0.00
   10   -3    2      7.79      0.00
   11   -3    2     -9.51      0.00
   12   -3    2     -1.73      0.00
   13   -3    2     -0.20      0.00
   14   -3    2      0.01      0.00
   15   -3    2     -1.87      0.00
   16   -3    2      1.00      0.00
   17   -3    2     -0.73      0.00
   18   -3    2      1.69      0.00
  -17   -2    2     -1.52      0.00
  -16   -2    2     -1.36      0.00
  -15   -2    2     -4.07      0.00
  -14   -2    2      1.44      0.00
  -13   -2    2     -1.65      0.00
  -12   -2    2      0.61      0.00
  -11   -2    2      9.45      0.00
  -10   -2    2     -1.78      0.00
   -9   -2    2     -3.08      0.00
   -8   -2    2     -2.91      0.00
   -7   -2    2     -0.49      0.00
   -6   -2    2    -16.09      0.00
   -5   -2    2     38.22      0.00
   -4   -2    2     -3.84      0.00
   -3   -2    2     -8.64      0.00
   -2   -2    2     -8.68      0.00
   -1   -2    2    -36.30      0.00
    0   -2    2    -92.89      0.00
    1   -2    2     -0.11      0.00
    2   -2    2    -43.12      0.00
    3   -2    2    -18.34      0.00
    4   -2    2      3.43      0.00
    5   -2    2      2.93      0.00
    6   -2    2     -3.67      0.00
    7   -2    2      3.23      0.00
    8   -2    2      3.65      0.00
    9   -2    2     -4.46      0.00
   10   -2    2     13.71      0.00
   11   -2    2     -6.85      0.00
   12   -2    2     -0.48      0.00
   13   -2    2      3.77      0.00
   14   -2    2      1.34      0.00
   15   -2    2     -1.04      0.00
   16   -2    2      5.76      0.00
   17   -2    2     -1.65      0.00
   18   -2    2     -0.72      0.00
  -18   -1    2      1.33      0.00
  -17   -1    2      3.52      0.00
  -16   -1    2     -3.41      0.00
  -15   -1    2      1.01      0.00
  -14   -1    2     -3.61      0.00
  -13   -1    2      3.32      0.00
  -12   -1    2     -2.27      0.00
  -11   -1    2      7.95      0.00
  -10   -1    2    -11.72      0.00
   -9   -1    2      2.05      0.00
   -8   -1    2     -0.97      0.00
   -7   -1    2     -3.99      0.00
   -6   -1    2     -7.26      0.00
   -5   -1    2     28.35      0.00
   -4   -1    2    -19.54      0.00
   -3   -1    2      9.31      0.00
   -2   -1    2     -4.76      0.00
   -1   -1    2    101.44      0.00
    0   -1    2    -63.49      0.00
    1   -1    2     -3.75      0.00
    2   -1    2    -22.36      0.00
    3   -1    2    -16.69      0.00
    4   -1    2     14.47      0.00
    5   -1    2     27.71      0.00
    6   -1    2     -5.00      0.00
    7   -1    2    -11.06      0.00
    8   -1    2      8.63      0.00
    9   -1    2    -11.93      0.00
   10   -1    2      5.22      0.00
   11   -1    2      3.47      0.00
   12   -1    2     -4.29      0.00
   13   -1    2     -1.92      0.00
   14   -1    2      1.45      0.00
   15   -1    2     -2.49      0.00
   16   -1    2     -0.19      0.00
   17   -1    2     -1.51      0.00
  -18    0    2      0.04      0.00
  -17    0    2     -0.36      0.00
  -16    0    2      1.02      0.00
  -15    0    2     -2.64      0.00
  -14    0    2     -0.04      0.00
  -13    0    2      2.41      0.00
  -12    0    2     -1.42      0.00
  -11    0    2     10.32      0.00
  -10    0    2     -7.90      0.00
   -9    0    2      3.91      0.00
   -8    0    2     11.07      0.00
   -7    0    2      5.39      0.00
   -6    0    2    -23.17      0.00
   -5    0    2     15.00      0.00
   -4    0    2    -16.57      0.00
   -3    0    2     14.63      0.00
   -2    0    2     23.37      0.00
    0    0    2   -226.82      0.00
    1    0    2     66.64      0.00
    2    0    2     12.19      0.00
    3    0    2     -5.31      0.00
    4    0    2     -3.59      0.00
    5    0    2      7.79      0.00
    6    0    2    -14.58      0.00
    7    0    2     10.21      0.00
    8    0    2     11.72      0.00
    9    0    2     -6.94      0.00
   10    0    2      9.25      0.00
   11    0    2      2.79      0.00
   12    0    2      7.06      0.00
   13    0    2      0.53      0.00
   14    0    2      2.95      0.00
   15    0    2      0.50      0.00
   16    0    2      0.35      0.00
   17    0    2      1.42      0.00
  -19    1    2      0.31      0.00
  -18    1    2     -2.13      0.00
  -17    1    2      0.61      0.00
  -16    1    2     -0.68      0.00
  -15    1    2      1.17      0.00
  -14    1    2     -3.07      0.00
  -13    1    2      9.61      0.00
  -12    1    2     -7.51      0.00
  -11    1    2     -3.98      0.00
  -10    1    2     -1.33      0.00
   -9    1    2     -3.73      0.00
   -8    1    2     -6.18      0.00
   -7    1    2     14.25      0.00
   -6    1    2      2.39      0.00
   -5    1    2     19.32      0.00
   -4    1    2    -27.47      0.00
   -3    1    2    -21.60      0.00
   -2    1    2     10.30      0.00
   -1    1    2     83.63      0.00
    0    1    2     -6.65      0.00
    1    1    2    -28.78      0.00
    2    1    2      3.92      0.00
    3    1    2    -12.32      0.00
    4    1    2      8.61      0.00
    5    1    2     11.66      0.00
    6    1    2    -11.11      0.00
    7    1    2     -7.11      0.00
    8    1    2      7.73      0.00
    9    1    2     -2.68      0.00
   10    1    2     -2.13      0.00
   11    1    2      1.38      0.00
   12    1    2     -3.47      0.00
   13    1    2     -0.54      0.00
   14    1    2     -0.72      0.00
   15    1    2     -3.80      0.00
   16    1    2     -1.43      0.00
  -19    2    2     -0.63      0.00
  -18    2    2     -1.66      0.00
  -17    2    2      3.38      0.00
  -16    2    2     -5.03      0.00
  -15    2    2     -0.74      0.00
  -14    2    2      9.20      0.00
  -13    2    2      1.93      0.00
  -12    2    2     -5.71      0.00
  -11    2    2      7.33      0.00
  -10    2    2      0.50      0.00
   -9    2    2     -1.25      0.00
   -8    2    2      9.09      0.00
   -7    2    2      0.42      0.00
   -6    2    2    -13.80      0.00
   -5    2    2     -2.54      0.00
   -4    2    2     26.96      0.00
   -3    2    2    -35.21      0.00
   -2    2    2   -111.13      0.00
   -1    2    2    -31.36      0.00
    0    2    2     15.37      0.00
    1    2    2     20.09      0.00
    2    2    2     -3.47      0.00
    3    2    2     -1.32      0.00
    4    2    2      0.67      0.00
    5    2    2     13.39      0.00
    6    2    2      5.02      0.00
    7    2    2     -7.53      0.00
    8    2    2      9.87      0.00
    9    2    2      0.07      0.00
   10    2    2     10.04      0.00
   11    2    2      2.76      0.00
   12    2    2      0.66      0.00
   13    2    2      0.54      0.00
   14    2    2      0.73      0.00
   15    2    2      2.18      0.00
   16    2    2     -2.22      0.00
  -19    3    2     -1.94      0.00
  -18    3    2     -1.56      0.00
  -17    3    2      1.35      0.00
  -16    3    2     -2.22      0.00
  -15    3    2      1.59      0.00
  -14    3    2     -3.26      0.00
  -13    3    2      3.46      0.00
  -12    3    2     -6.03      0.00
  -11    3    2      1.91      0.00
  -10    3    2      5.90      0.00
   -9    3    2    -11.10      0.00
   -8    3    2      7.78      0.00
   -7    3    2     23.66      0.00
   -6    3    2    -17.06      0.00
   -5    3    2    -17.59      0.00
   -4    3    2     33.87      0.00
   -3    3    2    -22.26      0.00
   -2    3    2     54.65      0.00
   -1    3    2     -9.56      0.00
    0    3    2    -16.20      0.00
    1    3    2    -20.48      0.00
    2    3    2     55.76      0.00
    3    3    2    -18.95      0.00
    4    3    2     -5.98      0.00
    5    3    2    -10.87      0.00
    6    3    2      0.76      0.00
    7    3    2      5.93      0.00
    8    3    2      2.69      0.00
    9    3    2     -3.77      0.00
   10    3    2     -2.72      0.00
   11    3    2     -1.63      0.00
   12    3    2     -3.16      0.00
   13    3    2      0.30      0.00
   14    3    2     -1.81      0.00
   15    3    2      0.53      0.00
  -20    4    2     -2.86      0.00
  -19    4    2      0.40      0.00
  -18    4    2     -2.51      0.00
  -17    4    2      0.96      0.00
  -16    4    2     -0.26      0.00
  -15    4    2      0.67      0.00
  -14    4    2     -0.75      0.00
  -13    4    2      2.11      0.00
  -12    4    2     -2.55      0.00
  -11    4    2      3.63      0.00
  -10    4    2      3.26      0.00
   -9    4    2    -10.10      0.00
   -8    4    2      9.76      0.00
   -7    4    2    -13.01      0.00
   -6    4    2      5.68      0.00
   -5    4    2    -17.47      0.00
   -4    4    2     25.44      0.00
   -3    4    2    -59.90      0.00
   -2    4    2      6.84      0.00
   -1    4    2     22.79      0.00
    0    4    2     24.56      0.00
    1    4    2    -51.77      0.00
    2    4    2     10.83      0.00
    3    4    2     -0.87      0.00
    4    4    2     12.18      0.00
    5    4    2      7.97      0.00
    6    4    2      4.00      0.00
    7    4    2     -9.82      0.00
    8    4    2     10.18      0.00
    9    4    2      2.90      0.00
   10    4    2      1.23      0.00
   11    4    2      3.16      0.00
   12    4    2     -0.58      0.00
   13    4    2      0.17      0.00
   14    4    2      0.64      0.00
   15    4    2      5.65      0.00
  -20    5    2     -0.53      0.00
  -19    5    2      1.71      0.00
  -18    5    2     -1.13      0.00
  -17    5    2      0.09      0.00
  -16    5    2     -1.25      0.00
  -15    5    2      1.55      0.00
  -14    5    2     -2.86      0.00
  -13    5    2     -0.39      0.00
  -12    5    2     -4.86      0.00
  -11    5    2      2.23      0.00
  -10    5    2     10.21      0.00
   -9    5    2      0.24      0.00
   -8    5    2     -3.51      0.00
   -7    5    2     -4.05      0.00
   -6    5    2     -4.67      0.00
   -5    5    2    -18.06      0.00
   -4    5    2     52.23      0.00
   -3    5    2    -25.50      0.00
   -2    5    2     40.91      0.00
   -1    5    2    -26.69      0.00
    0    5    2     19.51      0.00
    1    5    2    -25.34      0.00
    2    5    2     37.70      0.00
    3    5    2    -28.01      0.00
    4    5    2     -5.06      0.00
    5    5    2     -0.13      0.00
    6    5    2      2.12      0.00
    7    5    2     -9.63      0.00
    8    5    2     -4.31      0.00
    9    5    2     -1.03      0.00
   10    5    2     -1.55      0.00
   11    5    2      1.45      0.00
   12    5    2     -2.35      0.00
   13    5    2      0.88      0.00
   14    5    2     -1.77      0.00
  -20    6    2     -1.37      0.00
  -19    6    2      0.38      0.00
  -18    6    2     -1.22      0.00
  -17    6    2      1.06      0.00
  -16    6    2      1.60      0.00
  -15    6    2      0.52      0.00
  -14    6    2     -3.41      0.00
  -13    6    2      9.75      0.00
  -12    6    2      2.55      0.00
  -11    6    2    -11.14      0.00
  -10    6    2      2.03      0.00
   -9    6    2    -10.35      0.00
   -8    6    2      3.81      0.00
   -7    6    2     -0.63      0.00
   -6    6    2     16.99      0.00
   -5    6    2    -35.83      0.00
   -4    6    2     22.51      0.00
   -3    6    2    -29.13      0.00
   -2    6    2      5.42      0.00
   -1    6    2     -6.25      0.00
    0    6    2     20.13      0.00
    1    6    2    -33.94      0.00
    2    6    2     23.91      0.00
    3    6    2    -10.09      0.00
    4    6    2     -5.42      0.00
    5    6    2      6.57      0.00
    6    6    2     12.69      0.00
    7    6    2     -6.75      0.00
    8    6    2      3.21      0.00
    9    6    2     -1.77      0.00
   10    6    2     -3.45      0.00
   11    6    2      5.57      0.00
   12    6    2     -0.25      0.00
   13    6    2      5.00      0.00
  -20    7    2      1.77      0.00
  -19    7    2      1.38      0.00
  -18    7    2     -2.20      0.00
  -17    7    2      0.89      0.00
  -16    7    2     -1.13      0.00
  -15    7    2      0.55      0.00
  -14    7    2     -1.73      0.00
  -13    7    2      3.38      0.00
  -12    7    2      3.13      0.00
  -11    7    2     -3.76      0.00
  -10    7    2      5.36      0.00
   -9    7    2     -1.61      0.00
   -8    7    2    -11.65      0.00
   -7    7    2     -0.37      0.00
   -6    7    2     22.38      0.00
   -5    7    2    -25.97      0.00
   -4    7    2     28.00      0.00
   -3    7    2      2.45      0.00
   -2    7    2     13.70      0.00
   -1    7    2    -30.43      0.00
    0    7    2     22.86      0.00
    1    7    2    -27.91      0.00
    2    7    2      2.51      0.00
    3    7    2      8.08      0.00
    4    7    2      2.58      0.00
    5    7    2    -14.37      0.00
    6    7    2     -6.65      0.00
    7    7    2     -8.47      0.00
    8    7    2      9.61      0.00
    9    7    2      4.45      0.00
   10    7    2     -2.84      0.00
   11    7    2      1.65      0.00
   12    7    2      0.01      0.00
   13    7    2      0.02      0.00
  -20    8    2     -3.43      0.00
  -19    8    2     -0.39      0.00
  -18    8    2      1.24      0.00
  -17    8    2      1.80      0.00
  -16    8    2     -0.40      0.00
  -15    8    2      2.60      0.00
  -14    8    2     -0.48      0.00
  -13    8    2      2.77      0.00
  -12    8    2     -1.79      0.00
  -11    8    2    -11.93      0.00
  -10    8    2     10.20      0.00
   -9    8    2     -2.14      0.00
   -8    8    2    -12.51      0.00
   -7    8    2      1.86      0.00
   -6    8    2      7.78      0.00
   -5    8    2    -17.16      0.00
   -4    8    2     11.51      0.00
   -3    8    2    -12.84      0.00
   -2    8    2     -5.25      0.00
   -1    8    2    -10.18      0.00
    0    8    2     23.07      0.00
    1    8    2    -10.47      0.00
    2    8    2      6.05      0.00
    3    8    2     -6.30      0.00
    4    8    2      0.94      0.00
    5    8    2      0.81      0.00
    6    8    2      0.70      0.00
    7    8    2      0.97      0.00
    8    8    2     -1.91      0.00
    9    8    2     -0.38      0.00
   10    8    2     -1.74      0.00
   11    8    2      1.61      0.00
   12    8    2     -4.28      0.00
  -21    9    2     -1.77      0.00
  -20    9    2     -0.74      0.00
  -19    9    2      1.43      0.00
  -18    9    2     -2.04      0.00
  -17    9    2     -0.91      0.00
  -16    9    2      0.03      0.00
  -15    9    2      1.68      0.00
  -14    9    2     -4.60      0.00
  -13    9    2      0.59      0.00
  -12    9    2      5.12      0.00
  -11    9    2      0.12      0.00
  -10    9    2      0.20      0.00
   -9    9    2     -2.93      0.00
   -8    9    2      0.94      0.00
   -7    9    2     -0.96      0.00
   -6    9    2      3.24      0.00
   -5    9    2    -16.28      0.00
   -4    9    2     19.73      0.00
   -3    9    2      6.04      0.00
   -2    9    2     -6.40      0.00
   -1    9    2    -10.32      0.00
    0    9    2      7.84      0.00
    1    9    2     -9.31      0.00
    2    9    2     -2.98      0.00
    3    9    2      6.47      0.00
    4    9    2     -2.97      0.00
    5    9    2     -5.12      0.00
    6    9    2      6.53      0.00
    7    9    2     -4.22      0.00
    8    9    2      4.27      0.00
    9    9    2      3.41      0.00
   10    9    2     -1.99      0.00
   11    9    2      2.79      0.00
  -21   10    2     -1.58      0.00
  -20   10    2     -0.88      0.00
  -19   10    2      3.72      0.00
  -18   10    2      1.62      0.00
  -17   10    2     -1.38      0.00
  -16   10    2      2.29      0.00
  -15   10    2      1.42      0.00
  -14   10    2     -0.27      0.00
  -13   10    2     -5.47      0.00
  -12   10    2      2.39      0.00
  -11   10    2     -3.33      0.00
  -10   10    2     -1.12      0.00
   -9   10    2     -0.44      0.00
   -8   10    2     -3.67      0.00
   -7   10    2     -0.11      0.00
   -6   10    2      4.99      0.00
   -5   10    2     -5.17      0.00
   -4   10    2     -7.20      0.00
   -3   10    2     -0.79      0.00
   -2   10    2      3.77      0.00
   -1   10    2    -10.92      0.00
    0   10    2     11.07      0.00
    1   10    2     -1.99      0.00
    2   10    2      1.38      0.00
    3   10    2      0.18      0.00
    4   10    2      1.43      0.00
    5   10    2     -1.07      0.00
    6   10    2     -5.13      0.00
    7   10    2     -0.16      0.00
    8   10    2      1.75      0.00
    9   10    2      3.98      0.00
   10   10    2     -4.44      0.00
   11   10    2      3.96      0.00
  -20   11    2     -4.08      0.00
  -19   11    2      1.89      0.00
  -18   11    2     -3.53      0.00
  -17   11    2      1.96      0.00
  -16   11    2     -0.33      0.00
  -15   11    2     -0.42      0.00
  -14   11    2      0.51      0.00
  -13   11    2     -0.14      0.00
  -12   11    2      5.90      0.00
  -11   11    2     -3.05      0.00
  -10   11    2     -0.97      0.00
   -9   11    2      0.37      0.00
   -8   11    2     -0.64      0.00
   -7   11    2     -9.28      0.00
   -6   11    2      9.51      0.00
   -5   11    2      2.29      0.00
   -4   11    2     -6.28      0.00
   -3   11    2     -2.46      0.00
   -2   11    2     -2.16      0.00
   -1   11    2     -2.69      0.00
    0   11    2      1.51      0.00
    1   11    2     -0.24      0.00
    2   11    2      2.97      0.00
    3   11    2     -8.66      0.00
    4   11    2      2.92      0.00
    5   11    2      2.15      0.00
    6   11    2      3.80      0.00
    7   11    2     -2.52      0.00
    8   11    2     -2.20      0.00
    9   11    2      2.33      0.00
   10   11    2      0.10      0.00
  -20   12    2      1.99      0.00
  -19   12    2      0.89      0.00
  -18   12    2     -1.95      0.00
  -17   12    2     -2.71      0.00
  -16   12    2      5.74      0.00
  -15   12    2      2.43      0.00
  -14   12    2      1.20      0.00
  -13   12    2     -2.54      0.00
  -12   12    2      5.39      0.00
  -11   12    2     -8.42      0.00
  -10   12    2     -1.58      0.00
   -9   12    2     -0.62      0.00
   -8   12    2      6.41      0.00
   -7   12    2     -4.21      0.00
   -6   12    2     -0.80      0.00
   -5   12    2     -5.61      0.00
   -4   12    2     -0.78      0.00
   -3   12    2     -0.62      0.00
   -2   12    2      5.74      0.00
   -1   12    2    -10.37      0.00
    0   12    2      2.80      0.00
    1   12    2      1.00      0.00
    2   12    2      1.12      0.00
    3   12    2      2.90      0.00
    4   12    2     -0.42      0.00
    5   12    2     -4.97      0.00
    6   12    2     -1.02      0.00
    7   12    2      2.81      0.00
    8   12    2      0.44      0.00
    9   12    2      2.08      0.00
  -20   13    2     -4.92      0.00
  -19   13    2      1.87      0.00
  -18   13    2      0.68      0.00
  -17   13    2      0.66      0.00
  -16   13    2     -0.96      0.00
  -15   13    2     -2.04      0.00
  -14   13    2      3.91      0.00
  -13   13    2      0.67      0.00
  -12   13    2      6.56      0.00
  -11   13    2     -7.34      0.00
  -10   13    2      4.50      0.00
   -9   13    2     -6.39      0.00
   -8   13    2      2.60      0.00
   -7   13    2     -6.96      0.00
   -6   13    2      3.64      0.00
   -5   13    2     -4.14      0.00
   -4   13    2     -6.94      0.00
   -3   13    2     -2.30      0.00
   -2   13    2      5.82      0.00
   -1   13    2     -0.67      0.00
    0   13    2     14.36      0.00
    1   13    2     -8.09      0.00
    2   13    2      3.84      0.00
    3   13    2     -5.70      0.00
    4   13    2      2.23      0.00
    5   13    2     -1.43      0.00
    6   13    2      0.18      0.00
    7   13    2      1.29      0.00
    8   13    2     -2.94      0.00
  -20   14    2      0.21      0.00
  -19   14    2     -1.68      0.00
  -18   14    2      2.27      0.00
  -17   14    2     -0.46      0.00
  -16   14    2      3.46      0.00
  -15   14    2      2.30      0.00
  -14   14    2      0.31      0.00
  -13   14    2    -12.36      0.00
  -12   14    2      3.69      0.00
  -11   14    2     -4.97      0.00
  -10   14    2      6.77      0.00
   -9   14    2     -0.92      0.00
   -8   14    2      8.06      0.00
   -7   14    2     -8.96      0.00
   -6   14    2      0.91      0.00
   -5   14    2      3.43      0.00
   -4   14    2      1.89      0.00
   -3   14    2     -5.67      0.00
   -2   14    2      4.94      0.00
   -1   14    2     -6.65      0.00
    0   14    2      4.25      0.00
    1   14    2      7.76      0.00
    2   14    2      1.13      0.00
    3   14    2     -0.56      0.00
    4   14    2      1.12      0.00
    5   14    2     -2.24      0.00
    6   14    2      3.62      0.00
    7   14    2     -2.06      0.00
  -20   15    2     -0.33      0.00
  -19   15    2      1.20      0.00
  -18   15    2      5.85      0.00
  -17   15    2     -2.75      0.00
  -16   15    2     -1.25      0.00
  -15   15    2     -2.35      0.00
  -14   15    2      6.75      0.00
  -13   15    2     -8.99      0.00
  -12   15    2      4.69      0.00
  -11   15    2     -5.32      0.00
  -10   15    2      4.65      0.00
   -9   15    2     -5.83      0.00
   -8   15    2      2.37      0.00
   -7   15    2     -9.74      0.00
   -6   15    2     -0.61      0.00
   -5   15    2      2.39      0.00
   -4   15    2      0.33      0.00
   -3   15    2     -0.63      0.00
   -2   15    2     10.67      0.00
   -1   15    2     -5.81      0.00
    0   15    2      2.84      0.00
    1   15    2     -1.69      0.00
    2   15    2      2.59      0.00
    3   15    2     -2.33      0.00
    4   15    2      2.42      0.00
    5   15    2     -1.73      0.00
    6   15    2     -1.39      0.00
  -20   16    2      0.62      0.00
  -19   16    2     -4.87      0.00
  -18   16    2     -0.08      0.00
  -17   16    2      1.05      0.00
  -16   16    2      1.48      0.00
  -15   16    2     -2.49      0.00
  -14   16    2      0.95      0.00
  -13   16    2     -7.89      0.00
  -12   16    2      1.29      0.00
  -11   16    2     -6.45      0.00
  -10   16    2      5.74      0.00
   -9   16    2      1.11      0.00
   -8   16    2      5.47      0.00
   -7   16    2      0.25      0.00
   -6   16    2     -0.62      0.00
   -5   16    2      2.08      0.00
   -4   16    2      0.78      0.00
   -3   16    2      4.86      0.00
   -2   16    2      7.90      0.00
   -1   16    2      3.02      0.00
    0   16    2      1.94      0.00
    1   16    2      1.05      0.00
    2   16    2      4.15      0.00
    3   16    2     -0.91      0.00
    4   16    2     -0.05      0.00
    5   16    2     -3.16      0.00
  -19   17    2     -1.47      0.00
  -18   17    2      2.96      0.00
  -17   17    2     -4.10      0.00
  -16   17    2     -0.16      0.00
  -15   17    2     -0.50      0.00
  -14   17    2      3.75      0.00
  -13   17    2     -4.88      0.00
  -12   17    2      6.68      0.00
  -11   17    2      1.13      0.00
  -10   17    2      0.51      0.00
   -9   17    2     -5.04      0.00
   -8   17    2      0.64      0.00
   -7   17    2     -5.82      0.00
   -6   17    2     -2.72      0.00
   -5   17    2     -3.17      0.00
   -4   17    2      2.01      0.00
   -3   17    2      0.00      0.00
   -2   17    2      3.03      0.00
   -1   17    2     -2.22      0.00
    0   17    2      0.22      0.00
    1   17    2      0.60      0.00
    2   17    2     -1.88      0.00
    3   17    2     -1.40      0.00
  -19   18    2      0.76      0.00
  -18   18    2      2.41      0.00
  -17   18    2     -2.75      0.00
  -16   18    2     -2.72      0.00
  -15   18    2     -2.96      0.00
  -14   18    2     -1.04      0.00
  -13   18    2     -5.93      0.00
  -12   18    2      0.87      0.00
  -11   18    2      1.62      0.00
  -10   18    2      0.67      0.00
   -9   18    2     -1.47      0.00
   -8   18    2      0.31      0.00
   -7   18    2      4.77      0.00
   -6   18    2      0.89      0.00
   -5   18    2      8.37      0.00
   -4   18    2      3.15      0.00
   -3   18    2      0.55      0.00
   -2   18    2      2.47      0.00
   -1   18    2      1.51      0.00
    0   18    2      0.26      0.00
    1   18    2     -0.67      0.00
    2   18    2      2.19      0.00
  -18   19    2      0.12      0.00
  -17   19    2      1.36      0.00
  -16   19    2      0.86      0.00
  -15   19    2      1.49      0.00
  -14   19    2      0.26      0.00
  -13   19    2      1.06      0.00
  -12   19    2      2.16      0.00
  -11   19    2     -2.72      0.00
  -10   19    2      5.47      0.00
   -9   19    2     -0.81      0.00
   -8   19    2      0.82      0.00
   -7   19    2     -5.59      0.00
   -6   19    2     -2.72      0.00
   -5   19    2     -2.10      0.00
   -4   19    2      2.04      0.00
   -3   19    2      3.84      0.00
   -2   19    2     -3.01      0.00
   -1   19    2     -1.44      0.00
    0   19    2     -1.19      0.00
  -17   20    2      0.09      0.00
  -16   20    2     -0.49      0.00
  -15   20    2     -2.61      0.00
  -14   20    2     -1.58      0.00
  -13   20    2     -0.42      0.00
  -12   20    2      0.27      0.00
  -11   20    2     -2.14      0.00
  -10   20    2     -0.78      0.00
   -9   20    2      0.20      0.00
   -8   20    2     -1.23      0.00
   -7   20    2      0.89      0.00
   -6   20    2      4.08      0.00
   -5   20    2      1.92      0.00
   -4   20    2      2.04      0.00
   -3   20    2     -0.38      0.00
   -2   20    2     -0.98      0.00
  -16   21    2     -2.95      0.00
  -15   21    2     -0.25      0.00
  -14   21    2      3.13      0.00
  -13   21    2      2.05      0.00
  -12   21    2      1.25      0.00
  -11   21    2      0.85      0.00
  -10   21    2      3.20      0.00
   -9   21    2     -1.84      0.00
   -8   21    2      0.38      0.00
   -7   21    2     -0.63      0.00
   -6   21    2     -0.24      0.00
   -5   21    2      0.07      0.00
   -4   21    2     -1.60      0.00
  -14   22    2      0.34      0.00
  -13   22    2     -0.44      0.00
  -12   22    2     -2.04      0.00
  -11   22    2     -1.35      0.00
  -10   22    2      1.26      0.00
   -9   22    2      0.29      0.00
   -8   22    2     -0.14      0.00
   -7   22    2     -1.26      0.00
    6  -22    3      2.55      0.00
    7  -22    3      5.17      0.00
    8  -22    3      0.19      0.00
    9  -22    3      0.15      0.00
   10  -22    3      6.06      0.00
   11  -22    3     -1.03      0.00
   12  -22    3     -2.54      0.00
    2  -21    3     -0.80      0.00
    3  -21    3      0.30      0.00
    4  -21    3      2.52      0.00
    5  -21    3     -4.73      0.00
    6  -21    3     -4.41      0.00
    7  -21    3      0.39      0.00
    8  -21    3     -0.93      0.00
    9  -21    3     -1.17      0.00
   10  -21    3     -3.27      0.00
   11  -21    3     -3.14      0.00
   12  -21    3     -0.70      0.00
   13  -21    3     -1.21      0.00
   14  -21    3      0.55      0.00
    0  -20    3      0.03      0.00
    1  -20    3     -0.86      0.00
    2  -20    3     -3.87      0.00
    3  -20    3     -3.76      0.00
    4  -20    3     -1.93      0.00
    5  -20    3      5.74      0.00
    6  -20    3      2.90      0.00
    7  -20    3     -2.69      0.00
    8  -20    3      4.44      0.00
    9  -20    3     -0.82      0.00
   10  -20    3      1.86      0.00
   11  -20    3     -0.36      0.00
   12  -20    3     -0.71      0.00
   13  -20    3     -1.14      0.00
   14  -20    3     -4.23      0.00
   15  -20    3      0.19      0.00
   -2  -19    3     -2.70      0.00
   -1  -19    3     -1.98      0.00
    0  -19    3     -0.68      0.00
    1  -19    3     -2.45      0.00
    2  -19    3     -3.52      0.00
    3  -19    3     -3.14      0.00
    4  -19    3     -0.48      0.00
    5  -19    3      1.63      0.00
    6  -19    3     -0.70      0.00
    7  -19    3      3.00      0.00
    8  -19    3     -1.32      0.00
    9  -19    3     -5.23      0.00
   10  -19    3      0.98      0.00
   11  -19    3      0.44      0.00
   12  -19    3      2.26      0.00
   13  -19    3      3.83      0.00
   14  -19    3      0.01      0.00
   15  -19    3     -4.89      0.00
   16  -19    3     -4.84      0.00
   -3  -18    3     -2.43      0.00
   -2  -18    3      1.28      0.00
   -1  -18    3      3.34      0.00
    0  -18    3     -6.01      0.00
    1  -18    3     -2.23      0.00
    2  -18    3     -0.67      0.00
    3  -18    3      0.73      0.00
    4  -18    3      1.81      0.00
    5  -18    3     -4.65      0.00
    6  -18    3     -4.01      0.00
    7  -18    3      3.70      0.00
    8  -18    3      5.25      0.00
    9  -18    3      2.84      0.00
   10  -18    3      1.12      0.00
   11  -18    3     -1.39      0.00
   12  -18    3     -3.25      0.00
   13  -18    3     -2.06      0.00
   14  -18    3      1.06      0.00
   15  -18    3      2.09      0.00
   16  -18    3     -1.66      0.00
   17  -18    3      0.31      0.00
   -5  -17    3      1.72      0.00
   -4  -17    3     -1.75      0.00
   -3  -17    3     -1.46      0.00
   -2  -17    3     -3.23      0.00
   -1  -17    3     -1.64      0.00
    0  -17    3     -2.22      0.00
    1  -17    3     -0.17      0.00
    2  -17    3     -0.59      0.00
    3  -17    3     -0.83      0.00
    4  -17    3      3.54      0.00
    5  -17    3      5.46      0.00
    6  -17    3      3.12      0.00
    7  -17    3      2.90      0.00
    8  -17    3     -0.29      0.00
    9  -17    3     -5.39      0.00
   10  -17    3      0.07      0.00
   11  -17    3      3.90      0.00
   12  -17    3      0.99      0.00
   13  -17    3     -1.55      0.00
   14  -17    3     -2.46      0.00
   15  -17    3      0.86      0.00
   16  -17    3     -2.02      0.00
   17  -17    3     -1.23      0.00
   18  -17    3     -0.33      0.00
   -6  -16    3     -0.14      0.00
   -5  -16    3      1.05      0.00
   -4  -16    3     -6.70      0.00
   -3  -16    3      4.68      0.00
   -2  -16    3     -1.45      0.00
   -1  -16    3     -5.56      0.00
    0  -16    3     -0.51      0.00
    1  -16    3     -0.77      0.00
    2  -16    3      4.38      0.00
    3  -16    3     -1.12      0.00
    4  -16    3     -4.84      0.00
    5  -16    3      0.10      0.00
    6  -16    3     -2.76      0.00
    7  -16    3      8.08      0.00
    8  -16    3      1.79      0.00
    9  -16    3      4.19      0.00
   10  -16    3     -3.69      0.00
   11  -16    3     -1.39      0.00
   12  -16    3     -0.66      0.00
   13  -16    3     -1.35      0.00
   14  -16    3     -2.83      0.00
   15  -16    3      1.29      0.00
   16  -16    3     -1.08      0.00
   17  -16    3      1.19      0.00
   18  -16    3     -0.27      0.00
   -7  -15    3      3.22      0.00
   -6  -15    3     -3.49      0.00
   -5  -15    3     -4.53      0.00
   -4  -15    3      0.99      0.00
   -3  -15    3     -1.45      0.00
   -2  -15    3     -5.10      0.00
   -1  -15    3      2.58      0.00
    0  -15    3      1.31      0.00
    1  -15    3     -7.17      0.00
    2  -15    3      6.50      0.00
    3  -15    3     -0.96      0.00
    4  -15    3      7.94      0.00
    5  -15    3      7.59      0.00
    6  -15    3     -1.17      0.00
    7  -15    3    -12.08      0.00
    8  -15    3     -4.62      0.00
    9  -15    3      3.49      0.00
   10  -15    3     -1.00      0.00
   11  -15    3      1.16      0.00
   12  -15    3     -2.55      0.00
   13  -15    3     -0.56      0.00
   14  -15    3     -1.42      0.00
   15  -15    3      2.13      0.00
   16  -15    3      1.67      0.00
   17  -15    3     -3.15      0.00
   18  -15    3      0.61      0.00
   -8  -14    3      3.18      0.00
   -7  -14    3     -0.92      0.00
   -6  -14    3     -4.68      0.00
   -5  -14    3      0.31      0.00
   -4  -14    3     -4.95      0.00
   -3  -14    3     -3.93      0.00
   -2  -14    3      1.88      0.00
   -1  -14    3      6.26      0.00
    0  -14    3      1.91      0.00
    1  -14    3     -3.55      0.00
    2  -14    3     -2.33      0.00
    3  -14    3     -1.91      0.00
    4  -14    3     -6.26      0.00
    5  -14    3      8.64      0.00
    6  -14    3     -5.48      0.00
    7  -14    3      2.54      0.00
    8  -14    3     -0.70      0.00
    9  -14    3      5.47      0.00
   10  -14    3     -6.08      0.00
   11  -14    3     -0.13      0.00
   12  -14    3     -0.22      0.00
   13  -14    3      0.59      0.00
   14  -14    3     -2.79      0.00
   15  -14    3      4.32      0.00
   16  -14    3     -0.64      0.00
   17  -14    3      1.02      0.00
   18  -14    3     -0.94      0.00
   19  -14    3      2.65      0.00
   -9  -13    3     -0.21      0.00
   -8  -13    3     -2.14      0.00
   -7  -13    3     -2.64      0.00
   -6  -13    3     -4.50      0.00
   -5  -13    3      0.26      0.00
   -4  -13    3      0.95      0.00
   -3  -13    3      2.60      0.00
   -2  -13    3      5.14      0.00
   -1  -13    3     -0.44      0.00
    0  -13    3      2.13      0.00
    1  -13    3     -9.00      0.00
    2  -13    3      4.30      0.00
    3  -13    3      7.69      0.00
    4  -13    3      5.29      0.00
    5  -13    3     -8.13      0.00
    6  -13    3     -2.37      0.00
    7  -13    3      2.33      0.00
    8  -13    3     -6.96      0.00
    9  -13    3      3.13      0.00
   10  -13    3     -3.76      0.00
   11  -13    3      2.05      0.00
   12  -13    3     -3.43      0.00
   13  -13    3     -0.53      0.00
   14  -13    3      0.32      0.00
   15  -13    3      2.94      0.00
   16  -13    3     -0.28      0.00
   17  -13    3     -0.68      0.00
   18  -13    3      0.22      0.00
   19  -13    3     -0.97      0.00
  -10  -12    3      0.38      0.00
   -9  -12    3     -0.45      0.00
   -8  -12    3     -2.10      0.00
   -7  -12    3     -1.80      0.00
   -6  -12    3     -1.96      0.00
   -5  -12    3     -4.18      0.00
   -4  -12    3     -0.04      0.00
   -3  -12    3      7.38      0.00
   -2  -12    3     -8.15      0.00
   -1  -12    3     -3.03      0.00
    0  -12    3      6.54      0.00
    1  -12    3      6.56      0.00
    2  -12    3     -4.84      0.00
    3  -12    3      4.32      0.00
    4  -12    3    -12.74      0.00
    5  -12    3      6.17      0.00
    6  -12    3     -1.78      0.00
    7  -12    3     10.07      0.00
    8  -12    3     -9.84      0.00
    9  -12    3      2.81      0.00
   10  -12    3     -1.85      0.00
   11  -12    3      2.35      0.00
   12  -12    3     -3.53      0.00
   13  -12    3      6.50      0.00
   14  -12    3     -1.10      0.00
   15  -12    3      0.00      0.00
   16  -12    3      0.61      0.00
   17  -12    3      3.19      0.00
   18  -12    3     -3.01      0.00
   19  -12    3      1.31      0.00
  -11  -11    3     -0.71      0.00
  -10  -11    3     -2.95      0.00
   -9  -11    3     -7.27      0.00
   -8  -11    3     -0.42      0.00
   -7  -11    3      2.33      0.00
   -6  -11    3      2.43      0.00
   -5  -11    3      6.88      0.00
   -4  -11    3     -0.98      0.00
   -3  -11    3      6.66      0.00
   -2  -11    3     -0.55      0.00
   -1  -11    3     -1.73      0.00
    0  -11    3      3.48      0.00
    1  -11    3      2.53      0.00
    2  -11    3      4.04      0.00
    3  -11    3     10.00      0.00
    4  -11    3     -3.45      0.00
    5  -11    3     -1.64      0.00
    6  -11    3     -2.45      0.00
    7  -11    3      9.15      0.00
    8  -11    3    -12.77      0.00
    9  -11    3     11.10      0.00
   10  -11    3     -3.89      0.00
   11  -11    3     -3.89      0.00
   12  -11    3     -0.81      0.00
   13  -11    3      7.80      0.00
   14  -11    3     -3.35      0.00
   15  -11    3     -1.25      0.00
   16  -11    3     -0.74      0.00
   17  -11    3      1.23      0.00
   18  -11    3     -1.32      0.00
   19  -11    3     -2.23      0.00
  -12  -10    3      3.02      0.00
  -11  -10    3     -3.23      0.00
  -10  -10    3     -2.37      0.00
   -9  -10    3      3.54      0.00
   -8  -10    3     -2.37      0.00
   -7  -10    3      0.41      0.00
   -6  -10    3     -3.48      0.00
   -5  -10    3      6.05      0.00
   -4  -10    3     -8.91      0.00
   -3  -10    3      3.91      0.00
   -2  -10    3     -8.00      0.00
   -1  -10    3     13.66      0.00
    0  -10    3     -4.62      0.00
    1  -10    3      2.90      0.00
    2  -10    3    -19.23      0.00
    3  -10    3     20.22      0.00
    4  -10    3    -11.68      0.00
    5  -10    3     10.11      0.00
    6  -10    3     -4.67      0.00
    7  -10    3      7.37      0.00
    8  -10    3    -15.48      0.00
    9  -10    3     13.70      0.00
   10  -10    3     -2.08      0.00
   11  -10    3      3.52      0.00
   12  -10    3     -2.43      0.00
   13  -10    3      2.87      0.00
   14  -10    3     -2.57      0.00
   15  -10    3      1.91      0.00
   16  -10    3      1.26      0.00
   17  -10    3      2.24      0.00
   18  -10    3     -0.43      0.00
   19  -10    3      3.83      0.00
  -13   -9    3      2.45      0.00
  -12   -9    3      0.46      0.00
  -11   -9    3     -4.63      0.00
  -10   -9    3     -5.57      0.00
   -9   -9    3     -1.66      0.00
   -8   -9    3      5.04      0.00
   -7   -9    3      5.61      0.00
   -6   -9    3      0.49      0.00
   -5   -9    3      5.93      0.00
   -4   -9    3     -9.15      0.00
   -3   -9    3     11.34      0.00
   -2   -9    3      6.56      0.00
   -1   -9    3      9.55      0.00
    0   -9    3     -0.49      0.00
    1   -9    3     15.54      0.00
    2   -9    3    -13.11      0.00
    3   -9    3      3.81      0.00
    4   -9    3    -14.95      0.00
    5   -9    3     13.22      0.00
    6   -9    3     -8.84      0.00
    7   -9    3     10.46      0.00
    8   -9    3    -16.08      0.00
    9   -9    3      9.16      0.00
   10   -9    3     -7.31      0.00
   11   -9    3      0.82      0.00
   12   -9    3     -0.43      0.00
   13   -9    3      7.24      0.00
   14   -9    3     -5.60      0.00
   15   -9    3     -2.16      0.00
   16   -9    3     -1.23      0.00
   17   -9    3     -5.20      0.00
   18   -9    3     -0.84      0.00
   19   -9    3      3.55      0.00
  -13   -8    3     -4.49      0.00
  -12   -8    3      5.81      0.00
  -11   -8    3      2.74      0.00
  -10   -8    3      1.96      0.00
   -9   -8    3      2.77      0.00
   -8   -8    3     -2.04      0.00
   -7   -8    3      7.45      0.00
   -6   -8    3    -16.78      0.00
   -5   -8    3      7.00      0.00
   -4   -8    3    -15.07      0.00
   -3   -8    3     14.13      0.00
   -2   -8    3     -6.01      0.00
   -1   -8    3      5.68      0.00
    0   -8    3    -27.14      0.00
    1   -8    3     18.35      0.00
    2   -8    3    -20.09      0.00
    3   -8    3     13.28      0.00
    4   -8    3     -5.74      0.00
    5   -8    3      9.82      0.00
    6   -8    3    -14.00      0.00
    7   -8    3     25.80      0.00
    8   -8    3    -10.34      0.00
    9   -8    3     10.96      0.00
   10   -8    3     -3.22      0.00
   11   -8    3      7.27      0.00
   12   -8    3     -6.29      0.00
   13   -8    3      6.22      0.00
   14   -8    3     -5.28      0.00
   15   -8    3      0.86      0.00
   16   -8    3      0.97      0.00
   17   -8    3      3.26      0.00
   18   -8    3      2.85      0.00
   19   -8    3      3.11      0.00
  -14   -7    3      5.29      0.00
  -13   -7    3      0.19      0.00
  -12   -7    3     -1.83      0.00
  -11   -7    3      4.37      0.00
  -10   -7    3      1.28      0.00
   -9   -7    3     -1.18      0.00
   -8   -7    3     -4.34      0.00
   -7   -7    3      2.51      0.00
   -6   -7    3     10.40      0.00
   -5   -7    3     16.07      0.00
   -4   -7    3     -5.11      0.00
   -3   -7    3      7.55      0.00
   -2   -7    3     -4.16      0.00
   -1   -7    3     15.28      0.00
    0   -7    3      5.02      0.00
    1   -7    3     19.27      0.00
    2   -7    3    -41.27      0.00
    3   -7    3     -4.53      0.00
    4   -7    3     -3.72      0.00
    5   -7    3      9.53      0.00
    6   -7    3    -18.52      0.00
    7   -7    3     21.70      0.00
    8   -7    3    -10.94      0.00
    9   -7    3      0.57      0.00
   10   -7    3     -7.21      0.00
   11   -7    3      8.51      0.00
   12   -7    3     -8.91      0.00
   13   -7    3      3.22      0.00
   14   -7    3     -1.51      0.00
   15   -7    3     -0.03      0.00
   16   -7    3      0.67      0.00
   17   -7    3     -0.11      0.00
   18   -7    3     -4.77      0.00
   19   -7    3      1.81      0.00
  -15   -6    3     -2.63      0.00
  -14   -6    3      1.29      0.00
  -13   -6    3      3.80      0.00
  -12   -6    3      5.75      0.00
  -11   -6    3     -1.54      0.00
  -10   -6    3     -5.40      0.00
   -9   -6    3      6.13      0.00
   -8   -6    3      7.04      0.00
   -7   -6    3      2.80      0.00
   -6   -6    3    -21.45      0.00
   -5   -6    3      8.45      0.00
   -4   -6    3     -7.77      0.00
   -3   -6    3     10.86      0.00
   -2   -6    3     -4.80      0.00
   -1   -6    3    -15.30      0.00
    0   -6    3    -29.73      0.00
    1   -6    3     31.86      0.00
    2   -6    3    -12.27      0.00
    3   -6    3     -4.29      0.00
    4   -6    3      6.98      0.00
    5   -6    3     15.24      0.00
    6   -6    3     -9.38      0.00
    7   -6    3     26.92      0.00
    8   -6    3    -10.68      0.00
    9   -6    3      8.61      0.00
   10   -6    3      9.52      0.00
   11   -6    3      4.29      0.00
   12   -6    3    -15.15      0.00
   13   -6    3      0.48      0.00
   14   -6    3     -2.50      0.00
   15   -6    3     -0.03      0.00
   16   -6    3      2.96      0.00
   17   -6    3      6.15      0.00
   18   -6    3      0.78      0.00
   19   -6    3      4.04      0.00
  -15   -5    3      0.91      0.00
  -14   -5    3     -1.07      0.00
  -13   -5    3      3.38      0.00
  -12   -5    3      5.45      0.00
  -11   -5    3     -1.04      0.00
  -10   -5    3     -1.04      0.00
   -9   -5    3     -6.81      0.00
   -8   -5    3      1.72      0.00
   -7   -5    3      2.78      0.00
   -6   -5    3      9.24      0.00
   -5   -5    3     14.73      0.00
   -4   -5    3      7.71      0.00
   -3   -5    3      2.56      0.00
   -2   -5    3     -7.09      0.00
   -1   -5    3     14.25      0.00
    0   -5    3     -7.47      0.00
    1   -5    3    -11.09      0.00
    2   -5    3     -9.04      0.00
    3   -5    3      7.13      0.00
    4   -5    3     -1.77      0.00
    5   -5    3      1.56      0.00
    6   -5    3     -4.33      0.00
    7   -5    3     23.14      0.00
    8   -5    3    -10.29      0.00
    9   -5    3     -5.41      0.00
   10   -5    3     -4.33      0.00
   11   -5    3      6.84      0.00
   12   -5    3     -3.75      0.00
   13   -5    3      0.63      0.00
   14   -5    3      0.46      0.00
   15   -5    3     -2.76      0.00
   16   -5    3     -0.13      0.00
   17   -5    3      2.40      0.00
   18   -5    3      0.02      0.00
  -16   -4    3     -7.83      0.00
  -15   -4    3     -0.61      0.00
  -14   -4    3     10.45      0.00
  -13   -4    3      4.06      0.00
  -12   -4    3     -9.35      0.00
  -11   -4    3      3.27      0.00
  -10   -4    3      3.72      0.00
   -9   -4    3     -2.76      0.00
   -8   -4    3      4.53      0.00
   -7   -4    3     -1.96      0.00
   -6   -4    3    -12.75      0.00
   -5   -4    3      7.59      0.00
   -4   -4    3     -6.66      0.00
   -3   -4    3    -22.72      0.00
   -2   -4    3      4.81      0.00
   -1   -4    3      4.00      0.00
    0   -4    3    -30.27      0.00
    1   -4    3      1.82      0.00
    2   -4    3      8.66      0.00
    3   -4    3    -11.55      0.00
    4   -4    3     24.30      0.00
    5   -4    3     23.07      0.00
    6   -4    3     -2.37      0.00
    7   -4    3      0.89      0.00
    8   -4    3      8.25      0.00
    9   -4    3      2.96      0.00
   10   -4    3     -0.57      0.00
   11   -4    3     -2.57      0.00
   12   -4    3     -5.83      0.00
   13   -4    3      2.84      0.00
   14   -4    3      2.38      0.00
   15   -4    3      1.49      0.00
   16   -4    3      0.10      0.00
   17   -4    3      0.37      0.00
   18   -4    3      0.00      0.00
  -17   -3    3      1.55      0.00
  -16   -3    3      1.10      0.00
  -15   -3    3      0.32      0.00
  -14   -3    3     -2.05      0.00
  -13   -3    3     -3.06      0.00
  -12   -3    3      3.70      0.00
  -11   -3    3     -8.75      0.00
  -10   -3    3      2.29      0.00
   -9   -3    3     -2.99      0.00
   -8   -3    3     10.14      0.00
   -7   -3    3      8.78      0.00
   -6   -3    3     -8.05      0.00
   -5   -3    3     10.54      0.00
   -4   -3    3     17.48      0.00
   -3   -3    3     -0.68      0.00
   -2   -3    3     17.07      0.00
   -1   -3    3      9.91      0.00
    0   -3    3    -64.20      0.00
    1   -3    3    -10.77      0.00
    2   -3    3     31.24      0.00
    3   -3    3    -21.54      0.00
    4   -3    3     -2.59      0.00
    5   -3    3     18.90      0.00
    6   -3    3      3.39      0.00
    7   -3    3    -10.28      0.00
    8   -3    3     -2.56      0.00
    9   -3    3     -9.03      0.00
   10   -3    3      0.93      0.00
   11   -3    3      4.16      0.00
   12   -3    3     -1.52      0.00
   13   -3    3      1.58      0.00
   14   -3    3      3.99      0.00
   15   -3    3      0.53      0.00
   16   -3    3      2.47      0.00
   17   -3    3      3.41      0.00
   18   -3    3     -1.86      0.00
  -17   -2    3     -1.38      0.00
  -16   -2    3     -0.99      0.00
  -15   -2    3      2.32      0.00
  -14   -2    3     -0.38      0.00
  -13   -2    3     -0.98      0.00
  -12   -2    3      0.97      0.00
  -11   -2    3      3.63      0.00
  -10   -2    3     -6.95      0.00
   -9   -2    3     -5.27      0.00
   -8   -2    3      0.22      0.00
   -7   -2    3      7.18      0.00
   -6   -2    3     -2.40      0.00
   -5   -2    3      5.45      0.00
   -4   -2    3    -22.49      0.00
   -3   -2    3    -30.77      0.00
   -2   -2    3    -10.70      0.00
   -1   -2    3     29.75      0.00
    0   -2    3      1.60      0.00
    1   -2    3     -4.32      0.00
    2   -2    3     28.13      0.00
    3   -2    3     -8.38      0.00
    4   -2    3     16.97      0.00
    5   -2    3      4.01      0.00
    6   -2    3     -3.21      0.00
    7   -2    3     -6.36      0.00
    8   -2    3     18.59      0.00
    9   -2    3     -9.64      0.00
   10   -2    3     -5.76      0.00
   11   -2    3      0.86      0.00
   12   -2    3      0.27      0.00
   13   -2    3     -1.27      0.00
   14   -2    3      2.14      0.00
   15   -2    3      0.90      0.00
   16   -2    3     -2.45      0.00
   17   -2    3     -1.56      0.00
  -18   -1    3      0.90      0.00
  -17   -1    3     -1.54      0.00
  -16   -1    3      0.03      0.00
  -15   -1    3     -4.31      0.00
  -14   -1    3      1.79      0.00
  -13   -1    3     -0.86      0.00
  -12   -1    3     -5.37      0.00
  -11   -1    3     -1.93      0.00
  -10   -1    3      4.47      0.00
   -9   -1    3      2.35      0.00
   -8   -1    3      2.78      0.00
   -7   -1    3     22.81      0.00
   -6   -1    3     -6.51      0.00
   -5   -1    3      5.97      0.00
   -4   -1    3      8.31      0.00
   -3   -1    3     15.68      0.00
   -2   -1    3    -13.43      0.00
   -1   -1    3     24.09      0.00
    0   -1    3    -94.52      0.00
    1   -1    3      7.76      0.00
    2   -1    3     21.56      0.00
    3   -1    3     -4.16      0.00
    4   -1    3      2.87      0.00
    5   -1    3     -2.86      0.00
    6   -1    3    -21.36      0.00
    7   -1    3    -14.03      0.00
    8   -1    3      9.90      0.00
    9   -1    3     -7.11      0.00
   10   -1    3      4.96      0.00
   11   -1    3      0.93      0.00
   12   -1    3      0.31      0.00
   13   -1    3      1.49      0.00
   14   -1    3      0.73      0.00
   15   -1    3     -0.54      0.00
   16   -1    3      0.11      0.00
   17   -1    3      1.09      0.00
  -18    0    3      0.42      0.00
  -17    0    3      2.68      0.00
  -16    0    3      0.37      0.00
  -15    0    3     -0.77      0.00
  -14    0    3     -1.96      0.00
  -13    0    3      7.42      0.00
  -12    0    3     -7.03      0.00
  -11    0    3      2.12      0.00
  -10    0    3      1.25      0.00
   -9    0    3      9.77      0.00
   -8    0    3    -15.42      0.00
   -7    0    3     11.67      0.00
   -6    0    3    -24.06      0.00
   -5    0    3      1.77      0.00
   -4    0    3     15.24      0.00
   -3    0    3     12.81      0.00
   -2    0    3   -101.55      0.00
   -1    0    3     21.70      0.00
    0    0    3     65.70      0.00
    1    0    3     28.49      0.00
    2    0    3      8.64      0.00
    3    0    3      2.93      0.00
    4    0    3    -16.25      0.00
    5    0    3      6.76      0.00
    6    0    3     13.60      0.00
    7    0    3     -9.06      0.00
    8    0    3      6.54      0.00
    9    0    3     -2.81      0.00
   10    0    3     -1.19      0.00
   11    0    3      5.91      0.00
   12    0    3     -0.44      0.00
   13    0    3     -1.32      0.00
   14    0    3     -0.76      0.00
   15    0    3     -1.99      0.00
   16    0    3     -1.23      0.00
   17    0    3     -1.94      0.00
  -19    1    3     -1.52      0.00
  -18    1    3     -1.79      0.00
  -17    1    3     -0.43      0.00
  -16    1    3     -0.12      0.00
  -15    1    3     -3.91      0.00
  -14    1    3     -0.69      0.00
  -13    1    3     -0.16      0.00
  -12    1    3    -14.45      0.00
  -11    1    3      7.90      0.00
  -10    1    3      6.97      0.00
   -9    1    3      2.23      0.00
   -8    1    3      2.20      0.00
   -7    1    3     33.52      0.00
   -6    1    3    -23.09      0.00
   -5    1    3      0.96      0.00
   -4    1    3     -1.38      0.00
   -3    1    3     69.11      0.00
   -2    1    3    -46.52      0.00
   -1    1    3     42.39      0.00
    0    1    3    -83.79      0.00
    1    1    3    -21.12      0.00
    2    1    3     -3.45      0.00
    3    1    3     17.54      0.00
    4    1    3    -21.56      0.00
    5    1    3     -1.95      0.00
    6    1    3     -0.54      0.00
    7    1    3    -12.47      0.00
    8    1    3      7.26      0.00
    9    1    3     -3.43      0.00
   10    1    3      0.13      0.00
   11    1    3      0.55      0.00
   12    1    3      5.90      0.00
   13    1    3      0.13      0.00
   14    1    3      0.15      0.00
   15    1    3      1.93      0.00
   16    1    3      1.18      0.00
  -19    2    3      1.78      0.00
  -18    2    3      1.52      0.00
  -17    2    3     -2.30      0.00
  -16    2    3     -1.16      0.00
  -15    2    3      9.97      0.00
  -14    2    3     -8.37      0.00
  -13    2    3      5.21      0.00
  -12    2    3     -4.18      0.00
  -11    2    3      3.08      0.00
  -10    2    3     -1.37      0.00
   -9    2    3      7.69      0.00
   -8    2    3    -30.93      0.00
   -7    2    3     13.92      0.00
   -6    2    3    -14.17      0.00
   -5    2    3      4.62      0.00
   -4    2    3    -12.49      0.00
   -3    2    3     -9.28      0.00
   -2    2    3    -40.15      0.00
   -1    2    3    131.23      0.00
    0    2    3      7.30      0.00
    1    2    3    -31.60      0.00
    2    2    3     -0.60      0.00
    3    2    3     20.50      0.00
    4    2    3    -16.31      0.00
    5    2    3      9.56      0.00
    6    2    3      2.56      0.00
    7    2    3     -6.26      0.00
    8    2    3      7.49      0.00
    9    2    3      5.05      0.00
   10    2    3     -3.33      0.00
   11    2    3     -2.89      0.00
   12    2    3     -3.14      0.00
   13    2    3     -0.36      0.00
   14    2    3     -1.45      0.00
   15    2    3     -1.30      0.00
   16    2    3      0.94      0.00
  -19    3    3      1.24      0.00
  -18    3    3     -1.88      0.00
  -17    3    3     -2.05      0.00
  -16    3    3     -2.05      0.00
  -15    3    3     -0.83      0.00
  -14    3    3     -3.62      0.00
  -13    3    3      4.37      0.00
  -12    3    3      1.44      0.00
  -11    3    3      3.27      0.00
  -10    3    3     -7.49      0.00
   -9    3    3     11.71      0.00
   -8    3    3     -2.74      0.00
   -7    3    3      6.15      0.00
   -6    3    3     -6.85      0.00
   -5    3    3     18.63      0.00
   -4    3    3      6.19      0.00
   -3    3    3     41.66      0.00
   -2    3    3    -81.45      0.00
   -1    3    3    -14.64      0.00
    0    3    3      3.79      0.00
    1    3    3     15.43      0.00
    2    3    3    -30.82      0.00
    3    3    3      6.06      0.00
    4    3    3    -19.70      0.00
    5    3    3      5.38      0.00
    6    3    3     15.32      0.00
    7    3    3     -9.48      0.00
    8    3    3     -1.95      0.00
    9    3    3      4.03      0.00
   10    3    3      4.17      0.00
   11    3    3      2.28      0.00
   12    3    3      4.04      0.00
   13    3    3     -2.21      0.00
   14    3    3      0.77      0.00
   15    3    3      2.11      0.00
  -20    4    3      2.88      0.00
  -19    4    3      4.35      0.00
  -18    4    3      0.43      0.00
  -17    4    3      4.39      0.00
  -16    4    3     -0.54      0.00
  -15    4    3      1.78      0.00
  -14    4    3     -3.64      0.00
  -13    4    3      4.12      0.00
  -12    4    3     -1.56      0.00
  -11    4    3     -2.92      0.00
  -10    4    3     -6.15      0.00
   -9    4    3      7.77      0.00
   -8    4    3    -25.17      0.00
   -7    4    3     14.55      0.00
   -6    4    3      7.84      0.00
   -5    4    3     -9.81      0.00
   -4    4    3    -15.14      0.00
   -3    4    3     39.99      0.00
   -2    4    3      4.81      0.00
   -1    4    3      2.95      0.00
    0    4    3    -20.77      0.00
    1    4    3     -5.20      0.00
    2    4    3     15.60      0.00
    3    4    3     21.31      0.00
    4    4    3    -11.62      0.00
    5    4    3     -8.15      0.00
    6    4    3     -2.93      0.00
    7    4    3      2.42      0.00
    8    4    3      2.80      0.00
    9    4    3      0.52      0.00
   10    4    3     -4.00      0.00
   11    4    3      0.36      0.00
   12    4    3     -4.14      0.00
   13    4    3      1.95      0.00
   14    4    3      0.39      0.00
  -20    5    3      1.78      0.00
  -19    5    3      2.03      0.00
  -18    5    3     -1.04      0.00
  -17    5    3      0.67      0.00
  -16    5    3     -0.03      0.00
  -15    5    3      0.50      0.00
  -14    5    3     -2.61      0.00
  -13    5    3      4.88      0.00
  -12    5    3      1.55      0.00
  -11    5    3     -2.35      0.00
  -10    5    3     -7.46      0.00
   -9    5    3     -1.76      0.00
   -8    5    3     -7.83      0.00
   -7    5    3     -1.82      0.00
   -6    5    3     32.31      0.00
   -5    5    3      1.87      0.00
   -4    5    3      4.20      0.00
   -3    5    3      9.24      0.00
   -2    5    3    -33.50      0.00
   -1    5    3    -14.66      0.00
    0    5    3     23.32      0.00
    1    5    3     -9.77      0.00
    2    5    3    -21.85      0.00
    3    5    3      6.34      0.00
    4    5    3      2.95      0.00
    5    5    3     -5.00      0.00
    6    5    3     -1.54      0.00
    7    5    3     -5.23      0.00
    8    5    3      4.34      0.00
    9    5    3      6.07      0.00
   10    5    3      0.99      0.00
   11    5    3      1.16      0.00
   12    5    3      2.91      0.00
   13    5    3     -0.44      0.00
   14    5    3     -0.70      0.00
  -20    6    3      1.18      0.00
  -19    6    3      3.07      0.00
  -18    6    3      0.67      0.00
  -17    6    3      0.52      0.00
  -16    6    3      0.59      0.00
  -15    6    3      2.89      0.00
  -14    6    3      1.41      0.00
  -13    6    3     -1.16      0.00
  -12    6    3     -5.84      0.00
  -11    6    3     -5.50      0.00
  -10    6    3      0.04      0.00
   -9    6    3      9.64      0.00
   -8    6    3      2.34      0.00
   -7    6    3      0.76      0.00
   -6    6    3      1.66      0.00
   -5    6    3    -25.51      0.00
   -4    6    3      8.84      0.00
   -3    6    3     15.25      0.00
   -2    6    3     14.65      0.00
   -1    6    3    -21.96      0.00
    0    6    3     16.46      0.00
    1    6    3     -1.16      0.00
    2    6    3     -6.22      0.00
    3    6    3      1.84      0.00
    4    6    3      6.94      0.00
    5    6    3      0.21      0.00
    6    6    3     -3.53      0.00
    7    6    3     -0.68      0.00
    8    6    3     -0.72      0.00
    9    6    3      1.57      0.00
   10    6    3     -4.11      0.00
   11    6    3     -0.83      0.00
   12    6    3     -0.06      0.00
   13    6    3     -0.63      0.00
  -20    7    3      0.93      0.00
  -19    7    3      0.03      0.00
  -18    7    3      0.02      0.00
  -17    7    3     -1.54      0.00
  -16    7    3     -1.18      0.00
  -15    7    3      3.57      0.00
  -14    7    3     -2.39      0.00
  -13    7    3      0.39      0.00
  -12    7    3     -4.19      0.00
  -11    7    3     -8.74      0.00
  -10    7    3     -4.28      0.00
   -9    7    3     -0.14      0.00
   -8    7    3      6.02      0.00
   -7    7    3     -0.62      0.00
   -6    7    3     20.66      0.00
   -5    7    3    -15.44      0.00
   -4    7    3     12.21      0.00
   -3    7    3     -8.25      0.00
   -2    7    3     -1.38      0.00
   -1    7    3    -20.09      0.00
    0    7    3     22.90      0.00
    1    7    3    -18.13      0.00
    2    7    3     10.93      0.00
    3    7    3     -0.29      0.00
    4    7    3    -10.56      0.00
    5    7    3    -11.27      0.00
    6    7    3      8.75      0.00
    7    7    3     10.65      0.00
    8    7    3      6.86      0.00
    9    7    3      3.14      0.00
   10    7    3      0.18      0.00
   11    7    3      1.13      0.00
   12    7    3      0.34      0.00
  -21    8    3     -2.77      0.00
  -20    8    3     -0.84      0.00
  -19    8    3      3.40      0.00
  -18    8    3      0.20      0.00
  -17    8    3     -0.53      0.00
  -16    8    3     -2.23      0.00
  -15    8    3      1.53      0.00
  -14    8    3     -3.76      0.00
  -13    8    3     -4.01      0.00
  -12    8    3      0.36      0.00
  -11    8    3      4.40      0.00
  -10    8    3     -4.09      0.00
   -9    8    3      2.79      0.00
   -8    8    3      9.99      0.00
   -7    8    3    -13.14      0.00
   -6    8    3     16.53      0.00
   -5    8    3    -11.42      0.00
   -4    8    3      1.65      0.00
   -3    8    3     -7.09      0.00
   -2    8    3     24.92      0.00
   -1    8    3    -11.64      0.00
    0    8    3     17.55      0.00
    1    8    3     -7.66      0.00
    2    8    3    -14.18      0.00
    3    8    3      4.20      0.00
    4    8    3      4.25      0.00
    5    8    3     -4.30      0.00
    6    8    3      6.78      0.00
    7    8    3     -4.24      0.00
    8    8    3     -5.06      0.00
    9    8    3      6.39      0.00
   10    8    3     -2.08      0.00
   11    8    3      0.12      0.00
   12    8    3      0.35      0.00
  -21    9    3     -1.20      0.00
  -20    9    3     -1.14      0.00
  -19    9    3      0.09      0.00
  -18    9    3     -0.01      0.00
  -17    9    3      1.23      0.00
  -16    9    3     -0.22      0.00
  -15    9    3      0.88      0.00
  -14    9    3     -4.34      0.00
  -13    9    3     -2.87      0.00
  -12    9    3     -1.16      0.00
  -11    9    3     -4.63      0.00
  -10    9    3    -10.44      0.00
   -9    9    3      8.12      0.00
   -8    9    3      3.96      0.00
   -7    9    3    -19.04      0.00
   -6    9    3     13.11      0.00
   -5    9    3      4.29      0.00
   -4    9    3      4.69      0.00
   -3    9    3    -22.13      0.00
   -2    9    3     19.96      0.00
   -1    9    3    -22.44      0.00
    0    9    3     10.81      0.00
    1    9    3      0.78      0.00
    2    9    3      5.68      0.00
    3    9    3     -6.42      0.00
    4    9    3      5.45      0.00
    5    9    3      2.51      0.00
    6    9    3      4.68      0.00
    7    9    3      0.28      0.00
    8    9    3     -0.06      0.00
    9    9    3      1.50      0.00
   10    9    3      2.88      0.00
   11    9    3      1.73      0.00
  -21   10    3      2.39      0.00
  -20   10    3     -0.78      0.00
  -19   10    3      2.69      0.00
  -18   10    3     -5.47      0.00
  -17   10    3      2.77      0.00
  -16   10    3     -2.19      0.00
  -15   10    3      1.65      0.00
  -14   10    3     -4.07      0.00
  -13   10    3     -1.15      0.00
  -12   10    3      2.14      0.00
  -11   10    3      3.59      0.00
  -10   10    3     -7.35      0.00
   -9   10    3      5.32      0.00
   -8   10    3      6.40      0.00
   -7   10    3    -12.40      0.00
   -6   10    3     10.11      0.00
   -5   10    3     -9.09      0.00
   -4   10    3      3.25      0.00
   -3   10    3     -3.52      0.00
   -2   10    3     12.84      0.00
   -1   10    3     -5.65      0.00
    0   10    3     -1.39      0.00
    1   10    3      1.71      0.00
    2   10    3     -5.66      0.00
    3   10    3     -0.41      0.00
    4   10    3      1.05      0.00
    5   10    3     -1.62      0.00
    6   10    3      5.62      0.00
    7   10    3      4.39      0.00
    8   10    3     -3.71      0.00
    9   10    3      1.09      0.00
   10   10    3     -1.15      0.00
  -21   11    3     -0.15      0.00
  -20   11    3     -0.41      0.00
  -19   11    3      1.91      0.00
  -18   11    3      2.11      0.00
  -17   11    3      2.65      0.00
  -16   11    3     -2.68      0.00
  -15   11    3      3.74      0.00
  -14   11    3     -0.61      0.00
  -13   11    3     -3.21      0.00
  -12   11    3     -2.89      0.00
  -11   11    3      2.20      0.00
  -10   11    3     -4.98      0.00
   -9   11    3      1.03      0.00
   -8   11    3      0.12      0.00
   -7   11    3     -1.50      0.00
   -6   11    3      3.59      0.00
   -5   11    3     -5.29      0.00
   -4   11    3     -1.43      0.00
   -3   11    3     -5.42      0.00
   -2   11    3     15.34      0.00
   -1   11    3     -4.79      0.00
    0   11    3      2.47      0.00
    1   11    3      3.47      0.00
    2   11    3     -3.19      0.00
    3   11    3     -0.68      0.00
    4   11    3      7.06      0.00
    5   11    3     -2.22      0.00
    6   11    3     -1.55      0.00
    7   11    3     -1.09      0.00
    8   11    3     -0.57      0.00
    9   11    3      2.52      0.00
  -21   12    3      5.47      0.00
  -20   12    3     -5.27      0.00
  -19   12    3      4.26      0.00
  -18   12    3     -0.20      0.00
  -17   12    3      4.54      0.00
  -16   12    3     -2.83      0.00
  -15   12    3     -1.14      0.00
  -14   12    3      1.10      0.00
  -13   12    3      0.79      0.00
  -12   12    3     -2.60      0.00
  -11   12    3      3.29      0.00
  -10   12    3     -1.34      0.00
   -9   12    3      0.15      0.00
   -8   12    3      0.63      0.00
   -7   12    3    -10.45      0.00
   -6   12    3     -1.14      0.00
   -5   12    3      5.52      0.00
   -4   12    3      1.98      0.00
   -3   12    3     -4.77      0.00
   -2   12    3      2.31      0.00
   -1   12    3     -1.85      0.00
    0   12    3      3.27      0.00
    1   12    3      3.61      0.00
    2   12    3      5.19      0.00
    3   12    3     -4.70      0.00
    4   12    3     -5.47      0.00
    5   12    3      1.64      0.00
    6   12    3      1.64      0.00
    7   12    3      6.25      0.00
    8   12    3     -5.49      0.00
  -20   13    3      0.83      0.00
  -19   13    3      4.20      0.00
  -18   13    3      1.05      0.00
  -17   13    3      1.45      0.00
  -16   13    3     -1.69      0.00
  -15   13    3      2.76      0.00
  -14   13    3      4.37      0.00
  -13   13    3     -3.16      0.00
  -12   13    3     -4.29      0.00
  -11   13    3      2.48      0.00
  -10   13    3     -3.68      0.00
   -9   13    3     -1.46      0.00
   -8   13    3      4.49      0.00
   -7   13    3     -2.13      0.00
   -6   13    3     -7.95      0.00
   -5   13    3      2.56      0.00
   -4   13    3      3.60      0.00
   -3   13    3      0.15      0.00
   -2   13    3     10.10      0.00
   -1   13    3      1.25      0.00
    0   13    3     -9.09      0.00
    1   13    3     -2.04      0.00
    2   13    3      4.56      0.00
    3   13    3     -1.94      0.00
    4   13    3      2.07      0.00
    5   13    3     -4.07      0.00
    6   13    3     -2.26      0.00
    7   13    3      0.12      0.00
  -20   14    3     -2.50      0.00
  -19   14    3      2.32      0.00
  -18   14    3      2.41      0.00
  -17   14    3      1.29      0.00
  -16   14    3     -0.14      0.00
  -15   14    3     -6.31      0.00
  -14   14    3      0.59      0.00
  -13   14    3     -1.09      0.00
  -12   14    3      2.50      0.00
  -11   14    3      2.98      0.00
  -10   14    3      0.77      0.00
   -9   14    3     -6.98      0.00
   -8   14    3     -3.09      0.00
   -7   14    3     -7.25      0.00
   -6   14    3      1.08      0.00
   -5   14    3      1.30      0.00
   -4   14    3      0.35      0.00
   -3   14    3     -6.48      0.00
   -2   14    3      6.31      0.00
   -1   14    3      2.28      0.00
    0   14    3      9.07      0.00
    1   14    3     -6.17      0.00
    2   14    3      3.11      0.00
    3   14    3     -0.25      0.00
    4   14    3     -2.19      0.00
    5   14    3      5.26      0.00
    6   14    3     -4.15      0.00
  -20   15    3      1.84      0.00
  -19   15    3      1.35      0.00
  -18   15    3     -3.28      0.00
  -17   15    3     -0.22      0.00
  -16   15    3      1.23      0.00
  -15   15    3      0.84      0.00
  -14   15    3      1.04      0.00
  -13   15    3     -5.50      0.00
  -12   15    3     -0.98      0.00
  -11   15    3     -2.77      0.00
  -10   15    3      1.11      0.00
   -9   15    3     -5.11      0.00
   -8   15    3      2.45      0.00
   -7   15    3      0.37      0.00
   -6   15    3     -1.01      0.00
   -5   15    3     -1.23      0.00
   -4   15    3      3.79      0.00
   -3   15    3     -5.23      0.00
   -2   15    3      0.22      0.00
   -1   15    3     -2.23      0.00
    0   15    3      0.96      0.00
    1   15    3     -1.77      0.00
    2   15    3      3.13      0.00
    3   15    3     -2.36      0.00
    4   15    3     -2.74      0.00
    5   15    3     -3.22      0.00
  -20   16    3     -0.20      0.00
  -19   16    3     -0.87      0.00
  -18   16    3      5.30      0.00
  -17   16    3     -1.67      0.00
  -16   16    3      0.85      0.00
  -15   16    3     -5.21      0.00
  -14   16    3      4.33      0.00
  -13   16    3     -1.89      0.00
  -12   16    3      0.99      0.00
  -11   16    3     -1.33      0.00
  -10   16    3      3.49      0.00
   -9   16    3    -10.54      0.00
   -8   16    3     -1.35      0.00
   -7   16    3     -5.13      0.00
   -6   16    3     -1.94      0.00
   -5   16    3     -3.76      0.00
   -4   16    3     10.34      0.00
   -3   16    3     -2.63      0.00
   -2   16    3      6.61      0.00
   -1   16    3      0.35      0.00
    0   16    3     -0.60      0.00
    1   16    3     -1.75      0.00
    2   16    3     -0.50      0.00
    3   16    3      0.07      0.00
    4   16    3     -0.19      0.00
  -20   17    3      0.87      0.00
  -19   17    3     -0.86      0.00
  -18   17    3     -1.23      0.00
  -17   17    3      0.41      0.00
  -16   17    3      2.73      0.00
  -15   17    3     -3.42      0.00
  -14   17    3      1.20      0.00
  -13   17    3      0.78      0.00
  -12   17    3      1.53      0.00
  -11   17    3     -6.61      0.00
  -10   17    3      2.67      0.00
   -9   17    3     -5.14      0.00
   -8   17    3     -0.45      0.00
   -7   17    3      4.08      0.00
   -6   17    3     -1.25      0.00
   -5   17    3      1.22      0.00
   -4   17    3      4.10      0.00
   -3   17    3     -3.27      0.00
   -2   17    3     -0.67      0.00
   -1   17    3      0.61      0.00
    0   17    3      1.96      0.00
    1   17    3     -3.19      0.00
    2   17    3      2.29      0.00
    3   17    3      0.61      0.00
  -19   18    3     -1.46      0.00
  -18   18    3     -0.94      0.00
  -17   18    3     -2.78      0.00
  -16   18    3      0.91      0.00
  -15   18    3     -2.69      0.00
  -14   18    3      1.70      0.00
  -13   18    3      0.04      0.00
  -12   18    3      5.19      0.00
  -11   18    3     -4.40      0.00
  -10   18    3      2.59      0.00
   -9   18    3     -4.93      0.00
   -8   18    3     -0.75      0.00
   -7   18    3     -1.25      0.00
   -6   18    3      2.38      0.00
   -5   18    3     -3.16      0.00
   -4   18    3     -0.35      0.00
   -3   18    3     -0.37      0.00
   -2   18    3      0.19      0.00
   -1   18    3     -0.81      0.00
    0   18    3     -1.54      0.00
    1   18    3      1.32      0.00
    2   18    3     -1.62      0.00
  -18   19    3      0.72      0.00
  -17   19    3     -0.11      0.00
  -16   19    3      0.78      0.00
  -15   19    3     -0.08      0.00
  -14   19    3      2.02      0.00
  -13   19    3     -3.57      0.00
  -12   19    3      0.01      0.00
  -11   19    3      0.50      0.00
  -10   19    3      5.01      0.00
   -9   19    3      0.81      0.00
   -8   19    3     -1.74      0.00
   -7   19    3      2.69      0.00
   -6   19    3      2.26      0.00
   -5   19    3      4.84      0.00
   -4   19    3      0.23      0.00
   -3   19    3     -3.67      0.00
   -2   19    3     -0.02      0.00
   -1   19    3      1.50      0.00
    0   19    3      1.35      0.00
  -17   20    3     -0.28      0.00
  -16   20    3     -1.64      0.00
  -15   20    3     -0.57      0.00
  -14   20    3      4.28      0.00
  -13   20    3      0.02      0.00
  -12   20    3      1.63      0.00
  -11   20    3     -3.66      0.00
  -10   20    3      1.25      0.00
   -9   20    3     -3.80      0.00
   -8   20    3      0.21      0.00
   -7   20    3      0.52      0.00
   -6   20    3     -1.60      0.00
   -5   20    3     -1.81      0.00
   -4   20    3     -4.28      0.00
   -3   20    3     -1.52      0.00
   -2   20    3     -0.02      0.00
  -16   21    3     -0.94      0.00
  -15   21    3      2.83      0.00
  -14   21    3      2.16      0.00
  -13   21    3     -0.05      0.00
  -12   21    3      2.60      0.00
  -11   21    3     -1.59      0.00
  -10   21    3     -0.33      0.00
   -9   21    3      0.38      0.00
   -8   21    3      0.40      0.00
   -7   21    3      0.95      0.00
   -6   21    3     -0.01      0.00
   -5   21    3     -0.98      0.00
   -4   21    3     -2.48      0.00
  -14   22    3     -1.04      0.00
  -13   22    3     -3.41      0.00
  -12   22    3      2.82      0.00
  -11   22    3      0.46      0.00
  -10   22    3      1.08      0.00
   -9   22    3     -3.89      0.00
   -8   22    3     -1.14      0.00
   -7   22    3     -1.27      0.00
    6  -22    4      2.67      0.00
    7  -22    4      1.64      0.00
    8  -22    4     -2.50      0.00
    9  -22    4      0.66      0.00
   10  -22    4     -3.26      0.00
   11  -22    4     -2.78      0.00
    2  -21    4      1.04      0.00
    3  -21    4     -2.14      0.00
    4  -21    4     -1.20      0.00
    5  -21    4     -2.21      0.00
    6  -21    4      4.50      0.00
    7  -21    4      3.23      0.00
    8  -21    4      2.24      0.00
    9  -21    4     -6.53      0.00
   10  -21    4     -3.87      0.00
   11  -21    4      1.17      0.00
   12  -21    4      2.74      0.00
   13  -21    4      0.51      0.00
   14  -21    4     -1.09      0.00
    0  -20    4     -2.78      0.00
    1  -20    4     -2.57      0.00
    2  -20    4     -0.23      0.00
    3  -20    4     -3.46      0.00
    4  -20    4     10.32      0.00
    5  -20    4      2.13      0.00
    6  -20    4     -8.45      0.00
    7  -20    4     -1.48      0.00
    8  -20    4      3.32      0.00
    9  -20    4     -4.92      0.00
   10  -20    4     -1.10      0.00
   11  -20    4     -0.77      0.00
   12  -20    4      2.64      0.00
   13  -20    4     -0.89      0.00
   14  -20    4      2.59      0.00
   15  -20    4      3.43      0.00
   -2  -19    4      0.29      0.00
   -1  -19    4      1.74      0.00
    0  -19    4     -2.32      0.00
    1  -19    4     -2.26      0.00
    2  -19    4      1.82      0.00
    3  -19    4     -3.16      0.00
    4  -19    4      3.48      0.00
    5  -19    4      2.87      0.00
    6  -19    4      2.19      0.00
    7  -19    4     -2.99      0.00
    8  -19    4      2.22      0.00
    9  -19    4      1.09      0.00
   10  -19    4      2.25      0.00
   11  -19    4      0.28      0.00
   12  -19    4      0.88      0.00
   13  -19    4     -2.37      0.00
   14  -19    4     -6.66      0.00
   15  -19    4      1.19      0.00
   16  -19    4      1.08      0.00
   -3  -18    4      0.48      0.00
   -2  -18    4     -0.89      0.00
   -1  -18    4     -5.16      0.00
    0  -18    4     -3.83      0.00
    1  -18    4     -1.52      0.00
    2  -18    4      4.72      0.00
    3  -18    4     -2.27      0.00
    4  -18    4     -5.09      0.00
    5  -18    4     -3.00      0.00
    6  -18    4      4.17      0.00
    7  -18    4     -1.93      0.00
    8  -18    4      0.18      0.00
    9  -18    4      0.38      0.00
   10  -18    4      0.35      0.00
   11  -18    4      0.67      0.00
   12  -18    4      4.74      0.00
   13  -18    4      3.97      0.00
   14  -18    4      3.16      0.00
   15  -18    4      1.15      0.00
   16  -18    4      0.60      0.00
   17  -18    4     -0.72      0.00
   -5  -17    4     -2.90      0.00
   -4  -17    4     -2.27      0.00
   -3  -17    4      1.53      0.00
   -2  -17    4     -2.73      0.00
   -1  -17    4      1.55      0.00
    0  -17    4     -0.46      0.00
    1  -17    4     -3.10      0.00
    2  -17    4      0.67      0.00
    3  -17    4      4.78      0.00
    4  -17    4     -0.66      0.00
    5  -17    4     -0.95      0.00
    6  -17    4     -1.33      0.00
    7  -17    4     -2.27      0.00
    8  -17    4      1.76      0.00
    9  -17    4      3.04      0.00
   10  -17    4      4.53      0.00
   11  -17    4     -1.93      0.00
   12  -17    4     -2.95      0.00
   13  -17    4      0.46      0.00
   14  -17    4     -2.27      0.00
   15  -17    4      4.62      0.00
   16  -17    4     -1.90      0.00
   17  -17    4      2.30      0.00
   18  -17    4     -2.19      0.00
   -6  -16    4      1.23      0.00
   -5  -16    4     -4.16      0.00
   -4  -16    4      5.58      0.00
   -3  -16    4      1.23      0.00
   -2  -16    4    -11.14      0.00
   -1  -16    4     -0.34      0.00
    0  -16    4      2.86      0.00
    1  -16    4     -4.95      0.00
    2  -16    4      1.25      0.00
    3  -16    4     -2.38      0.00
    4  -16    4      1.86      0.00
    5  -16    4      4.41      0.00
    6  -16    4      2.42      0.00
    7  -16    4     -1.62      0.00
    8  -16    4     -0.25      0.00
    9  -16    4     -1.88      0.00
   10  -16    4      0.98      0.00
   11  -16    4      1.80      0.00
   12  -16    4      3.16      0.00
   13  -16    4      0.69      0.00
   14  -16    4      0.45      0.00
   15  -16    4      2.60      0.00
   16  -16    4      2.81      0.00
   17  -16    4      1.72      0.00
   18  -16    4      0.01      0.00
   -7  -15    4     -1.46      0.00
   -6  -15    4     -5.37      0.00
   -5  -15    4      6.55      0.00
   -4  -15    4     -3.04      0.00
   -3  -15    4      2.39      0.00
   -2  -15    4     -2.45      0.00
   -1  -15    4      1.92      0.00
    0  -15    4      2.03      0.00
    1  -15    4      4.62      0.00
    2  -15    4      1.16      0.00
    3  -15    4      0.56      0.00
    4  -15    4     -4.94      0.00
    5  -15    4     -1.78      0.00
    6  -15    4     -7.61      0.00
    7  -15    4      0.39      0.00
    8  -15    4     11.21      0.00
    9  -15    4      4.30      0.00
   10  -15    4     -1.50      0.00
   11  -15    4     -3.18      0.00
   12  -15    4     -2.11      0.00
   13  -15    4      4.83      0.00
   14  -15    4     -4.22      0.00
   15  -15    4      2.91      0.00
   16  -15    4     -3.63      0.00
   17  -15    4      2.04      0.00
   18  -15    4     -3.13      0.00
   -8  -14    4     -2.63      0.00
   -7  -14    4     -1.27      0.00
   -6  -14    4      1.65      0.00
   -5  -14    4     -1.46      0.00
   -4  -14    4     -2.88      0.00
   -3  -14    4      5.31      0.00
   -2  -14    4      3.81      0.00
   -1  -14    4     -4.61      0.00
    0  -14    4      0.12      0.00
    1  -14    4     -6.70      0.00
    2  -14    4      2.79      0.00
    3  -14    4      3.12      0.00
    4  -14    4      5.10      0.00
    5  -14    4     -0.14      0.00
    6  -14    4     -1.26      0.00
    7  -14    4      5.04      0.00
    8  -14    4     -3.37      0.00
    9  -14    4     -2.37      0.00
   10  -14    4     -0.76      0.00
   11  -14    4      2.35      0.00
   12  -14    4     -1.43      0.00
   13  -14    4      4.30      0.00
   14  -14    4     -0.65      0.00
   15  -14    4      0.14      0.00
   16  -14    4      0.98      0.00
   17  -14    4      1.75      0.00
   18  -14    4      1.95      0.00
   -9  -13    4      1.41      0.00
   -8  -13    4      1.13      0.00
   -7  -13    4      3.38      0.00
   -6  -13    4      0.56      0.00
   -5  -13    4      6.29      0.00
   -4  -13    4     -2.97      0.00
   -3  -13    4      9.66      0.00
   -2  -13    4     -2.32      0.00
   -1  -13    4     -2.46      0.00
    0  -13    4      7.97      0.00
    1  -13    4      0.72      0.00
    2  -13    4      5.79      0.00
    3  -13    4      3.56      0.00
    4  -13    4    -16.33      0.00
    5  -13    4     -1.92      0.00
    6  -13    4      5.84      0.00
    7  -13    4      4.24      0.00
    8  -13    4     -0.94      0.00
    9  -13    4      5.59      0.00
   10  -13    4     -0.73      0.00
   11  -13    4     -1.81      0.00
   12  -13    4     -5.84      0.00
   13  -13    4      6.03      0.00
   14  -13    4     -3.19      0.00
   15  -13    4     -0.67      0.00
   16  -13    4     -0.39      0.00
   17  -13    4      2.39      0.00
   18  -13    4     -4.23      0.00
  -10  -12    4     -1.29      0.00
   -9  -12    4     -2.18      0.00
   -8  -12    4      0.22      0.00
   -7  -12    4     -0.64      0.00
   -6  -12    4     -4.12      0.00
   -5  -12    4      1.10      0.00
   -4  -12    4      1.10      0.00
   -3  -12    4     -2.94      0.00
   -2  -12    4     -2.63      0.00
   -1  -12    4      0.39      0.00
    0  -12    4      7.17      0.00
    1  -12    4    -10.20      0.00
    2  -12    4      0.09      0.00
    3  -12    4      0.34      0.00
    4  -12    4      6.57      0.00
    5  -12    4      1.99      0.00
    6  -12    4     -1.22      0.00
    7  -12    4      2.39      0.00
    8  -12    4     -8.63      0.00
    9  -12    4      7.72      0.00
   10  -12    4      1.05      0.00
   11  -12    4      0.85      0.00
   12  -12    4     -0.85      0.00
   13  -12    4      7.59      0.00
   14  -12    4     -5.21      0.00
   15  -12    4      0.95      0.00
   16  -12    4      0.06      0.00
   17  -12    4      0.88      0.00
   18  -12    4     -0.40      0.00
  -11  -11    4      1.13      0.00
  -10  -11    4     -2.38      0.00
   -9  -11    4      7.28      0.00
   -8  -11    4      5.03      0.00
   -7  -11    4      5.60      0.00
   -6  -11    4      1.38      0.00
   -5  -11    4     -0.46      0.00
   -4  -11    4     -4.19      0.00
   -3  -11    4      3.17      0.00
   -2  -11    4      3.17      0.00
   -1  -11    4     -2.75      0.00
    0  -11    4      8.27      0.00
    1  -11    4      3.29      0.00
    2  -11    4    -12.29      0.00
    3  -11    4     -1.91      0.00
    4  -11    4     -2.07      0.00
    5  -11    4      1.30      0.00
    6  -11    4     -3.44      0.00
    7  -11    4      8.55      0.00
    8  -11    4      1.81      0.00
    9  -11    4      1.80      0.00
   10  -11    4     -4.71      0.00
   11  -11    4      3.78      0.00
   12  -11    4     -2.49      0.00
   13  -11    4      0.19      0.00
   14  -11    4     -3.29      0.00
   15  -11    4      0.38      0.00
   16  -11    4      0.48      0.00
   17  -11    4      1.18      0.00
   18  -11    4     -5.15      0.00
   19  -11    4      0.09      0.00
  -12  -10    4     -1.95      0.00
  -11  -10    4      0.13      0.00
  -10  -10    4      2.99      0.00
   -9  -10    4     -3.97      0.00
   -8  -10    4     -2.79      0.00
   -7  -10    4     -2.78      0.00
   -6  -10    4     -1.75      0.00
   -5  -10    4      2.00      0.00
   -4  -10    4     -9.82      0.00
   -3  -10    4     -2.83      0.00
   -2  -10    4      9.57      0.00
   -1  -10    4    -17.11      0.00
    0  -10    4     -4.63      0.00
    1  -10    4      2.46      0.00
    2  -10    4      2.92      0.00
    3  -10    4     -1.20      0.00
    4  -10    4      5.09      0.00
    5  -10    4     11.70      0.00
    6  -10    4    -11.50      0.00
    7  -10    4     11.92      0.00
    8  -10    4      2.59      0.00
    9  -10    4      0.91      0.00
   10  -10    4     -0.40      0.00
   11  -10    4      3.68      0.00
   12  -10    4     -7.31      0.00
   13  -10    4      4.98      0.00
   14  -10    4      1.86      0.00
   15  -10    4      0.67      0.00
   16  -10    4     -1.30      0.00
   17  -10    4      0.07      0.00
   18  -10    4     -1.82      0.00
  -13   -9    4     -1.30      0.00
  -12   -9    4     -0.17      0.00
  -11   -9    4      2.30      0.00
  -10   -9    4      4.19      0.00
   -9   -9    4     10.04      0.00
   -8   -9    4      3.55      0.00
   -7   -9    4      1.06      0.00
   -6   -9    4     -9.83      0.00
   -5   -9    4      6.55      0.00
   -4   -9    4      3.06      0.00
   -3   -9    4      5.98      0.00
   -2   -9    4      6.21      0.00
   -1   -9    4     -8.10      0.00
    0   -9    4    -11.87      0.00
    1   -9    4      3.81      0.00
    2   -9    4    -14.63      0.00
    3   -9    4     -6.67      0.00
    4   -9    4      8.04      0.00
    5   -9    4      7.76      0.00
    6   -9    4    -12.16      0.00
    7   -9    4     16.55      0.00
    8   -9    4      0.42      0.00
    9   -9    4     -3.30      0.00
   10   -9    4     -1.88      0.00
   11   -9    4      8.48      0.00
   12   -9    4     -8.33      0.00
   13   -9    4     -4.18      0.00
   14   -9    4     -1.41      0.00
   15   -9    4      2.24      0.00
   16   -9    4     -3.67      0.00
   17   -9    4      2.53      0.00
   18   -9    4      3.49      0.00
   19   -9    4      0.76      0.00
  -14   -8    4      3.96      0.00
  -13   -8    4      5.54      0.00
  -12   -8    4     -0.89      0.00
  -11   -8    4     -0.37      0.00
  -10   -8    4      1.06      0.00
   -9   -8    4     -6.05      0.00
   -8   -8    4     -2.39      0.00
   -7   -8    4     -1.51      0.00
   -6   -8    4     -9.84      0.00
   -5   -8    4      5.56      0.00
   -4   -8    4     -4.10      0.00
   -3   -8    4     -5.14      0.00
   -2   -8    4     -2.50      0.00
   -1   -8    4     -5.33      0.00
    0   -8    4     -7.13      0.00
    1   -8    4     18.37      0.00
    2   -8    4     -7.31      0.00
    3   -8    4     10.30      0.00
    4   -8    4     -0.48      0.00
    5   -8    4     24.21      0.00
    6   -8    4     -8.98      0.00
    7   -8    4     19.15      0.00
    8   -8    4     -3.74      0.00
    9   -8    4     -1.38      0.00
   10   -8    4     -6.09      0.00
   11   -8    4      4.57      0.00
   12   -8    4     -6.47      0.00
   13   -8    4      0.70      0.00
   14   -8    4     -0.20      0.00
   15   -8    4      1.28      0.00
   16   -8    4     -1.03      0.00
   17   -8    4      3.33      0.00
   18   -8    4     -4.35      0.00
   19   -8    4     -0.13      0.00
  -14   -7    4      5.07      0.00
  -13   -7    4     -1.90      0.00
  -12   -7    4      5.02      0.00
  -11   -7    4      3.66      0.00
  -10   -7    4      0.60      0.00
   -9   -7    4      3.22      0.00
   -8   -7    4      2.18      0.00
   -7   -7    4     20.57      0.00
   -6   -7    4     -9.97      0.00
   -5   -7    4      5.15      0.00
   -4   -7    4     -7.03      0.00
   -3   -7    4     -0.94      0.00
   -2   -7    4     -1.34      0.00
   -1   -7    4     16.11      0.00
    0   -7    4    -31.96      0.00
    1   -7    4    -11.30      0.00
    2   -7    4     -7.76      0.00
    3   -7    4     13.14      0.00
    4   -7    4     -1.37      0.00
    5   -7    4     21.93      0.00
    6   -7    4    -14.98      0.00
    7   -7    4     15.93      0.00
    8   -7    4    -10.75      0.00
    9   -7    4      5.98      0.00
   10   -7    4      0.83      0.00
   11   -7    4      8.59      0.00
   12   -7    4     -7.82      0.00
   13   -7    4      3.86      0.00
   14   -7    4     -0.41      0.00
   15   -7    4      0.57      0.00
   16   -7    4     -2.03      0.00
   17   -7    4      3.61      0.00
   18   -7    4      1.08      0.00
  -15   -6    4     -1.62      0.00
  -14   -6    4      4.68      0.00
  -13   -6    4      2.78      0.00
  -12   -6    4     -3.21      0.00
  -11   -6    4     -5.63      0.00
  -10   -6    4      2.11      0.00
   -9   -6    4      3.17      0.00
   -8   -6    4     -6.27      0.00
   -7   -6    4     -2.62      0.00
   -6   -6    4     -7.97      0.00
   -5   -6    4     12.02      0.00
   -4   -6    4      0.96      0.00
   -3   -6    4     -2.46      0.00
   -2   -6    4    -29.77      0.00
   -1   -6    4     23.84      0.00
    0   -6    4     -2.44      0.00
    1   -6    4     21.38      0.00
    2   -6    4    -13.21      0.00
    3   -6    4     31.78      0.00
    4   -6    4    -12.44      0.00
    5   -6    4     32.09      0.00
    6   -6    4    -20.02      0.00
    7   -6    4     13.01      0.00
    8   -6    4     -7.13      0.00
    9   -6    4      9.39      0.00
   10   -6    4    -20.16      0.00
   11   -6    4      4.26      0.00
   12   -6    4     -4.43      0.00
   13   -6    4      3.19      0.00
   14   -6    4      2.11      0.00
   15   -6    4      5.68      0.00
   16   -6    4     -0.22      0.00
   17   -6    4      1.81      0.00
   18   -6    4     -2.43      0.00
  -16   -5    4      2.36      0.00
  -15   -5    4     -5.46      0.00
  -14   -5    4      3.81      0.00
  -13   -5    4      4.90      0.00
  -12   -5    4     -0.55      0.00
  -11   -5    4      2.59      0.00
  -10   -5    4     -1.83      0.00
   -9   -5    4      4.89      0.00
   -8   -5    4     -0.60      0.00
   -7   -5    4     16.70      0.00
   -6   -5    4    -11.20      0.00
   -5   -5    4      9.35      0.00
   -4   -5    4     -6.89      0.00
   -3   -5    4     -0.42      0.00
   -2   -5    4    -15.71      0.00
   -1   -5    4     14.10      0.00
    0   -5    4    -51.92      0.00
    1   -5    4     10.80      0.00
    2   -5    4     14.01      0.00
    3   -5    4     12.25      0.00
    4   -5    4    -23.34      0.00
    5   -5    4     42.71      0.00
    6   -5    4    -19.38      0.00
    7   -5    4      5.33      0.00
    8   -5    4    -12.27      0.00
    9   -5    4     13.58      0.00
   10   -5    4     -7.73      0.00
   11   -5    4     14.25      0.00
   12   -5    4     -4.64      0.00
   13   -5    4      0.52      0.00
   14   -5    4     -1.34      0.00
   15   -5    4      2.92      0.00
   16   -5    4     -1.37      0.00
   17   -5    4      6.36      0.00
   18   -5    4      0.95      0.00
  -16   -4    4      3.10      0.00
  -15   -4    4      8.62      0.00
  -14   -4    4     -2.43      0.00
  -13   -4    4    -10.86      0.00
  -12   -4    4      4.09      0.00
  -11   -4    4      3.09      0.00
  -10   -4    4      0.89      0.00
   -9   -4    4     -1.85      0.00
   -8   -4    4     -8.34      0.00
   -7   -4    4      4.19      0.00
   -6   -4    4     -2.58      0.00
   -5   -4    4     -3.08      0.00
   -4   -4    4     -7.87      0.00
   -3   -4    4     22.94      0.00
   -2   -4    4     -7.33      0.00
   -1   -4    4     39.12      0.00
    0   -4    4    -20.80      0.00
    1   -4    4     15.99      0.00
    2   -4    4      8.70      0.00
    3   -4    4     42.82      0.00
    4   -4    4    -16.72      0.00
    5   -4    4     23.14      0.00
    6   -4    4    -23.69      0.00
    7   -4    4     10.47      0.00
    8   -4    4     -2.41      0.00
    9   -4    4      4.10      0.00
   10   -4    4    -18.19      0.00
   11   -4    4      9.32      0.00
   12   -4    4     -0.63      0.00
   13   -4    4      0.85      0.00
   14   -4    4     -0.90      0.00
   15   -4    4      0.44      0.00
   16   -4    4     -4.76      0.00
   17   -4    4      3.69      0.00
   18   -4    4      0.82      0.00
  -17   -3    4      0.29      0.00
  -16   -3    4     -1.83      0.00
  -15   -3    4     -4.49      0.00
  -14   -3    4      2.12      0.00
  -13   -3    4      3.71      0.00
  -12   -3    4     -6.12      0.00
  -11   -3    4      1.27      0.00
  -10   -3    4      6.59      0.00
   -9   -3    4      4.13      0.00
   -8   -3    4     -0.24      0.00
   -7   -3    4      9.38      0.00
   -6   -3    4     -4.89      0.00
   -5   -3    4      7.40      0.00
   -4   -3    4     -3.78      0.00
   -3   -3    4     -4.60      0.00
   -2   -3    4    -37.89      0.00
   -1   -3    4     -7.33      0.00
    0   -3    4      2.20      0.00
    1   -3    4     14.50      0.00
    2   -3    4    -17.34      0.00
    3   -3    4     11.15      0.00
    4   -3    4     -5.47      0.00
    5   -3    4     27.39      0.00
    6   -3    4    -23.37      0.00
    7   -3    4     -1.02      0.00
    8   -3    4     -1.45      0.00
    9   -3    4     16.64      0.00
   10   -3    4     -6.99      0.00
   11   -3    4      6.75      0.00
   12   -3    4      0.40      0.00
   13   -3    4     -1.15      0.00
   14   -3    4     -1.40      0.00
   15   -3    4      2.69      0.00
   16   -3    4     -0.79      0.00
   17   -3    4     -0.84      0.00
  -17   -2    4      2.13      0.00
  -16   -2    4      2.85      0.00
  -15   -2    4      0.31      0.00
  -14   -2    4     -1.86      0.00
  -13   -2    4      3.70      0.00
  -12   -2    4      3.60      0.00
  -11   -2    4    -14.50      0.00
  -10   -2    4      3.65      0.00
   -9   -2    4      0.12      0.00
   -8   -2    4     -0.11      0.00
   -7   -2    4     15.96      0.00
   -6   -2    4      3.12      0.00
   -5   -2    4    -18.87      0.00
   -4   -2    4      7.13      0.00
   -3   -2    4     44.54      0.00
   -2   -2    4     -0.35      0.00
   -1   -2    4     55.31      0.00
    0   -2    4     13.01      0.00
    1   -2    4     -6.57      0.00
    2   -2    4     30.07      0.00
    3   -2    4     26.04      0.00
    4   -2    4    -24.06      0.00
    5   -2    4     -1.52      0.00
    6   -2    4      4.66      0.00
    7   -2    4      1.70      0.00
    8   -2    4     -8.39      0.00
    9   -2    4      1.04      0.00
   10   -2    4     -8.02      0.00
   11   -2    4      2.31      0.00
   12   -2    4     -3.05      0.00
   13   -2    4     -1.11      0.00
   14   -2    4     -3.57      0.00
   15   -2    4     -0.35      0.00
   16   -2    4     -1.25      0.00
   17   -2    4      3.45      0.00
  -18   -1    4     -2.86      0.00
  -17   -1    4     -2.63      0.00
  -16   -1    4     -0.65      0.00
  -15   -1    4      1.18      0.00
  -14   -1    4     -0.25      0.00
  -13   -1    4     -0.13      0.00
  -12   -1    4      0.92      0.00
  -11   -1    4      1.41      0.00
  -10   -1    4      4.63      0.00
   -9   -1    4      4.74      0.00
   -8   -1    4     -8.42      0.00
   -7   -1    4      4.55      0.00
   -6   -1    4     -1.23      0.00
   -5   -1    4     -5.89      0.00
   -4   -1    4     15.85      0.00
   -3   -1    4      2.70      0.00
   -2   -1    4    -56.24      0.00
   -1   -1    4    -22.16      0.00
    0   -1    4     40.97      0.00
    1   -1    4    -12.38      0.00
    2   -1    4     -7.40      0.00
    3   -1    4     27.28      0.00
    4   -1    4    -17.65      0.00
    5   -1    4    -10.62      0.00
    6   -1    4      8.25      0.00
    7   -1    4      7.78      0.00
    8   -1    4     -0.19      0.00
    9   -1    4     11.01      0.00
   10   -1    4     -8.12      0.00
   11   -1    4     -2.58      0.00
   12   -1    4      0.00      0.00
   13   -1    4     -0.12      0.00
   14   -1    4     -1.74      0.00
   15   -1    4      3.76      0.00
   16   -1    4      0.92      0.00
   17   -1    4      1.25      0.00
  -19    0    4      0.47      0.00
  -18    0    4      0.92      0.00
  -17    0    4     -0.23      0.00
  -16    0    4     -0.66      0.00
  -15    0    4      2.68      0.00
  -14    0    4      0.39      0.00
  -13    0    4     -3.60      0.00
  -12    0    4     -3.23      0.00
  -11    0    4     -6.36      0.00
  -10    0    4      9.22      0.00
   -9    0    4     -1.55      0.00
   -8    0    4     -8.09      0.00
   -7    0    4      7.46      0.00
   -6    0    4      6.22      0.00
   -5    0    4      8.49      0.00
   -4    0    4      7.60      0.00
   -3    0    4     23.63      0.00
   -2    0    4      5.41      0.00
   -1    0    4     56.92      0.00
    0    0    4     43.87      0.00
    1    0    4    -36.09      0.00
    2    0    4      5.55      0.00
    3    0    4      0.14      0.00
    4    0    4     -0.10      0.00
    5    0    4      2.33      0.00
    6    0    4      7.75      0.00
    7    0    4    -11.34      0.00
    8    0    4     -3.73      0.00
    9    0    4      3.39      0.00
   10    0    4     -4.53      0.00
   11    0    4     -7.07      0.00
   12    0    4     -7.80      0.00
   13    0    4     -1.24      0.00
   14    0    4     -2.86      0.00
   15    0    4      0.67      0.00
   16    0    4      0.74      0.00
  -19    1    4     -1.02      0.00
  -18    1    4      1.06      0.00
  -17    1    4     -0.61      0.00
  -16    1    4     -1.17      0.00
  -15    1    4      5.11      0.00
  -14    1    4     -6.81      0.00
  -13    1    4     -2.24      0.00
  -12    1    4      5.33      0.00
  -11    1    4      4.03      0.00
  -10    1    4     -4.87      0.00
   -9    1    4     15.03      0.00
   -8    1    4     -8.98      0.00
   -7    1    4    -10.62      0.00
   -6    1    4      6.06      0.00
   -5    1    4      2.10      0.00
   -4    1    4     -0.72      0.00
   -3    1    4     29.41      0.00
   -2    1    4    -65.27      0.00
   -1    1    4    -28.36      0.00
    0    1    4      5.16      0.00
    1    1    4      8.65      0.00
    2    1    4    -11.76      0.00
    3    1    4     13.16      0.00
    4    1    4    -10.22      0.00
    5    1    4      0.45      0.00
    6    1    4     14.45      0.00
    7    1    4      0.69      0.00
    8    1    4     -0.47      0.00
    9    1    4      2.70      0.00
   10    1    4     -1.37      0.00
   11    1    4      4.17      0.00
   12    1    4     -0.49      0.00
   13    1    4      1.15      0.00
   14    1    4      1.50      0.00
   15    1    4      2.09      0.00
   16    1    4      0.59      0.00
  -19    2    4      1.26      0.00
  -18    2    4     -2.12      0.00
  -17    2    4      0.79      0.00
  -16    2    4      5.21      0.00
  -15    2    4     -0.65      0.00
  -14    2    4     -5.78      0.00
  -13    2    4      0.10      0.00
  -12    2    4     -1.97      0.00
  -11    2    4     -1.50      0.00
  -10    2    4     -8.69      0.00
   -9    2    4      4.95      0.00
   -8    2    4    -11.00      0.00
   -7    2    4     16.22      0.00
   -6    2    4     13.48      0.00
   -5    2    4      6.43      0.00
   -4    2    4    -25.04      0.00
   -3    2    4     50.88      0.00
   -2    2    4     36.48      0.00
   -1    2    4    -23.71      0.00
    0    2    4    -21.81      0.00
    1    2    4     14.56      0.00
    2    2    4    -11.93      0.00
    3    2    4      5.18      0.00
    4    2    4     -0.69      0.00
    5    2    4    -14.39      0.00
    6    2    4      2.40      0.00
    7    2    4     -0.50      0.00
    8    2    4     -5.09      0.00
    9    2    4     -5.44      0.00
   10    2    4     -7.55      0.00
   11    2    4     -5.55      0.00
   12    2    4      1.12      0.00
   13    2    4     -1.87      0.00
   14    2    4     -0.84      0.00
   15    2    4     -1.17      0.00
  -20    3    4     -0.22      0.00
  -19    3    4      1.00      0.00
  -18    3    4      1.42      0.00
  -17    3    4      2.51      0.00
  -16    3    4     -1.08      0.00
  -15    3    4      3.54      0.00
  -14    3    4     -3.17      0.00
  -13    3    4      5.87      0.00
  -12    3    4     -0.32      0.00
  -11    3    4     -4.85      0.00
  -10    3    4     -3.48      0.00
   -9    3    4     17.70      0.00
   -8    3    4    -23.50      0.00
   -7    3    4     -4.14      0.00
   -6    3    4      7.41      0.00
   -5    3    4     23.01      0.00
   -4    3    4    -52.83      0.00
   -3    3    4     18.49      0.00
   -2    3    4    -58.96      0.00
   -1    3    4     28.50      0.00
    0    3    4     -2.02      0.00
    1    3    4      2.17      0.00
    2    3    4    -27.69      0.00
    3    3    4     28.53      0.00
    4    3    4     10.08      0.00
    5    3    4      3.62      0.00
    6    3    4      0.15      0.00
    7    3    4     -3.33      0.00
    8    3    4      3.31      0.00
    9    3    4      3.92      0.00
   10    3    4      1.54      0.00
   11    3    4     -1.75      0.00
   12    3    4     -0.29      0.00
   13    3    4      2.74      0.00
   14    3    4      1.53      0.00
   15    3    4      0.07      0.00
  -20    4    4      1.54      0.00
  -19    4    4      1.78      0.00
  -18    4    4      3.63      0.00
  -17    4    4      0.95      0.00
  -16    4    4     -4.14      0.00
  -15    4    4     -0.11      0.00
  -14    4    4     -3.20      0.00
  -13    4    4      2.64      0.00
  -12    4    4     -1.37      0.00
  -11    4    4      9.86      0.00
  -10    4    4    -16.85      0.00
   -9    4    4     15.21      0.00
   -8    4    4      2.63      0.00
   -7    4    4      6.75      0.00
   -6    4    4     -4.88      0.00
   -5    4    4     16.45      0.00
   -4    4    4    -16.68      0.00
   -3    4    4     52.79      0.00
   -2    4    4    -40.46      0.00
   -1    4    4    -25.48      0.00
    0    4    4     -1.67      0.00
    1    4    4     46.10      0.00
    2    4    4    -25.81      0.00
    3    4    4      3.54      0.00
    4    4    4     -5.14      0.00
    5    4    4    -11.24      0.00
    6    4    4      5.14      0.00
    7    4    4      3.37      0.00
    8    4    4     -5.81      0.00
    9    4    4     -3.20      0.00
   10    4    4      1.89      0.00
   11    4    4     -7.24      0.00
   12    4    4      3.24      0.00
   13    4    4     -1.53      0.00
   14    4    4     -1.59      0.00
  -20    5    4      0.97      0.00
  -19    5    4      1.57      0.00
  -18    5    4      2.03      0.00
  -17    5    4     -0.82      0.00
  -16    5    4     -0.98      0.00
  -15    5    4      3.83      0.00
  -14    5    4      0.91      0.00
  -13    5    4     -1.21      0.00
  -12    5    4     -4.76      0.00
  -11    5    4      3.90      0.00
  -10    5    4    -13.01      0.00
   -9    5    4     14.38      0.00
   -8    5    4     -3.94      0.00
   -7    5    4     15.25      0.00
   -6    5    4    -13.81      0.00
   -5    5    4     11.67      0.00
   -4    5    4    -56.07      0.00
   -3    5    4     22.29      0.00
   -2    5    4     -6.41      0.00
   -1    5    4     24.77      0.00
    0    5    4    -27.24      0.00
    1    5    4     13.91      0.00
    2    5    4    -14.38      0.00
    3    5    4     21.16      0.00
    4    5    4      3.45      0.00
    5    5    4     -3.42      0.00
    6    5    4     -0.90      0.00
    7    5    4      7.03      0.00
    8    5    4      2.77      0.00
    9    5    4      0.59      0.00
   10    5    4      3.09      0.00
   11    5    4     -1.71      0.00
   12    5    4      0.12      0.00
   13    5    4      1.85      0.00
  -21    6    4      0.00      0.00
  -20    6    4      1.08      0.00
  -19    6    4      1.93      0.00
  -18    6    4     -0.27      0.00
  -17    6    4     -1.12      0.00
  -16    6    4     -1.24      0.00
  -15    6    4      3.79      0.00
  -14    6    4     -3.32      0.00
  -13    6    4      1.64      0.00
  -12    6    4     -5.25      0.00
  -11    6    4     14.23      0.00
  -10    6    4    -12.89      0.00
   -9    6    4     13.04      0.00
   -8    6    4      1.58      0.00
   -7    6    4    -13.74      0.00
   -6    6    4     -7.58      0.00
   -5    6    4     43.97      0.00
   -4    6    4    -15.37      0.00
   -3    6    4     17.26      0.00
   -2    6    4    -15.51      0.00
   -1    6    4      6.53      0.00
    0    6    4     -0.87      0.00
    1    6    4     20.76      0.00
    2    6    4    -12.23      0.00
    3    6    4      8.85      0.00
    4    6    4      1.87      0.00
    5    6    4     -9.27      0.00
    6    6    4     -1.45      0.00
    7    6    4      1.48      0.00
    8    6    4     -0.69      0.00
    9    6    4      0.10      0.00
   10    6    4      3.73      0.00
   11    6    4     -1.94      0.00
   12    6    4     -0.86      0.00
   13    6    4     -4.07      0.00
  -21    7    4      1.02      0.00
  -20    7    4      0.08      0.00
  -19    7    4     -0.58      0.00
  -18    7    4      0.07      0.00
  -17    7    4      0.87      0.00
  -16    7    4     -0.36      0.00
  -15    7    4      3.03      0.00
  -14    7    4     -0.83      0.00
  -13    7    4     -1.60      0.00
  -12    7    4     -6.76      0.00
  -11    7    4      9.67      0.00
  -10    7    4    -10.81      0.00
   -9    7    4      9.06      0.00
   -8    7    4      5.61      0.00
   -7    7    4     -3.99      0.00
   -6    7    4    -15.45      0.00
   -5    7    4     18.56      0.00
   -4    7    4    -24.49      0.00
   -3    7    4     -0.84      0.00
   -2    7    4     12.79      0.00
   -1    7    4      5.93      0.00
    0    7    4    -16.56      0.00
    1    7    4     25.96      0.00
    2    7    4     -8.99      0.00
    3    7    4    -11.94      0.00
    4    7    4      1.63      0.00
    5    7    4     11.60      0.00
    6    7    4      7.45      0.00
    7    7    4      3.47      0.00
    8    7    4     -8.80      0.00
    9    7    4     -2.75      0.00
   10    7    4      0.79      0.00
   11    7    4     -1.01      0.00
   12    7    4     -1.44      0.00
  -21    8    4      0.89      0.00
  -20    8    4      2.94      0.00
  -19    8    4     -1.05      0.00
  -18    8    4     -1.02      0.00
  -17    8    4      2.41      0.00
  -16    8    4     -1.56      0.00
  -15    8    4      3.17      0.00
  -14    8    4      0.05      0.00
  -13    8    4      3.27      0.00
  -12    8    4     -3.68      0.00
  -11    8    4      4.37      0.00
  -10    8    4    -10.57      0.00
   -9    8    4      5.48      0.00
   -8    8    4      2.37      0.00
   -7    8    4     -3.50      0.00
   -6    8    4      3.57      0.00
   -5    8    4     15.52      0.00
   -4    8    4     -1.53      0.00
   -3    8    4      4.22      0.00
   -2    8    4     14.77      0.00
   -1    8    4     -3.05      0.00
    0    8    4    -13.67      0.00
    1    8    4     -1.73      0.00
    2    8    4     10.90      0.00
    3    8    4     -1.22      0.00
    4    8    4     -0.60      0.00
    5    8    4     -2.38      0.00
    6    8    4     -1.31      0.00
    7    8    4     -1.45      0.00
    8    8    4      3.78      0.00
    9    8    4     -1.20      0.00
   10    8    4      3.26      0.00
   11    8    4     -2.30      0.00
  -21    9    4      3.28      0.00
  -20    9    4      0.06      0.00
  -19    9    4      0.67      0.00
  -18    9    4     -2.12      0.00
  -17    9    4      5.08      0.00
  -16    9    4     -0.32      0.00
  -15    9    4     -0.11      0.00
  -14    9    4     -0.92      0.00
  -13    9    4      0.28      0.00
  -12    9    4     -6.83      0.00
  -11    9    4      5.79      0.00
  -10    9    4     -1.26      0.00
   -9    9    4     -1.94      0.00
   -8    9    4      3.14      0.00
   -7    9    4     -4.44      0.00
   -6    9    4      7.74      0.00
   -5    9    4     -3.30      0.00
   -4    9    4     -2.97      0.00
   -3    9    4     -7.42      0.00
   -2    9    4     13.43      0.00
   -1    9    4      1.83      0.00
    0    9    4      1.90      0.00
    1    9    4      4.34      0.00
    2    9    4     -9.22      0.00
    3    9    4     -1.81      0.00
    4    9    4      1.90      0.00
    5    9    4     -3.80      0.00
    6    9    4     -3.33      0.00
    7    9    4      1.95      0.00
    8    9    4     -5.33      0.00
    9    9    4      0.32      0.00
   10    9    4     -1.06      0.00
   11    9    4     -4.04      0.00
  -21   10    4      0.92      0.00
  -20   10    4     -1.36      0.00
  -19   10    4     -2.55      0.00
  -18   10    4     -0.36      0.00
  -17   10    4      4.51      0.00
  -16   10    4     -1.77      0.00
  -15   10    4      2.07      0.00
  -14   10    4     -0.48      0.00
  -13   10    4      0.90      0.00
  -12   10    4     -6.33      0.00
  -11   10    4      3.08      0.00
  -10   10    4      0.75      0.00
   -9   10    4     -1.77      0.00
   -8   10    4      5.51      0.00
   -7   10    4     -0.39      0.00
   -6   10    4     -0.44      0.00
   -5   10    4     -0.10      0.00
   -4   10    4     16.01      0.00
   -3   10    4     -9.18      0.00
   -2   10    4     10.60      0.00
   -1   10    4     -5.73      0.00
    0   10    4     -0.78      0.00
    1   10    4     -0.29      0.00
    2   10    4      5.78      0.00
    3   10    4     -6.55      0.00
    4   10    4      2.62      0.00
    5   10    4     -4.14      0.00
    6   10    4      0.86      0.00
    7   10    4     -1.51      0.00
    8   10    4      0.25      0.00
    9   10    4     -3.84      0.00
   10   10    4      2.27      0.00
  -21   11    4      3.77      0.00
  -20   11    4     -2.34      0.00
  -19   11    4      4.89      0.00
  -18   11    4      0.85      0.00
  -17   11    4      2.16      0.00
  -16   11    4     -1.30      0.00
  -15   11    4     -0.17      0.00
  -14   11    4     -3.17      0.00
  -13   11    4      1.02      0.00
  -12   11    4     -5.23      0.00
  -11   11    4      4.43      0.00
  -10   11    4      0.11      0.00
   -9   11    4     -5.27      0.00
   -8   11    4     10.40      0.00
   -7   11    4     -5.39      0.00
   -6   11    4     -1.14      0.00
   -5   11    4     -5.64      0.00
   -4   11    4     18.67      0.00
   -3   11    4     -7.12      0.00
   -2   11    4      4.05      0.00
   -1   11    4      1.73      0.00
    0   11    4     -6.92      0.00
    1   11    4     -2.69      0.00
    2   11    4      0.90      0.00
    3   11    4      1.75      0.00
    4   11    4     -4.83      0.00
    5   11    4     -5.17      0.00
    6   11    4     -4.32      0.00
    7   11    4      5.44      0.00
    8   11    4      0.49      0.00
    9   11    4     -4.07      0.00
  -21   12    4     -2.29      0.00
  -20   12    4     -1.79      0.00
  -19   12    4      2.17      0.00
  -18   12    4     -0.95      0.00
  -17   12    4      2.49      0.00
  -16   12    4     -2.11      0.00
  -15   12    4      0.71      0.00
  -14   12    4      0.24      0.00
  -13   12    4      1.22      0.00
  -12   12    4     -6.08      0.00
  -11   12    4      4.81      0.00
  -10   12    4     -2.23      0.00
   -9   12    4     -2.29      0.00
   -8   12    4      1.58      0.00
   -7   12    4      2.45      0.00
   -6   12    4      2.10      0.00
   -5   12    4     -0.83      0.00
   -4   12    4      9.17      0.00
   -3   12    4     -4.20      0.00
   -2   12    4      4.60      0.00
   -1   12    4      9.40      0.00
    0   12    4     -2.15      0.00
    1   12    4     -5.88      0.00
    2   12    4     -3.32      0.00
    3   12    4     -8.63      0.00
    4   12    4      5.73      0.00
    5   12    4      1.15      0.00
    6   12    4      0.60      0.00
    7   12    4     -3.01      0.00
    8   12    4      0.17      0.00
  -21   13    4      4.34      0.00
  -20   13    4     -0.79      0.00
  -19   13    4      1.58      0.00
  -18   13    4     -0.72      0.00
  -17   13    4      2.68      0.00
  -16   13    4      1.40      0.00
  -15   13    4     -1.62      0.00
  -14   13    4     -2.70      0.00
  -13   13    4      0.65      0.00
  -12   13    4     -4.29      0.00
  -11   13    4      2.95      0.00
  -10   13    4     -0.01      0.00
   -9   13    4      3.37      0.00
   -8   13    4     -2.67      0.00
   -7   13    4     -2.43      0.00
   -6   13    4      3.38      0.00
   -5   13    4     -0.61      0.00
   -4   13    4      9.98      0.00
   -3   13    4      0.57      0.00
   -2   13    4     -8.20      0.00
   -1   13    4     -2.17      0.00
    0   13    4     -2.25      0.00
    1   13    4     -1.08      0.00
    2   13    4      0.80      0.00
    3   13    4      1.28      0.00
    4   13    4     -7.71      0.00
    5   13    4      2.41      0.00
    6   13    4     -0.71      0.00
    7   13    4      0.99      0.00
  -20   14    4     -0.97      0.00
  -19   14    4      3.67      0.00
  -18   14    4     -4.03      0.00
  -17   14    4      0.58      0.00
  -16   14    4     -2.21      0.00
  -15   14    4     -0.26      0.00
  -14   14    4      1.74      0.00
  -13   14    4      8.04      0.00
  -12   14    4     -2.86      0.00
  -11   14    4      1.90      0.00
  -10   14    4     -4.59      0.00
   -9   14    4     -4.24      0.00
   -8   14    4     -3.97      0.00
   -7   14    4      8.59      0.00
   -6   14    4     -0.74      0.00
   -5   14    4     -6.80      0.00
   -4   14    4      4.85      0.00
   -3   14    4      4.17      0.00
   -2   14    4     -0.30      0.00
   -1   14    4      5.19      0.00
    0   14    4     -6.95      0.00
    1   14    4     -8.21      0.00
    2   14    4      3.18      0.00
    3   14    4     -3.16      0.00
    4   14    4      1.36      0.00
    5   14    4     -1.59      0.00
    6   14    4     -4.53      0.00
  -20   15    4     -0.20      0.00
  -19   15    4      0.07      0.00
  -18   15    4      0.67      0.00
  -17   15    4      1.18      0.00
  -16   15    4      3.01      0.00
  -15   15    4     -6.70      0.00
  -14   15    4     -5.23      0.00
  -13   15    4      6.17      0.00
  -12   15    4     -2.33      0.00
  -11   15    4      4.73      0.00
  -10   15    4      2.45      0.00
   -9   15    4      0.21      0.00
   -8   15    4     -2.41      0.00
   -7   15    4      2.84      0.00
   -6   15    4      3.72      0.00
   -5   15    4     -2.67      0.00
   -4   15    4      1.64      0.00
   -3   15    4     -0.23      0.00
   -2   15    4     -3.83      0.00
   -1   15    4      2.33      0.00
    0   15    4      3.62      0.00
    1   15    4     -3.93      0.00
    2   15    4     -2.27      0.00
    3   15    4      1.37      0.00
    4   15    4     -1.64      0.00
    5   15    4      3.43      0.00
  -20   16    4     -0.86      0.00
  -19   16    4      3.34      0.00
  -18   16    4     -3.29      0.00
  -17   16    4      0.48      0.00
  -16   16    4      3.56      0.00
  -15   16    4      2.24      0.00
  -14   16    4     -0.61      0.00
  -13   16    4      4.19      0.00
  -12   16    4     -1.67      0.00
  -11   16    4     -1.83      0.00
  -10   16    4      0.30      0.00
   -9   16    4     -4.42      0.00
   -8   16    4     -1.79      0.00
   -7   16    4     -1.60      0.00
   -6   16    4      2.98      0.00
   -5   16    4     -0.54      0.00
   -4   16    4      2.78      0.00
   -3   16    4      0.44      0.00
   -2   16    4     -4.48      0.00
   -1   16    4     -8.23      0.00
    0   16    4     -0.34      0.00
    1   16    4     -4.48      0.00
    2   16    4      0.18      0.00
    3   16    4      1.39      0.00
    4   16    4     -2.80      0.00
  -20   17    4      0.37      0.00
  -19   17    4     -1.98      0.00
  -18   17    4      1.00      0.00
  -17   17    4     -1.54      0.00
  -16   17    4      0.47      0.00
  -15   17    4     -1.63      0.00
  -14   17    4      0.73      0.00
  -13   17    4      0.58      0.00
  -12   17    4     -2.89      0.00
  -11   17    4     -0.91      0.00
  -10   17    4      0.90      0.00
   -9   17    4     -0.10      0.00
   -8   17    4      4.47      0.00
   -7   17    4     -0.47      0.00
   -6   17    4      6.23      0.00
   -5   17    4     -0.57      0.00
   -4   17    4      0.15      0.00
   -3   17    4      0.87      0.00
   -2   17    4      2.29      0.00
   -1   17    4      1.50      0.00
    0   17    4     -0.20      0.00
    1   17    4      2.54      0.00
    2   17    4     -0.50      0.00
  -19   18    4     -2.67      0.00
  -18   18    4     -1.25      0.00
  -17   18    4     -0.65      0.00
  -16   18    4      2.90      0.00
  -15   18    4      3.07      0.00
  -14   18    4      4.27      0.00
  -13   18    4      1.34      0.00
  -12   18    4      2.59      0.00
  -11   18    4     -3.63      0.00
  -10   18    4      3.35      0.00
   -9   18    4     -3.02      0.00
   -8   18    4      0.82      0.00
   -7   18    4     -1.64      0.00
   -6   18    4     -0.66      0.00
   -5   18    4     -3.22      0.00
   -4   18    4     -0.90      0.00
   -3   18    4     -2.62      0.00
   -2   18    4     -2.20      0.00
   -1   18    4     -2.41      0.00
    0   18    4      3.59      0.00
    1   18    4     -0.33      0.00
  -18   19    4      1.65      0.00
  -17   19    4     -2.33      0.00
  -16   19    4     -0.62      0.00
  -15   19    4     -3.57      0.00
  -14   19    4     -3.59      0.00
  -13   19    4     -0.38      0.00
  -12   19    4      5.72      0.00
  -11   19    4      0.42      0.00
  -10   19    4     -1.34      0.00
   -9   19    4     -3.04      0.00
   -8   19    4      1.20      0.00
   -7   19    4      2.51      0.00
   -6   19    4      4.35      0.00
   -5   19    4      0.02      0.00
   -4   19    4     -1.95      0.00
   -3   19    4      3.56      0.00
   -2   19    4      2.12      0.00
   -1   19    4     -1.22      0.00
  -17   20    4      0.85      0.00
  -16   20    4      2.30      0.00
  -15   20    4      1.61      0.00
  -14   20    4      3.03      0.00
  -13   20    4     -2.70      0.00
  -12   20    4      3.45      0.00
  -11   20    4     -2.04      0.00
  -10   20    4     -0.82      0.00
   -9   20    4      1.98      0.00
   -8   20    4      0.17      0.00
   -7   20    4     -1.33      0.00
   -6   20    4     -2.00      0.00
   -5   20    4     -0.73      0.00
   -4   20    4     -0.62      0.00
   -3   20    4      1.05      0.00
   -2   20    4      0.95      0.00
  -16   21    4      3.17      0.00
  -15   21    4     -0.70      0.00
  -14   21    4      0.19      0.00
  -13   21    4     -1.63      0.00
  -12   21    4     -0.35      0.00
  -11   21    4     -2.38      0.00
  -10   21    4      1.13      0.00
   -9   21    4     -0.56      0.00
   -8   21    4      1.30      0.00
   -7   21    4      0.57      0.00
   -6   21    4     -0.75      0.00
   -5   21    4      1.76      0.00
  -14   22    4      0.95      0.00
  -13   22    4      1.22      0.00
  -12   22    4      1.58      0.00
  -11   22    4     -2.74      0.00
  -10   22    4     -3.04      0.00
   -9   22    4      1.55      0.00
   -8   22    4      1.28      0.00
    6  -22    5     -2.37      0.00
    7  -22    5     -2.39      0.00
    8  -22    5      1.20      0.00
    9  -22    5      0.61      0.00
   10  -22    5     -3.19      0.00
    2  -21    5      0.86      0.00
    3  -21    5     -3.02      0.00
    4  -21    5      1.79      0.00
    5  -21    5      6.75      0.00
    6  -21    5      1.52      0.00
    7  -21    5     -3.33      0.00
    8  -21    5     -4.19      0.00
    9  -21    5      1.38      0.00
   10  -21    5      3.08      0.00
   11  -21    5      0.51      0.00
   12  -21    5      1.17      0.00
   13  -21    5     -3.96      0.00
    0  -20    5      2.48      0.00
    1  -20    5     -0.21      0.00
    2  -20    5      3.67      0.00
    3  -20    5      4.02      0.00
    4  -20    5     -0.27      0.00
    5  -20    5     -8.34      0.00
    6  -20    5      1.77      0.00
    7  -20    5      3.32      0.00
    8  -20    5     -4.26      0.00
    9  -20    5      1.62      0.00
   10  -20    5      0.94      0.00
   11  -20    5      0.02      0.00
   12  -20    5      3.14      0.00
   13  -20    5      0.96      0.00
   14  -20    5      0.83      0.00
   -2  -19    5      1.46      0.00
   -1  -19    5     -1.80      0.00
    0  -19    5      0.64      0.00
    1  -19    5     -3.11      0.00
    2  -19    5      5.40      0.00
    3  -19    5     -0.86      0.00
    4  -19    5      4.80      0.00
    5  -19    5     -2.68      0.00
    6  -19    5     -0.05      0.00
    7  -19    5     -3.36      0.00
    8  -19    5     -1.23      0.00
    9  -19    5      1.36      0.00
   10  -19    5     -0.09      0.00
   11  -19    5     -5.17      0.00
   12  -19    5      0.17      0.00
   13  -19    5     -2.61      0.00
   14  -19    5      3.83      0.00
   15  -19    5      2.91      0.00
   -4  -18    5      0.13      0.00
   -3  -18    5      0.79      0.00
   -2  -18    5     -1.29      0.00
   -1  -18    5      1.80      0.00
    0  -18    5      6.11      0.00
    1  -18    5      0.08      0.00
    2  -18    5     -1.38      0.00
    3  -18    5     -4.14      0.00
    4  -18    5     -0.73      0.00
    5  -18    5      4.63      0.00
    6  -18    5      4.39      0.00
    7  -18    5     -3.68      0.00
    8  -18    5      2.15      0.00
    9  -18    5     -0.37      0.00
   10  -18    5      2.20      0.00
   11  -18    5      0.50      0.00
   12  -18    5      0.49      0.00
   13  -18    5      4.04      0.00
   14  -18    5     -5.38      0.00
   15  -18    5      0.57      0.00
   16  -18    5     -0.88      0.00
   -5  -17    5     -4.89      0.00
   -4  -17    5      5.89      0.00
   -3  -17    5      1.70      0.00
   -2  -17    5     -0.09      0.00
   -1  -17    5     -1.23      0.00
    0  -17    5      3.30      0.00
    1  -17    5     -2.59      0.00
    2  -17    5      4.42      0.00
    3  -17    5     -4.53      0.00
    4  -17    5     -5.46      0.00
    5  -17    5     -3.64      0.00
    6  -17    5      1.71      0.00
    7  -17    5      0.41      0.00
    8  -17    5      0.49      0.00
    9  -17    5     -0.52      0.00
   10  -17    5      0.29      0.00
   11  -17    5     -4.06      0.00
   12  -17    5      3.09      0.00
   13  -17    5      2.75      0.00
   14  -17    5      3.18      0.00
   15  -17    5     -2.22      0.00
   16  -17    5      2.80      0.00
   17  -17    5     -0.24      0.00
   -6  -16    5     -0.06      0.00
   -5  -16    5      1.63      0.00
   -4  -16    5     -0.66      0.00
   -3  -16    5     -2.01      0.00
   -2  -16    5      2.78      0.00
   -1  -16    5      1.86      0.00
    0  -16    5     -0.71      0.00
    1  -16    5      2.44      0.00
    2  -16    5     -0.46      0.00
    3  -16    5      1.71      0.00
    4  -16    5      3.92      0.00
    5  -16    5     -1.93      0.00
    6  -16    5      3.94      0.00
    7  -16    5     -1.77      0.00
    8  -16    5     -0.01      0.00
    9  -16    5     -0.89      0.00
   10  -16    5      2.88      0.00
   11  -16    5     -0.09      0.00
   12  -16    5     -4.46      0.00
   13  -16    5      5.26      0.00
   14  -16    5     -2.90      0.00
   15  -16    5      0.87      0.00
   16  -16    5     -2.57      0.00
   17  -16    5      0.88      0.00
   -7  -15    5     -6.75      0.00
   -6  -15    5     12.14      0.00
   -5  -15    5     -2.62      0.00
   -4  -15    5     -1.16      0.00
   -3  -15    5      1.97      0.00
   -2  -15    5      3.43      0.00
   -1  -15    5      0.11      0.00
    0  -15    5      0.22      0.00
    1  -15    5     -3.09      0.00
    2  -15    5     -7.07      0.00
    3  -15    5     -1.79      0.00
    4  -15    5     -1.66      0.00
    5  -15    5     -0.73      0.00
    6  -15    5      3.82      0.00
    7  -15    5     12.25      0.00
    8  -15    5      2.30      0.00
    9  -15    5     -5.60      0.00
   10  -15    5      0.76      0.00
   11  -15    5      1.87      0.00
   12  -15    5      2.96      0.00
   13  -15    5      0.91      0.00
   14  -15    5     -1.44      0.00
   15  -15    5     -1.82      0.00
   16  -15    5     -0.28      0.00
   17  -15    5      1.80      0.00
   18  -15    5      2.65      0.00
   -9  -14    5     -3.96      0.00
   -8  -14    5      1.08      0.00
   -7  -14    5     -0.03      0.00
   -6  -14    5     -1.84      0.00
   -5  -14    5      3.52      0.00
   -4  -14    5     -0.74      0.00
   -3  -14    5      5.29      0.00
   -2  -14    5     -0.90      0.00
   -1  -14    5     -8.31      0.00
    0  -14    5     -0.81      0.00
    1  -14    5      1.29      0.00
    2  -14    5      3.80      0.00
    3  -14    5      4.45      0.00
    4  -14    5     -0.04      0.00
    5  -14    5     -2.51      0.00
    6  -14    5      8.24      0.00
    7  -14    5     -3.26      0.00
    8  -14    5     -1.17      0.00
    9  -14    5      0.08      0.00
   10  -14    5      2.03      0.00
   11  -14    5      0.11      0.00
   12  -14    5     -2.86      0.00
   13  -14    5      2.84      0.00
   14  -14    5     -3.69      0.00
   15  -14    5     -0.21      0.00
   16  -14    5     -2.50      0.00
   17  -14    5      3.55      0.00
   18  -14    5      0.48      0.00
  -10  -13    5      1.39      0.00
   -9  -13    5      1.26      0.00
   -8  -13    5      1.26      0.00
   -7  -13    5     -4.03      0.00
   -6  -13    5      2.95      0.00
   -5  -13    5     -2.42      0.00
   -4  -13    5      1.54      0.00
   -3  -13    5     -2.71      0.00
   -2  -13    5     -4.14      0.00
   -1  -13    5      1.81      0.00
    0  -13    5     -4.14      0.00
    1  -13    5     -1.26      0.00
    2  -13    5     -4.59      0.00
    3  -13    5     -9.49      0.00
    4  -13    5      4.39      0.00
    5  -13    5     11.38      0.00
    6  -13    5     -0.74      0.00
    7  -13    5     -0.16      0.00
    8  -13    5      1.61      0.00
    9  -13    5     -0.60      0.00
   10  -13    5     -1.58      0.00
   11  -13    5      2.86      0.00
   12  -13    5     -2.16      0.00
   13  -13    5      2.93      0.00
   14  -13    5     -1.96      0.00
   15  -13    5      2.16      0.00
   16  -13    5      0.56      0.00
   17  -13    5     -0.46      0.00
   18  -13    5      1.41      0.00
  -11  -12    5      0.54      0.00
  -10  -12    5     -0.45      0.00
   -9  -12    5     -0.28      0.00
   -8  -12    5     -0.01      0.00
   -7  -12    5     -2.05      0.00
   -6  -12    5      2.62      0.00
   -5  -12    5      4.34      0.00
   -4  -12    5     -2.20      0.00
   -3  -12    5     -5.43      0.00
   -2  -12    5      4.35      0.00
   -1  -12    5     -4.73      0.00
    0  -12    5     -4.34      0.00
    1  -12    5      5.96      0.00
    2  -12    5     -2.23      0.00
    3  -12    5     -1.33      0.00
    4  -12    5      2.06      0.00
    5  -12    5      0.92      0.00
    6  -12    5     -2.02      0.00
    7  -12    5     -0.60      0.00
    8  -12    5      8.10      0.00
    9  -12    5     -2.48      0.00
   10  -12    5     -5.84      0.00
   11  -12    5      2.99      0.00
   12  -12    5     -4.17      0.00
   13  -12    5     -2.73      0.00
   14  -12    5     -0.85      0.00
   15  -12    5      2.03      0.00
   16  -12    5     -1.17      0.00
   17  -12    5      1.14      0.00
   18  -12    5     -1.42      0.00
  -11  -11    5      0.28      0.00
  -10  -11    5      3.46      0.00
   -9  -11    5     -0.39      0.00
   -8  -11    5     -0.63      0.00
   -7  -11    5     -4.75      0.00
   -6  -11    5     -7.22      0.00
   -5  -11    5     -0.87      0.00
   -4  -11    5      0.32      0.00
   -3  -11    5     -2.89      0.00
   -2  -11    5      1.03      0.00
   -1  -11    5    -11.14      0.00
    0  -11    5     -5.28      0.00
    1  -11    5     -5.54      0.00
    2  -11    5      4.61      0.00
    3  -11    5     -4.10      0.00
    4  -11    5      0.51      0.00
    5  -11    5      3.85      0.00
    6  -11    5     -3.62      0.00
    7  -11    5      6.65      0.00
    8  -11    5     -1.80      0.00
    9  -11    5     -5.19      0.00
   10  -11    5     -0.89      0.00
   11  -11    5      7.99      0.00
   12  -11    5     -8.72      0.00
   13  -11    5      0.72      0.00
   14  -11    5      3.21      0.00
   15  -11    5      4.27      0.00
   16  -11    5     -0.75      0.00
   17  -11    5     -0.36      0.00
   18  -11    5     -1.10      0.00
  -12  -10    5      0.05      0.00
  -11  -10    5      0.30      0.00
  -10  -10    5     -3.27      0.00
   -9  -10    5     -3.50      0.00
   -8  -10    5      5.95      0.00
   -7  -10    5      3.13      0.00
   -6  -10    5      3.27      0.00
   -5  -10    5     -6.30      0.00
   -4  -10    5      2.03      0.00
   -3  -10    5      1.71      0.00
   -2  -10    5     -0.14      0.00
   -1  -10    5     -5.59      0.00
    1  -10    5      1.80      0.00
    2  -10    5      4.23      0.00
    3  -10    5     -7.29      0.00
    4  -10    5      4.02      0.00
    5  -10    5     -5.25      0.00
    6  -10    5     -4.05      0.00
    7  -10    5      4.17      0.00
    8  -10    5      2.60      0.00
    9  -10    5     -3.95      0.00
   10  -10    5     -5.93      0.00
   11  -10    5      3.26      0.00
   12  -10    5     -4.46      0.00
   13  -10    5      0.62      0.00
   14  -10    5     -2.69      0.00
   15  -10    5      2.22      0.00
   16  -10    5     -4.15      0.00
   17  -10    5      0.78      0.00
   18  -10    5     -1.62      0.00
  -13   -9    5      1.68      0.00
  -12   -9    5     -4.66      0.00
  -11   -9    5      0.06      0.00
  -10   -9    5      6.58      0.00
   -9   -9    5     -4.04      0.00
   -8   -9    5     -3.74      0.00
   -7   -9    5     -5.56      0.00
   -6   -9    5      2.46      0.00
   -5   -9    5      3.42      0.00
   -4   -9    5      2.19      0.00
   -3   -9    5    -20.53      0.00
   -2   -9    5     -0.89      0.00
   -1   -9    5    -11.21      0.00
    0   -9    5     -1.02      0.00
    1   -9    5     -8.21      0.00
    2   -9    5     10.94      0.00
    3   -9    5      8.05      0.00
    4   -9    5      0.98      0.00
    5   -9    5     11.36      0.00
    6   -9    5     -0.51      0.00
    7   -9    5     -3.52      0.00
    8   -9    5     -2.10      0.00
    9   -9    5      2.75      0.00
   10   -9    5     -1.13      0.00
   11   -9    5      2.74      0.00
   12   -9    5     -2.86      0.00
   13   -9    5      2.91      0.00
   14   -9    5      3.45      0.00
   15   -9    5      1.66      0.00
   16   -9    5     -2.09      0.00
   17   -9    5      7.39      0.00
   18   -9    5     -0.18      0.00
  -14   -8    5      2.01      0.00
  -13   -8    5     -4.10      0.00
  -12   -8    5     -4.28      0.00
  -11   -8    5     -2.88      0.00
  -10   -8    5     -3.73      0.00
   -9   -8    5     -1.03      0.00
   -8   -8    5      6.66      0.00
   -7   -8    5      4.07      0.00
   -6   -8    5      1.91      0.00
   -5   -8    5      1.39      0.00
   -4   -8    5      9.66      0.00
   -3   -8    5     -9.40      0.00
   -2   -8    5      7.28      0.00
   -1   -8    5      6.46      0.00
    0   -8    5      8.15      0.00
    1   -8    5    -17.72      0.00
    2   -8    5     12.55      0.00
    3   -8    5     -4.81      0.00
    4   -8    5     -1.73      0.00
    5   -8    5      5.43      0.00
    6   -8    5     -3.49      0.00
    7   -8    5     -9.79      0.00
    8   -8    5     -4.39      0.00
    9   -8    5     -1.32      0.00
   10   -8    5     -8.19      0.00
   11   -8    5      5.14      0.00
   12   -8    5      0.87      0.00
   13   -8    5     -0.76      0.00
   14   -8    5     -2.07      0.00
   15   -8    5      1.17      0.00
   16   -8    5     -4.73      0.00
   17   -8    5     -3.98      0.00
   18   -8    5     -0.36      0.00
  -14   -7    5     -6.91      0.00
  -13   -7    5      0.13      0.00
  -12   -7    5      0.93      0.00
  -11   -7    5     -3.17      0.00
  -10   -7    5      5.01      0.00
   -9   -7    5     -0.84      0.00
   -8   -7    5      4.22      0.00
   -7   -7    5     -5.07      0.00
   -6   -7    5     -8.59      0.00
   -5   -7    5    -14.83      0.00
   -4   -7    5      7.63      0.00
   -3   -7    5    -10.73      0.00
   -2   -7    5     -0.73      0.00
   -1   -7    5    -11.06      0.00
    0   -7    5     -5.86      0.00
    1   -7    5      3.63      0.00
    2   -7    5     17.59      0.00
    3   -7    5     17.10      0.00
    4   -7    5     -9.72      0.00
    5   -7    5     15.81      0.00
    6   -7    5     -1.96      0.00
    7   -7    5     -6.33      0.00
    8   -7    5      8.42      0.00
    9   -7    5     11.46      0.00
   10   -7    5     -9.60      0.00
   11   -7    5     -2.25      0.00
   12   -7    5      6.43      0.00
   13   -7    5      1.85      0.00
   14   -7    5     -2.08      0.00
   15   -7    5      4.55      0.00
   16   -7    5      0.58      0.00
   17   -7    5     -0.67      0.00
   18   -7    5      0.93      0.00
  -15   -6    5     -0.73      0.00
  -14   -6    5     -2.53      0.00
  -13   -6    5     -5.45      0.00
  -12   -6    5     -2.25      0.00
  -11   -6    5      0.43      0.00
  -10   -6    5      6.19      0.00
   -9   -6    5      5.51      0.00
   -8   -6    5     -7.40      0.00
   -7   -6    5     11.89      0.00
   -6   -6    5      7.73      0.00
   -5   -6    5      1.08      0.00
   -4   -6    5      0.25      0.00
   -3   -6    5     -6.34      0.00
   -2   -6    5     10.62      0.00
   -1   -6    5     21.99      0.00
    0   -6    5      1.09      0.00
    1   -6    5    -19.29      0.00
    2   -6    5      9.69      0.00
    3   -6    5      3.02      0.00
    4   -6    5    -27.68      0.00
    5   -6    5      6.93      0.00
    6   -6    5    -11.65      0.00
    7   -6    5     -3.16      0.00
    8   -6    5     -7.54      0.00
    9   -6    5      1.68      0.00
   10   -6    5     -6.60      0.00
   11   -6    5      7.44      0.00
   12   -6    5      1.06      0.00
   13   -6    5      1.85      0.00
   14   -6    5     -0.90      0.00
   15   -6    5      0.65      0.00
   16   -6    5     -6.06      0.00
   17   -6    5     -2.19      0.00
   18   -6    5      1.94      0.00
  -16   -5    5      0.24      0.00
  -15   -5    5      1.00      0.00
  -14   -5    5      0.99      0.00
  -13   -5    5     -4.04      0.00
  -12   -5    5      1.59      0.00
  -11   -5    5     -1.77      0.00
  -10   -5    5      2.69      0.00
   -9   -5    5      5.38      0.00
   -8   -5    5     -3.42      0.00
   -7   -5    5     -4.24      0.00
   -6   -5    5     -0.42      0.00
   -5   -5    5     -9.87      0.00
   -4   -5    5    -11.56      0.00
   -3   -5    5     12.27      0.00
   -2   -5    5    -23.86      0.00
   -1   -5    5      0.93      0.00
    0   -5    5     11.59      0.00
    1   -5    5     24.42      0.00
    2   -5    5    -21.65      0.00
    3   -5    5     24.63      0.00
    4   -5    5     -9.85      0.00
    5   -5    5      8.86      0.00
    6   -5    5     -9.56      0.00
    7   -5    5      0.89      0.00
    8   -5    5     -0.14      0.00
    9   -5    5      9.29      0.00
   10   -5    5     -4.32      0.00
   11   -5    5     -1.39      0.00
   12   -5    5     -2.33      0.00
   13   -5    5      0.14      0.00
   14   -5    5     -2.04      0.00
   15   -5    5      2.87      0.00
   16   -5    5      0.39      0.00
   17   -5    5      0.31      0.00
   18   -5    5     -1.68      0.00
  -16   -4    5      6.56      0.00
  -15   -4    5     -6.43      0.00
  -14   -4    5     -5.80      0.00
  -13   -4    5      4.99      0.00
  -12   -4    5      5.28      0.00
  -11   -4    5      1.33      0.00
  -10   -4    5     -3.10      0.00
   -9   -4    5      4.43      0.00
   -8   -4    5     -6.03      0.00
   -7   -4    5     15.54      0.00
   -6   -4    5     -3.49      0.00
   -5   -4    5      9.08      0.00
   -4   -4    5      8.60      0.00
   -3   -4    5     26.16      0.00
   -2   -4    5    -22.07      0.00
   -1   -4    5     -6.23      0.00
    0   -4    5     -7.25      0.00
    1   -4    5     15.99      0.00
    2   -4    5    -19.32      0.00
    3   -4    5     21.39      0.00
    4   -4    5    -42.78      0.00
    5   -4    5     12.28      0.00
    6   -4    5    -11.80      0.00
    7   -4    5     10.80      0.00
    8   -4    5    -23.20      0.00
    9   -4    5     11.93      0.00
   10   -4    5     -2.23      0.00
   11   -4    5      4.32      0.00
   12   -4    5      0.44      0.00
   13   -4    5      0.14      0.00
   14   -4    5     -5.47      0.00
   15   -4    5     -0.39      0.00
   16   -4    5     -0.37      0.00
   17   -4    5      2.25      0.00
  -17   -3    5     -3.50      0.00
  -16   -3    5     -1.92      0.00
  -15   -3    5      7.35      0.00
  -14   -3    5      0.70      0.00
  -13   -3    5     -3.89      0.00
  -12   -3    5      4.36      0.00
  -11   -3    5      6.15      0.00
  -10   -3    5      0.99      0.00
   -9   -3    5      5.78      0.00
   -8   -3    5    -10.15      0.00
   -7   -3    5     -2.87      0.00
   -6   -3    5     -4.53      0.00
   -5   -3    5      1.66      0.00
   -4   -3    5    -31.92      0.00
   -3   -3    5     32.82      0.00
   -2   -3    5    -31.93      0.00
   -1   -3    5     32.45      0.00
    0   -3    5      1.87      0.00
    1   -3    5    -10.30      0.00
    2   -3    5    -29.02      0.00
    3   -3    5     58.51      0.00
    4   -3    5    -16.46      0.00
    5   -3    5     -1.45      0.00
    6   -3    5     -1.88      0.00
    7   -3    5     19.72      0.00
    8   -3    5     -7.93      0.00
    9   -3    5      9.79      0.00
   10   -3    5     -9.46      0.00
   11   -3    5     -2.66      0.00
   12   -3    5     -3.33      0.00
   13   -3    5      2.18      0.00
   14   -3    5     -2.32      0.00
   15   -3    5      1.22      0.00
   16   -3    5     -3.11      0.00
   17   -3    5     -0.19      0.00
  -17   -2    5      1.69      0.00
  -16   -2    5     -1.09      0.00
  -15   -2    5     -2.82      0.00
  -14   -2    5      4.87      0.00
  -13   -2    5      2.68      0.00
  -12   -2    5     -6.97      0.00
  -11   -2    5      2.11      0.00
  -10   -2    5      1.78      0.00
   -9   -2    5     11.11      0.00
   -8   -2    5     -1.73      0.00
   -7   -2    5      5.94      0.00
   -6   -2    5     -8.36      0.00
   -5   -2    5     15.63      0.00
   -4   -2    5      4.82      0.00
   -3   -2    5     24.71      0.00
   -2   -2    5    -31.83      0.00
   -1   -2    5    -19.41      0.00
    0   -2    5    -22.55      0.00
    1   -2    5     34.17      0.00
    2   -2    5    -52.51      0.00
    3   -2    5     17.35      0.00
    4   -2    5    -30.30      0.00
    5   -2    5     23.70      0.00
    6   -2    5    -11.79      0.00
    7   -2    5     11.02      0.00
    8   -2    5    -20.31      0.00
    9   -2    5     19.25      0.00
   10   -2    5     -2.35      0.00
   11   -2    5     -0.78      0.00
   12   -2    5     -0.59      0.00
   13   -2    5      1.93      0.00
   14   -2    5     -1.30      0.00
   15   -2    5      4.82      0.00
   16   -2    5      2.56      0.00
   17   -2    5      1.61      0.00
  -18   -1    5     -2.88      0.00
  -17   -1    5      1.13      0.00
  -16   -1    5     -0.29      0.00
  -15   -1    5      5.95      0.00
  -14   -1    5      0.87      0.00
  -13   -1    5      0.47      0.00
  -12   -1    5      8.82      0.00
  -11   -1    5     -7.22      0.00
  -10   -1    5     -3.95      0.00
   -9   -1    5     -1.07      0.00
   -8   -1    5    -13.39      0.00
   -7   -1    5      1.76      0.00
   -6   -1    5      0.03      0.00
   -5   -1    5     13.53      0.00
   -4   -1    5    -45.93      0.00
   -3   -1    5      4.61      0.00
   -2   -1    5     -3.92      0.00
   -1   -1    5     16.74      0.00
    0   -1    5      8.76      0.00
    1   -1    5     14.52      0.00
    2   -1    5     -0.92      0.00
    3   -1    5     15.55      0.00
    4   -1    5    -15.82      0.00
    5   -1    5     13.26      0.00
    6   -1    5      8.61      0.00
    7   -1    5     16.25      0.00
    8   -1    5    -14.07      0.00
    9   -1    5      4.85      0.00
   10   -1    5     -6.93      0.00
   11   -1    5     -0.82      0.00
   12   -1    5     -5.15      0.00
   13   -1    5      0.86      0.00
   14   -1    5     -0.71      0.00
   15   -1    5     -0.49      0.00
   16   -1    5     -1.48      0.00
  -19    0    5      2.49      0.00
  -18    0    5     -1.33      0.00
  -17    0    5     -3.23      0.00
  -16    0    5     -0.23      0.00
  -15    0    5      1.55      0.00
  -14    0    5     -2.54      0.00
  -13    0    5     -6.15      0.00
  -12    0    5      6.21      0.00
  -11    0    5      3.42      0.00
  -10    0    5     -5.41      0.00
   -9    0    5      3.62      0.00
   -8    0    5      6.03      0.00
   -7    0    5     -8.94      0.00
   -6    0    5     19.30      0.00
   -5    0    5     14.75      0.00
   -4    0    5    -32.24      0.00
   -3    0    5     13.79      0.00
   -2    0    5    -18.71      0.00
   -1    0    5    -32.56      0.00
    0    0    5    -36.42      0.00
    1    0    5     31.35      0.00
    2    0    5    -38.58      0.00
    3    0    5     25.12      0.00
    4    0    5      3.39      0.00
    5    0    5     -2.37      0.00
    6    0    5    -19.84      0.00
    7    0    5     12.36      0.00
    8    0    5     -9.64      0.00
    9    0    5      7.22      0.00
   10    0    5     -3.98      0.00
   11    0    5     -0.74      0.00
   12    0    5      1.09      0.00
   13    0    5      3.90      0.00
   14    0    5     -0.01      0.00
   15    0    5      2.98      0.00
   16    0    5     -2.19      0.00
  -19    1    5      2.52      0.00
  -18    1    5     -0.38      0.00
  -17    1    5      3.31      0.00
  -16    1    5      3.14      0.00
  -15    1    5      0.39      0.00
  -14    1    5      2.90      0.00
  -13    1    5     -0.17      0.00
  -12    1    5      7.50      0.00
  -11    1    5     -7.33      0.00
  -10    1    5     -4.57      0.00
   -9    1    5      3.32      0.00
   -8    1    5    -12.78      0.00
   -7    1    5     -4.13      0.00
   -6    1    5      1.37      0.00
   -5    1    5      3.68      0.00
   -4    1    5    -21.81      0.00
   -3    1    5    -27.54      0.00
   -2    1    5     18.71      0.00
   -1    1    5    -18.20      0.00
    0    1    5     32.02      0.00
    1    1    5     25.00      0.00
    2    1    5     -4.81      0.00
    3    1    5     -2.80      0.00
    4    1    5     12.44      0.00
    5    1    5      7.14      0.00
    6    1    5     -8.22      0.00
    7    1    5     12.15      0.00
    8    1    5     -9.84      0.00
    9    1    5     -0.30      0.00
   10    1    5     -1.40      0.00
   11    1    5     -2.33      0.00
   12    1    5     -6.57      0.00
   13    1    5      1.79      0.00
   14    1    5     -0.24      0.00
   15    1    5     -1.61      0.00
  -19    2    5     -4.28      0.00
  -18    2    5      0.25      0.00
  -17    2    5      5.02      0.00
  -16    2    5     -2.33      0.00
  -15    2    5     -2.97      0.00
  -14    2    5      1.03      0.00
  -13    2    5     -6.34      0.00
  -12    2    5      6.22      0.00
  -11    2    5     -4.94      0.00
  -10    2    5      1.16      0.00
   -9    2    5      3.16      0.00
   -8    2    5     27.18      0.00
   -7    2    5     -8.28      0.00
   -6    2    5     -9.44      0.00
   -5    2    5      8.96      0.00
   -4    2    5    -26.65      0.00
   -3    2    5     22.26      0.00
   -2    2    5    -25.36      0.00
   -1    2    5    -30.60      0.00
    0    2    5     -5.99      0.00
    1    2    5     17.97      0.00
    2    2    5    -19.46      0.00
    3    2    5      4.13      0.00
    4    2    5      2.08      0.00
    5    2    5     -5.70      0.00
    6    2    5     -3.47      0.00
    7    2    5      5.47      0.00
    8    2    5     -8.81      0.00
    9    2    5     -1.51      0.00
   10    2    5      0.63      0.00
   11    2    5      4.25      0.00
   12    2    5     -0.51      0.00
   13    2    5      1.71      0.00
   14    2    5      0.58      0.00
   15    2    5      1.30      0.00
  -20    3    5      0.25      0.00
  -19    3    5      2.46      0.00
  -18    3    5      2.09      0.00
  -17    3    5      0.93      0.00
  -16    3    5      0.54      0.00
  -15    3    5      0.93      0.00
  -14    3    5      3.56      0.00
  -13    3    5     -5.76      0.00
  -12    3    5     -5.82      0.00
  -11    3    5     12.52      0.00
  -10    3    5     -6.88      0.00
   -9    3    5     -6.19      0.00
   -8    3    5      1.63      0.00
   -7    3    5      3.01      0.00
   -6    3    5    -10.41      0.00
   -5    3    5     -8.26      0.00
   -4    3    5    -26.80      0.00
   -3    3    5    -10.12      0.00
   -2    3    5     50.90      0.00
   -1    3    5      7.11      0.00
    0    3    5    -14.47      0.00
    1    3    5     19.84      0.00
    2    3    5      8.74      0.00
    3    3    5     -4.65      0.00
    4    3    5      3.94      0.00
    5    3    5     -8.47      0.00
    6    3    5     -7.38      0.00
    7    3    5      9.80      0.00
    8    3    5     -1.32      0.00
    9    3    5     -4.55      0.00
   10    3    5     -6.68      0.00
   11    3    5     -5.43      0.00
   12    3    5     -0.30      0.00
   13    3    5      1.53      0.00
   14    3    5     -2.00      0.00
  -20    4    5     -2.16      0.00
  -19    4    5     -0.41      0.00
  -18    4    5      0.18      0.00
  -17    4    5     -6.17      0.00
  -16    4    5     -4.55      0.00
  -15    4    5      2.43      0.00
  -14    4    5      4.17      0.00
  -13    4    5     -2.08      0.00
  -12    4    5      2.18      0.00
  -11    4    5     -3.47      0.00
  -10    4    5      2.12      0.00
   -9    4    5      8.75      0.00
   -8    4    5      3.12      0.00
   -7    4    5     -4.78      0.00
   -6    4    5    -16.80      0.00
   -5    4    5     33.06      0.00
   -4    4    5    -25.80      0.00
   -3    4    5    -19.47      0.00
   -2    4    5    -19.22      0.00
   -1    4    5     32.25      0.00
    0    4    5     -5.30      0.00
    1    4    5      3.34      0.00
    2    4    5    -15.09      0.00
    3    4    5     -7.37      0.00
    4    4    5      3.15      0.00
    5    4    5      8.41      0.00
    6    4    5     -0.19      0.00
    7    4    5     -2.87      0.00
    8    4    5     -1.83      0.00
    9    4    5      1.79      0.00
   10    4    5      4.49      0.00
   11    4    5      2.06      0.00
   12    4    5      1.48      0.00
   13    4    5      0.23      0.00
   14    4    5      1.10      0.00
  -20    5    5      0.57      0.00
  -19    5    5     -0.01      0.00
  -18    5    5      1.58      0.00
  -17    5    5      2.04      0.00
  -16    5    5     -1.07      0.00
  -15    5    5      0.07      0.00
  -14    5    5     -4.37      0.00
  -13    5    5      0.67      0.00
  -12    5    5     -2.82      0.00
  -11    5    5     15.18      0.00
  -10    5    5     -9.39      0.00
   -9    5    5      6.36      0.00
   -8    5    5      2.38      0.00
   -7    5    5     -5.89      0.00
   -6    5    5    -36.98      0.00
   -5    5    5     21.10      0.00
   -4    5    5     -9.25      0.00
   -3    5    5     21.12      0.00
   -2    5    5      6.60      0.00
   -1    5    5      0.78      0.00
    0    5    5    -29.97      0.00
    1    5    5     30.47      0.00
    2    5    5      4.65      0.00
    3    5    5     -8.03      0.00
    4    5    5     -1.51      0.00
    5    5    5      0.14      0.00
    6    5    5      1.76      0.00
    7    5    5      1.08      0.00
    8    5    5     -3.86      0.00
    9    5    5     -6.32      0.00
   10    5    5     -0.12      0.00
   11    5    5      0.11      0.00
   12    5    5     -1.20      0.00
   13    5    5      0.20      0.00
  -21    6    5     -0.43      0.00
  -20    6    5      0.85      0.00
  -19    6    5     -5.14      0.00
  -18    6    5     -1.84      0.00
  -17    6    5      5.25      0.00
  -16    6    5     -1.45      0.00
  -15    6    5     -1.71      0.00
  -14    6    5     -1.74      0.00
  -13    6    5      0.26      0.00
  -12    6    5     -4.40      0.00
  -11    6    5     10.32      0.00
  -10    6    5     -9.38      0.00
   -9    6    5      3.15      0.00
   -8    6    5    -19.62      0.00
   -7    6    5     19.98      0.00
   -6    6    5     -9.52      0.00
   -5    6    5     30.92      0.00
   -4    6    5    -30.35      0.00
   -3    6    5     -4.69      0.00
   -2    6    5     -5.04      0.00
   -1    6    5     29.46      0.00
    0    6    5    -32.68      0.00
    1    6    5      9.75      0.00
    2    6    5      0.16      0.00
    3    6    5     -5.90      0.00
    4    6    5     -5.77      0.00
    5    6    5      5.41      0.00
    6    6    5     -2.45      0.00
    7    6    5      5.18      0.00
    8    6    5      2.61      0.00
    9    6    5     -5.18      0.00
   10    6    5      3.24      0.00
   11    6    5      0.48      0.00
   12    6    5     -2.58      0.00
  -21    7    5      0.41      0.00
  -20    7    5      1.90      0.00
  -19    7    5     -1.73      0.00
  -18    7    5     -0.69      0.00
  -17    7    5      4.54      0.00
  -16    7    5     -0.43      0.00
  -15    7    5      1.63      0.00
  -14    7    5     -0.90      0.00
  -13    7    5      7.72      0.00
  -12    7    5     -6.17      0.00
  -11    7    5     13.96      0.00
  -10    7    5     -4.96      0.00
   -9    7    5      4.57      0.00
   -8    7    5    -10.67      0.00
   -7    7    5     10.25      0.00
   -6    7    5    -26.97      0.00
   -5    7    5     24.90      0.00
   -4    7    5    -10.16      0.00
   -3    7    5     21.85      0.00
   -2    7    5    -18.88      0.00
   -1    7    5     20.02      0.00
    0    7    5    -16.27      0.00
    1    7    5      6.06      0.00
    2    7    5    -11.31      0.00
    3    7    5      4.09      0.00
    4    7    5      8.24      0.00
    5    7    5      0.97      0.00
    6    7    5     -5.65      0.00
    7    7    5     -6.19      0.00
    8    7    5     -1.79      0.00
    9    7    5     -3.50      0.00
   10    7    5     -1.53      0.00
   11    7    5      0.34      0.00
   12    7    5     -2.72      0.00
  -21    8    5      4.20      0.00
  -20    8    5      2.17      0.00
  -19    8    5      1.18      0.00
  -18    8    5     -1.68      0.00
  -17    8    5      1.95      0.00
  -16    8    5     -0.74      0.00
  -15    8    5      0.66      0.00
  -14    8    5     -2.25      0.00
  -13    8    5      3.59      0.00
  -12    8    5    -12.74      0.00
  -11    8    5     10.55      0.00
  -10    8    5     -2.45      0.00
   -9    8    5     -0.62      0.00
   -8    8    5     -9.05      0.00
   -7    8    5     27.59      0.00
   -6    8    5    -22.32      0.00
   -5    8    5      9.98      0.00
   -4    8    5     -2.35      0.00
   -3    8    5      5.82      0.00
   -2    8    5    -22.71      0.00
   -1    8    5     11.39      0.00
    0    8    5    -16.43      0.00
    1    8    5     18.43      0.00
    2    8    5      0.52      0.00
    3    8    5     -6.81      0.00
    4    8    5     -5.68      0.00
    5    8    5      3.63      0.00
    6    8    5     -5.61      0.00
    7    8    5      6.27      0.00
    8    8    5      2.74      0.00
    9    8    5     -1.99      0.00
   10    8    5     -1.06      0.00
   11    8    5     -0.13      0.00
  -21    9    5     -0.21      0.00
  -20    9    5      1.38      0.00
  -19    9    5      2.17      0.00
  -18    9    5      0.04      0.00
  -17    9    5      3.29      0.00
  -16    9    5     -4.09      0.00
  -15    9    5      2.90      0.00
  -14    9    5      3.31      0.00
  -13    9    5      8.79      0.00
  -12    9    5     -5.20      0.00
  -11    9    5      7.22      0.00
  -10    9    5      0.12      0.00
   -9    9    5      0.98      0.00
   -8    9    5     -5.91      0.00
   -7    9    5     20.87      0.00
   -6    9    5    -17.82      0.00
   -5    9    5      7.40      0.00
   -4    9    5     -1.34      0.00
   -3    9    5     13.18      0.00
   -2    9    5    -14.92      0.00
   -1    9    5     15.73      0.00
    0    9    5    -13.43      0.00
    1    9    5    -10.39      0.00
    2    9    5      4.36      0.00
    3    9    5     -0.01      0.00
    4    9    5     -4.17      0.00
    5    9    5     -1.97      0.00
    6    9    5     -4.28      0.00
    7    9    5     -2.42      0.00
    8    9    5      1.90      0.00
    9    9    5     -4.38      0.00
   10    9    5     -3.80      0.00
  -21   10    5     -0.30      0.00
  -20   10    5     -2.27      0.00
  -19   10    5      2.68      0.00
  -18   10    5      1.66      0.00
  -17   10    5     -0.26      0.00
  -16   10    5      0.72      0.00
  -15   10    5     -1.85      0.00
  -14   10    5     -3.43      0.00
  -13   10    5      5.56      0.00
  -12   10    5     -6.17      0.00
  -11   10    5      4.97      0.00
  -10   10    5      0.81      0.00
   -9   10    5     -0.71      0.00
   -8   10    5     -1.53      0.00
   -7   10    5      5.57      0.00
   -6   10    5     -5.14      0.00
   -5   10    5      4.63      0.00
   -4   10    5      5.05      0.00
   -3   10    5     -0.02      0.00
   -2   10    5    -14.61      0.00
   -1   10    5      9.20      0.00
    0   10    5     -0.60      0.00
    1   10    5     -1.26      0.00
    2   10    5     -3.17      0.00
    3   10    5      1.25      0.00
    4   10    5     -0.12      0.00
    5   10    5      2.58      0.00
    6   10    5     -2.61      0.00
    7   10    5     -0.55      0.00
    8   10    5      1.04      0.00
    9   10    5     -1.81      0.00
  -21   11    5     -0.79      0.00
  -20   11    5      0.08      0.00
  -19   11    5      0.71      0.00
  -18   11    5     -4.64      0.00
  -17   11    5     -0.96      0.00
  -16   11    5      2.10      0.00
  -15   11    5      0.69      0.00
  -14   11    5      1.11      0.00
  -13   11    5      5.73      0.00
  -12   11    5     -1.40      0.00
  -11   11    5      0.65      0.00
  -10   11    5     -0.54      0.00
   -9   11    5      2.40      0.00
   -8   11    5     -2.97      0.00
   -7   11    5      2.48      0.00
   -6   11    5      0.71      0.00
   -5   11    5      2.19      0.00
   -4   11    5      1.47      0.00
   -3   11    5     -2.09      0.00
   -2   11    5     -5.91      0.00
   -1   11    5     -2.03      0.00
    0   11    5     -0.08      0.00
    1   11    5     -3.43      0.00
    2   11    5      1.77      0.00
    3   11    5     -7.04      0.00
    4   11    5     -2.77      0.00
    5   11    5      1.68      0.00
    6   11    5      4.42      0.00
    7   11    5     -0.49      0.00
    8   11    5     -0.22      0.00
    9   11    5     -1.11      0.00
  -21   12    5      0.35      0.00
  -20   12    5      0.75      0.00
  -19   12    5     -0.24      0.00
  -18   12    5     -0.72      0.00
  -17   12    5      0.21      0.00
  -16   12    5      0.55      0.00
  -15   12    5     -0.16      0.00
  -14   12    5     -3.62      0.00
  -13   12    5      1.25      0.00
  -12   12    5     -1.72      0.00
  -11   12    5     -1.21      0.00
  -10   12    5      1.49      0.00
   -9   12    5      4.46      0.00
   -8   12    5     -0.19      0.00
   -7   12    5     -0.07      0.00
   -6   12    5      7.99      0.00
   -5   12    5     -8.11      0.00
   -4   12    5      4.05      0.00
   -3   12    5      3.74      0.00
   -2   12    5     -4.48      0.00
   -1   12    5     -1.31      0.00
    0   12    5     -5.73      0.00
    1   12    5     -5.08      0.00
    2   12    5      0.41      0.00
    3   12    5      8.08      0.00
    4   12    5      1.31      0.00
    5   12    5     -1.99      0.00
    6   12    5     -1.84      0.00
    7   12    5     -3.41      0.00
    8   12    5      5.54      0.00
  -21   13    5     -1.23      0.00
  -20   13    5     -2.55      0.00
  -19   13    5      1.37      0.00
  -18   13    5     -1.21      0.00
  -17   13    5      0.69      0.00
  -16   13    5     -0.46      0.00
  -15   13    5      1.19      0.00
  -14   13    5     -4.31      0.00
  -13   13    5      5.18      0.00
  -12   13    5      0.24      0.00
  -11   13    5      2.08      0.00
  -10   13    5      2.12      0.00
   -9   13    5     -3.70      0.00
   -8   13    5     -5.04      0.00
   -7   13    5      6.36      0.00
   -6   13    5      9.43      0.00
   -5   13    5     -7.00      0.00
   -4   13    5      3.94      0.00
   -3   13    5     -2.57      0.00
   -2   13    5     -5.79      0.00
   -1   13    5      5.02      0.00
    0   13    5      3.67      0.00
    1   13    5     -0.10      0.00
    2   13    5     -0.82      0.00
    3   13    5     -6.63      0.00
    4   13    5      1.85      0.00
    5   13    5      4.66      0.00
    6   13    5      0.05      0.00
    7   13    5      0.02      0.00
  -21   14    5     -1.17      0.00
  -20   14    5      0.21      0.00
  -19   14    5     -0.69      0.00
  -18   14    5     -0.98      0.00
  -17   14    5      0.28      0.00
  -16   14    5      0.98      0.00
  -15   14    5      2.28      0.00
  -14   14    5     -4.08      0.00
  -13   14    5      1.71      0.00
  -12   14    5     -3.48      0.00
  -11   14    5      1.72      0.00
  -10   14    5     -0.85      0.00
   -9   14    5      6.40      0.00
   -8   14    5      3.04      0.00
   -7   14    5     -0.20      0.00
   -6   14    5      4.23      0.00
   -5   14    5     -0.04      0.00
   -4   14    5     -0.67      0.00
   -3   14    5      6.56      0.00
   -2   14    5     -9.06      0.00
   -1   14    5     -6.74      0.00
    0   14    5      0.46      0.00
    1   14    5      3.68      0.00
    2   14    5     -3.23      0.00
    3   14    5      0.98      0.00
    4   14    5     -1.19      0.00
    5   14    5     -1.75      0.00
    6   14    5      7.08      0.00
  -20   15    5     -2.20      0.00
  -19   15    5      1.59      0.00
  -18   15    5     -2.14      0.00
  -17   15    5      0.02      0.00
  -16   15    5     -4.19      0.00
  -15   15    5      3.99      0.00
  -14   15    5      2.13      0.00
  -13   15    5      6.51      0.00
  -12   15    5      0.85      0.00
  -11   15    5      4.00      0.00
  -10   15    5     -4.35      0.00
   -9   15    5      1.71      0.00
   -8   15    5     -0.29      0.00
   -7   15    5      0.04      0.00
   -6   15    5      7.33      0.00
   -5   15    5     -0.95      0.00
   -4   15    5     -1.99      0.00
   -3   15    5      8.67      0.00
   -2   15    5      1.19      0.00
   -1   15    5      0.41      0.00
    0   15    5     -1.04      0.00
    1   15    5     -2.45      0.00
    2   15    5     -1.83      0.00
    3   15    5      1.16      0.00
    4   15    5      1.61      0.00
    5   15    5      4.70      0.00
  -20   16    5      0.56      0.00
  -19   16    5      0.70      0.00
  -18   16    5     -0.60      0.00
  -17   16    5     -0.26      0.00
  -16   16    5     -2.14      0.00
  -15   16    5     -0.32      0.00
  -14   16    5     -3.49      0.00
  -13   16    5      0.61      0.00
  -12   16    5     -1.20      0.00
  -11   16    5      4.95      0.00
  -10   16    5     -2.16      0.00
   -9   16    5      6.98      0.00
   -8   16    5      2.01      0.00
   -7   16    5      0.72      0.00
   -6   16    5      6.03      0.00
   -5   16    5      4.92      0.00
   -4   16    5     -9.77      0.00
   -3   16    5     -0.62      0.00
   -2   16    5     -7.21      0.00
   -1   16    5     -1.67      0.00
    0   16    5      3.66      0.00
    1   16    5      1.71      0.00
    2   16    5     -0.47      0.00
    3   16    5     -2.84      0.00
  -20   17    5     -2.86      0.00
  -19   17    5      2.51      0.00
  -18   17    5     -0.85      0.00
  -17   17    5     -1.12      0.00
  -16   17    5      0.03      0.00
  -15   17    5      5.01      0.00
  -14   17    5      0.00      0.00
  -13   17    5      1.97      0.00
  -12   17    5      1.62      0.00
  -11   17    5     -1.01      0.00
  -10   17    5     -1.17      0.00
   -9   17    5      1.81      0.00
   -8   17    5      2.14      0.00
   -7   17    5     -4.42      0.00
   -6   17    5      1.43      0.00
   -5   17    5      2.17      0.00
   -4   17    5     -0.29      0.00
   -3   17    5      3.72      0.00
   -2   17    5      1.23      0.00
   -1   17    5     -5.84      0.00
    0   17    5      1.82      0.00
    1   17    5      0.58      0.00
    2   17    5     -1.51      0.00
  -19   18    5      0.05      0.00
  -18   18    5      2.33      0.00
  -17   18    5      1.13      0.00
  -16   18    5      1.35      0.00
  -15   18    5     -0.67      0.00
  -14   18    5     -4.95      0.00
  -13   18    5      0.62      0.00
  -12   18    5      0.63      0.00
  -11   18    5      2.92      0.00
  -10   18    5     -3.62      0.00
   -9   18    5     -0.30      0.00
   -8   18    5      4.10      0.00
   -7   18    5     -1.50      0.00
   -6   18    5      0.83      0.00
   -5   18    5      1.68      0.00
   -4   18    5     -2.00      0.00
   -3   18    5      0.59      0.00
   -2   18    5      1.70      0.00
   -1   18    5      1.42      0.00
    0   18    5     -1.13      0.00
    1   18    5     -1.28      0.00
  -19   19    5     -0.25      0.00
  -18   19    5     -1.28      0.00
  -17   19    5     -1.25      0.00
  -16   19    5      1.24      0.00
  -15   19    5     -0.54      0.00
  -14   19    5      3.27      0.00
  -13   19    5      2.95      0.00
  -12   19    5      0.52      0.00
  -11   19    5     -4.59      0.00
  -10   19    5     -1.76      0.00
   -9   19    5     -1.27      0.00
   -8   19    5      3.32      0.00
   -7   19    5     -1.68      0.00
   -6   19    5     -2.15      0.00
   -5   19    5     -0.56      0.00
   -4   19    5      4.68      0.00
   -3   19    5     -1.08      0.00
   -2   19    5     -1.32      0.00
   -1   19    5     -1.65      0.00
  -17   20    5     -1.65      0.00
  -16   20    5      0.29      0.00
  -15   20    5      0.07      0.00
  -14   20    5     -3.92      0.00
  -13   20    5     -0.13      0.00
  -12   20    5     -3.59      0.00
  -11   20    5     -2.01      0.00
  -10   20    5      3.90      0.00
   -9   20    5      0.22      0.00
   -8   20    5      1.84      0.00
   -7   20    5      1.20      0.00
   -6   20    5      1.73      0.00
   -5   20    5      2.79      0.00
   -4   20    5      2.75      0.00
   -3   20    5     -0.32      0.00
  -16   21    5     -0.13      0.00
  -15   21    5     -1.28      0.00
  -14   21    5      1.83      0.00
  -13   21    5     -2.20      0.00
  -12   21    5      0.05      0.00
  -11   21    5     -0.18      0.00
  -10   21    5     -0.66      0.00
   -9   21    5      1.06      0.00
   -8   21    5      0.56      0.00
   -7   21    5     -0.24      0.00
   -6   21    5      1.84      0.00
   -5   21    5      1.08      0.00
  -13   22    5     -0.37      0.00
  -12   22    5     -1.82      0.00
  -11   22    5     -0.82      0.00
  -10   22    5      3.53      0.00
   -9   22    5      1.15      0.00
    7  -22    6     -0.39      0.00
    8  -22    6     -2.79      0.00
    9  -22    6      1.12      0.00
    3  -21    6      2.86      0.00
    4  -21    6      0.67      0.00
    5  -21    6     -3.22      0.00
    6  -21    6     -5.47      0.00
    7  -21    6      0.90      0.00
    8  -21    6     -1.92      0.00
    9  -21    6      9.12      0.00
   10  -21    6      0.79      0.00
   11  -21    6     -1.01      0.00
   12  -21    6     -0.63      0.00
    0  -20    6      1.20      0.00
    1  -20    6     -1.47      0.00
    2  -20    6      2.57      0.00
    3  -20    6     -0.96      0.00
    4  -20    6     -4.45      0.00
    5  -20    6      1.21      0.00
    6  -20    6      7.40      0.00
    7  -20    6     -1.07      0.00
    8  -20    6     -4.44      0.00
    9  -20    6      0.66      0.00
   10  -20    6      1.58      0.00
   11  -20    6     -2.35      0.00
   12  -20    6     -1.83      0.00
   13  -20    6     -3.87      0.00
   14  -20    6      0.51      0.00
   -2  -19    6     -3.24      0.00
   -1  -19    6     -1.35      0.00
    0  -19    6      1.59      0.00
    1  -19    6      6.06      0.00
    2  -19    6     -1.17      0.00
    3  -19    6      4.45      0.00
    4  -19    6     -2.85      0.00
    5  -19    6     -3.90      0.00
    6  -19    6     -1.88      0.00
    7  -19    6      4.52      0.00
    8  -19    6     -0.32      0.00
    9  -19    6     -0.56      0.00
   10  -19    6      1.89      0.00
   11  -19    6     -2.06      0.00
   12  -19    6      1.16      0.00
   13  -19    6      2.19      0.00
   14  -19    6      1.83      0.00
   15  -19    6     -2.34      0.00
   -4  -18    6     -0.50      0.00
   -3  -18    6      1.41      0.00
   -2  -18    6      3.56      0.00
   -1  -18    6      0.29      0.00
    0  -18    6     -0.20      0.00
    1  -18    6     -3.52      0.00
    2  -18    6     -0.91      0.00
    3  -18    6     -1.07      0.00
    4  -18    6      8.28      0.00
    5  -18    6      0.33      0.00
    6  -18    6     -3.10      0.00
    7  -18    6      2.51      0.00
    8  -18    6     -1.14      0.00
    9  -18    6     -6.22      0.00
   10  -18    6      1.64      0.00
   11  -18    6     -8.34      0.00
   12  -18    6     -1.28      0.00
   13  -18    6     -8.17      0.00
   14  -18    6      2.52      0.00
   15  -18    6     -5.43      0.00
   16  -18    6      1.99      0.00
   -5  -17    6      4.18      0.00
   -4  -17    6     -1.08      0.00
   -3  -17    6     -2.20      0.00
   -2  -17    6      2.87      0.00
   -1  -17    6      1.64      0.00
    0  -17    6     -1.90      0.00
    1  -17    6      5.00      0.00
    2  -17    6     -0.31      0.00
    3  -17    6     -5.29      0.00
    4  -17    6      6.03      0.00
    5  -17    6      1.77      0.00
    6  -17    6      2.76      0.00
    7  -17    6     -0.73      0.00
    8  -17    6     -1.91      0.00
    9  -17    6     -4.36      0.00
   10  -17    6      2.01      0.00
   11  -17    6      3.11      0.00
   12  -17    6     -1.81      0.00
   13  -17    6      1.50      0.00
   14  -17    6     -2.04      0.00
   15  -17    6     -2.10      0.00
   16  -17    6      0.42      0.00
   17  -17    6     -2.63      0.00
   -6  -16    6      3.46      0.00
   -5  -16    6     -1.83      0.00
   -4  -16    6     -0.95      0.00
   -3  -16    6      0.11      0.00
   -2  -16    6      2.11      0.00
   -1  -16    6      1.70      0.00
    0  -16    6     -1.08      0.00
    1  -16    6     -0.23      0.00
    2  -16    6     -1.39      0.00
    3  -16    6     -1.50      0.00
    4  -16    6     -1.17      0.00
    5  -16    6     -4.17      0.00
    6  -16    6     -0.48      0.00
    7  -16    6     -2.49      0.00
    8  -16    6      1.26      0.00
    9  -16    6     -4.31      0.00
   10  -16    6     -1.74      0.00
   11  -16    6     -5.00      0.00
   12  -16    6      1.19      0.00
   13  -16    6     -2.95      0.00
   14  -16    6      1.64      0.00
   15  -16    6     -3.21      0.00
   16  -16    6     -0.02      0.00
   17  -16    6     -1.74      0.00
   -8  -15    6     -0.59      0.00
   -7  -15    6      4.24      0.00
   -6  -15    6     -1.04      0.00
   -5  -15    6     -3.56      0.00
   -4  -15    6      1.85      0.00
   -3  -15    6     -1.53      0.00
   -2  -15    6      0.68      0.00
   -1  -15    6     -5.56      0.00
    0  -15    6     -5.29      0.00
    1  -15    6     -4.86      0.00
    2  -15    6      5.07      0.00
    3  -15    6      1.35      0.00
    4  -15    6      9.28      0.00
    5  -15    6      0.47      0.00
    6  -15    6      7.86      0.00
    7  -15    6     -5.59      0.00
    8  -15    6     -7.88      0.00
    9  -15    6     -3.87      0.00
   10  -15    6      2.65      0.00
   11  -15    6      3.51      0.00
   12  -15    6     -3.17      0.00
   13  -15    6     -2.18      0.00
   14  -15    6      1.32      0.00
   15  -15    6      0.46      0.00
   16  -15    6     -0.27      0.00
   17  -15    6      1.62      0.00
   -9  -14    6     -0.08      0.00
   -8  -14    6      3.42      0.00
   -7  -14    6     -9.52      0.00
   -6  -14    6      6.97      0.00
   -5  -14    6     -0.75      0.00
   -4  -14    6      4.60      0.00
   -3  -14    6     -1.60      0.00
   -2  -14    6    -10.52      0.00
   -1  -14    6      3.77      0.00
    0  -14    6     -1.43      0.00
    1  -14    6      3.07      0.00
    2  -14    6     -2.79      0.00
    3  -14    6    -10.45      0.00
    4  -14    6     -0.07      0.00
    5  -14    6      2.90      0.00
    6  -14    6     -1.13      0.00
    7  -14    6     -3.46      0.00
    8  -14    6      5.82      0.00
    9  -14    6     -4.28      0.00
   10  -14    6      0.53      0.00
   11  -14    6     -0.79      0.00
   12  -14    6     -0.85      0.00
   13  -14    6     -3.15      0.00
   14  -14    6      1.67      0.00
   15  -14    6      1.17      0.00
   16  -14    6      1.16      0.00
   17  -14    6     -1.99      0.00
  -10  -13    6      2.45      0.00
   -9  -13    6     -5.21      0.00
   -8  -13    6     -0.30      0.00
   -7  -13    6     -4.19      0.00
   -6  -13    6     -2.08      0.00
   -5  -13    6     -3.03      0.00
   -4  -13    6      3.26      0.00
   -3  -13    6    -10.42      0.00
   -2  -13    6      1.19      0.00
   -1  -13    6     -8.84      0.00
    0  -13    6     -5.39      0.00
    1  -13    6      3.01      0.00
    2  -13    6      2.91      0.00
    3  -13    6      2.82      0.00
    4  -13    6      9.97      0.00
    5  -13    6     -3.55      0.00
    6  -13    6     -2.17      0.00
    7  -13    6     -4.61      0.00
    8  -13    6      3.19      0.00
    9  -13    6     -6.37      0.00
   10  -13    6      1.58      0.00
   11  -13    6      0.99      0.00
   12  -13    6      1.11      0.00
   13  -13    6     -1.76      0.00
   14  -13    6      1.08      0.00
   15  -13    6      1.95      0.00
   16  -13    6     -3.30      0.00
   17  -13    6     -0.71      0.00
   18  -13    6      3.34      0.00
  -11  -12    6      0.10      0.00
  -10  -12    6      0.46      0.00
   -9  -12    6     -1.52      0.00
   -8  -12    6      5.68      0.00
   -7  -12    6      4.59      0.00
   -6  -12    6      2.32      0.00
   -5  -12    6     -3.13      0.00
   -4  -12    6     -1.43      0.00
   -3  -12    6      2.93      0.00
   -2  -12    6      0.98      0.00
   -1  -12    6      3.53      0.00
    0  -12    6     -3.26      0.00
    1  -12    6     -4.99      0.00
    2  -12    6      5.43      0.00
    3  -12    6     -2.72      0.00
    4  -12    6      0.67      0.00
    5  -12    6     -3.29      0.00
    6  -12    6      1.23      0.00
    7  -12    6      0.08      0.00
    8  -12    6      0.96      0.00
    9  -12    6     -8.10      0.00
   10  -12    6     -0.66      0.00
   11  -12    6      1.16      0.00
   12  -12    6     -2.84      0.00
   13  -12    6     -3.05      0.00
   14  -12    6      1.98      0.00
   15  -12    6      1.65      0.00
   16  -12    6     -0.98      0.00
   17  -12    6     -2.62      0.00
   18  -12    6      0.74      0.00
  -11  -11    6     -3.16      0.00
  -10  -11    6     -0.63      0.00
   -9  -11    6    -10.35      0.00
   -8  -11    6      1.85      0.00
   -7  -11    6     -7.13      0.00
   -6  -11    6      8.74      0.00
   -5  -11    6     -5.13      0.00
   -4  -11    6     -0.41      0.00
   -3  -11    6     -5.49      0.00
   -2  -11    6    -10.02      0.00
   -1  -11    6      8.61      0.00
    0  -11    6      0.19      0.00
    1  -11    6      0.34      0.00
    2  -11    6      7.50      0.00
    3  -11    6      2.67      0.00
    4  -11    6      3.53      0.00
    5  -11    6      0.06      0.00
    6  -11    6      4.77      0.00
    7  -11    6    -14.62      0.00
    8  -11    6     -1.33      0.00
    9  -11    6      2.63      0.00
   10  -11    6      0.79      0.00
   11  -11    6     -0.04      0.00
   12  -11    6      0.51      0.00
   13  -11    6      3.86      0.00
   14  -11    6     -3.96      0.00
   15  -11    6     -0.42      0.00
   16  -11    6     -3.42      0.00
   17  -11    6      1.25      0.00
   18  -11    6      3.35      0.00
  -12  -10    6     -0.94      0.00
  -11  -10    6     -2.13      0.00
  -10  -10    6      4.70      0.00
   -9  -10    6      6.48      0.00
   -8  -10    6      3.77      0.00
   -7  -10    6     -2.20      0.00
   -6  -10    6     -1.07      0.00
   -5  -10    6      3.40      0.00
   -4  -10    6     12.98      0.00
   -3  -10    6     -0.66      0.00
   -2  -10    6     -6.06      0.00
   -1  -10    6     14.21      0.00
    0  -10    6      3.55      0.00
    1  -10    6    -10.93      0.00
    2  -10    6      3.53      0.00
    3  -10    6      0.28      0.00
    4  -10    6    -11.51      0.00
    5  -10    6      0.39      0.00
    6  -10    6      7.50      0.00
    7  -10    6     -9.22      0.00
    8  -10    6     -6.14      0.00
    9  -10    6      2.48      0.00
   10  -10    6     -4.04      0.00
   11  -10    6     -0.76      0.00
   12  -10    6      0.98      0.00
   13  -10    6     -0.80      0.00
   14  -10    6     -0.65      0.00
   15  -10    6      1.98      0.00
   16  -10    6     -0.77      0.00
   17  -10    6      2.48      0.00
   18  -10    6      1.12      0.00
  -13   -9    6     -8.95      0.00
  -12   -9    6      0.59      0.00
  -11   -9    6      0.11      0.00
  -10   -9    6     -1.07      0.00
   -9   -9    6    -11.50      0.00
   -8   -9    6      1.20      0.00
   -7   -9    6     -0.93      0.00
   -6   -9    6      6.49      0.00
   -5   -9    6     -7.38      0.00
   -4   -9    6     -7.51      0.00
   -3   -9    6      2.02      0.00
   -2   -9    6     -4.77      0.00
   -1   -9    6      9.14      0.00
    0   -9    6     11.55      0.00
    1   -9    6     -3.08      0.00
    2   -9    6     11.80      0.00
    3   -9    6      2.15      0.00
    4   -9    6     -2.75      0.00
    5   -9    6     -6.54      0.00
    6   -9    6     -1.16      0.00
    7   -9    6    -11.13      0.00
    8   -9    6      1.95      0.00
    9   -9    6      6.68      0.00
   10   -9    6     -8.44      0.00
   11   -9    6      3.26      0.00
   12   -9    6      2.86      0.00
   13   -9    6      4.72      0.00
   14   -9    6     -5.68      0.00
   15   -9    6      2.88      0.00
   16   -9    6      2.58      0.00
   17   -9    6     -0.49      0.00
   18   -9    6     -2.82      0.00
  -14   -8    6     -7.52      0.00
  -13   -8    6     -4.72      0.00
  -12   -8    6      3.03      0.00
  -11   -8    6     -1.20      0.00
  -10   -8    6      9.27      0.00
   -9   -8    6      6.03      0.00
   -8   -8    6      1.10      0.00
   -7   -8    6     -4.33      0.00
   -6   -8    6     10.48      0.00
   -5   -8    6     -0.56      0.00
   -4   -8    6      9.43      0.00
   -3   -8    6      3.52      0.00
   -2   -8    6      2.84      0.00
    0   -8    6      2.57      0.00
    1   -8    6     -7.40      0.00
    2   -8    6      1.49      0.00
    3   -8    6      0.65      0.00
    4   -8    6     -8.40      0.00
    5   -8    6     -9.12      0.00
    6   -8    6     -0.60      0.00
    7   -8    6    -10.50      0.00
    8   -8    6     -0.65      0.00
    9   -8    6      8.69      0.00
   10   -8    6      0.64      0.00
   11   -8    6     -1.35      0.00
   12   -8    6     -2.59      0.00
   13   -8    6      2.25      0.00
   14   -8    6     -1.63      0.00
   15   -8    6      3.59      0.00
   16   -8    6      0.21      0.00
   17   -8    6      1.17      0.00
   18   -8    6      4.52      0.00
  -14   -7    6     -0.66      0.00
  -13   -7    6     -2.52      0.00
  -12   -7    6     -0.50      0.00
  -11   -7    6     -5.26      0.00
  -10   -7    6     -3.26      0.00
   -9   -7    6     -3.74      0.00
   -8   -7    6     -2.31      0.00
   -7   -7    6     -8.97      0.00
   -6   -7    6      0.18      0.00
   -5   -7    6     -0.60      0.00
   -4   -7    6      7.23      0.00
   -3   -7    6     -1.45      0.00
   -2   -7    6      3.57      0.00
   -1   -7    6     -8.93      0.00
    0   -7    6     27.99      0.00
    1   -7    6     -3.65      0.00
    2   -7    6      7.08      0.00
    3   -7    6     -5.96      0.00
    4   -7    6     -4.94      0.00
    5   -7    6    -13.02      0.00
    6   -7    6      3.61      0.00
    7   -7    6      4.02      0.00
    8   -7    6     -3.92      0.00
    9   -7    6     -3.95      0.00
   10   -7    6     -6.18      0.00
   11   -7    6      4.99      0.00
   12   -7    6     -1.29      0.00
   13   -7    6     -0.16      0.00
   14   -7    6     -0.53      0.00
   15   -7    6      2.22      0.00
   16   -7    6     -4.07      0.00
   17   -7    6     -3.86      0.00
   18   -7    6      1.02      0.00
  -15   -6    6     -1.09      0.00
  -14   -6    6     -0.79      0.00
  -13   -6    6      0.87      0.00
  -12   -6    6      4.88      0.00
  -11   -6    6      6.68      0.00
  -10   -6    6      5.78      0.00
   -9   -6    6     -7.93      0.00
   -8   -6    6      7.88      0.00
   -7   -6    6      0.07      0.00
   -6   -6    6     13.34      0.00
   -5   -6    6    -17.66      0.00
   -4   -6    6      4.48      0.00
   -3   -6    6      3.23      0.00
   -2   -6    6     15.38      0.00
   -1   -6    6    -29.06      0.00
    0   -6    6      0.65      0.00
    1   -6    6     -5.26      0.00
    2   -6    6     -9.31      0.00
    3   -6    6     -9.44      0.00
    4   -6    6      5.99      0.00
    5   -6    6    -15.21      0.00
    6   -6    6     11.41      0.00
    7   -6    6     -4.44      0.00
    8   -6    6     -1.37      0.00
    9   -6    6      5.20      0.00
   10   -6    6      8.11      0.00
   11   -6    6     -6.39      0.00
   12   -6    6     -0.39      0.00
   13   -6    6      3.19      0.00
   14   -6    6     -2.20      0.00
   15   -6    6     -1.17      0.00
   16   -6    6      2.17      0.00
   17   -6    6      1.53      0.00
  -16   -5    6      1.16      0.00
  -15   -5    6      0.46      0.00
  -14   -5    6      0.72      0.00
  -13   -5    6     -3.90      0.00
  -12   -5    6     -1.24      0.00
  -11   -5    6     -5.48      0.00
  -10   -5    6      1.31      0.00
   -9   -5    6     -2.03      0.00
   -8   -5    6     -4.07      0.00
   -7   -5    6     -1.98      0.00
   -6   -5    6      6.33      0.00
   -5   -5    6    -10.88      0.00
   -4   -5    6     14.97      0.00
   -3   -5    6    -10.91      0.00
   -2   -5    6     15.83      0.00
   -1   -5    6     -3.72      0.00
    0   -5    6     33.70      0.00
    1   -5    6    -19.86      0.00
    2   -5    6     -1.60      0.00
    3   -5    6      8.24      0.00
    4   -5    6    -14.16      0.00
    5   -5    6    -13.06      0.00
    6   -5    6      5.50      0.00
    7   -5    6      7.13      0.00
    8   -5    6    -11.66      0.00
    9   -5    6     -1.04      0.00
   10   -5    6     -1.95      0.00
   11   -5    6     -7.00      0.00
   12   -5    6     -0.09      0.00
   13   -5    6      5.11      0.00
   14   -5    6      0.84      0.00
   15   -5    6      0.27      0.00
   16   -5    6      0.23      0.00
   17   -5    6     -2.60      0.00
  -16   -4    6     -5.21      0.00
  -15   -4    6      0.31      0.00
  -14   -4    6      5.36      0.00
  -13   -4    6      3.41      0.00
  -12   -4    6      0.37      0.00
  -11   -4    6     -0.63      0.00
  -10   -4    6     -0.84      0.00
   -9   -4    6      0.90      0.00
   -8   -4    6     11.14      0.00
   -7   -4    6    -13.11      0.00
   -6   -4    6      7.55      0.00
   -5   -4    6      4.33      0.00
   -4   -4    6    -11.19      0.00
   -3   -4    6    -12.25      0.00
   -2   -4    6    -12.59      0.00
   -1   -4    6    -23.17      0.00
    0   -4    6     14.06      0.00
    1   -4    6     -5.02      0.00
    2   -4    6    -20.35      0.00
    3   -4    6     -5.22      0.00
    4   -4    6     14.64      0.00
    5   -4    6     -9.56      0.00
    6   -4    6      5.81      0.00
    7   -4    6     -0.54      0.00
    8   -4    6     -0.12      0.00
    9   -4    6      3.36      0.00
   10   -4    6      2.06      0.00
   11   -4    6     -4.16      0.00
   12   -4    6     -2.67      0.00
   13   -4    6      2.34      0.00
   14   -4    6     -0.55      0.00
   15   -4    6      2.97      0.00
   16   -4    6      3.49      0.00
   17   -4    6      0.84      0.00
  -17   -3    6      0.87      0.00
  -16   -3    6      9.47      0.00
  -15   -3    6     -2.64      0.00
  -14   -3    6     -3.89      0.00
  -13   -3    6     -1.69      0.00
  -12   -3    6      3.66      0.00
  -11   -3    6     -0.29      0.00
  -10   -3    6     -3.49      0.00
   -9   -3    6     -1.18      0.00
   -8   -3    6     -4.26      0.00
   -7   -3    6     -3.89      0.00
   -6   -3    6      0.38      0.00
   -5   -3    6     -5.39      0.00
   -4   -3    6      8.72      0.00
   -3   -3    6      2.10      0.00
   -2   -3    6     29.04      0.00
   -1   -3    6    -17.74      0.00
    0   -3    6    -19.50      0.00
    1   -3    6     31.98      0.00
    2   -3    6      2.70      0.00
    3   -3    6      2.03      0.00
    4   -3    6    -19.79      0.00
    5   -3    6      6.31      0.00
    6   -3    6     -5.02      0.00
    7   -3    6      9.32      0.00
    8   -3    6    -14.37      0.00
    9   -3    6     -3.27      0.00
   10   -3    6      1.92      0.00
   11   -3    6      1.51      0.00
   12   -3    6      1.81      0.00
   13   -3    6      4.57      0.00
   14   -3    6     -2.17      0.00
   15   -3    6      0.21      0.00
   16   -3    6     -0.92      0.00
   17   -3    6      2.85      0.00
  -18   -2    6      4.19      0.00
  -17   -2    6     -0.58      0.00
  -16   -2    6     -4.00      0.00
  -15   -2    6      6.19      0.00
  -14   -2    6      3.30      0.00
  -13   -2    6     -8.91      0.00
  -12   -2    6      2.95      0.00
  -11   -2    6      6.28      0.00
  -10   -2    6     -2.47      0.00
   -9   -2    6      2.92      0.00
   -8   -2    6     -5.46      0.00
   -7   -2    6     -8.54      0.00
   -6   -2    6     -9.33      0.00
   -5   -2    6     26.77      0.00
   -4   -2    6    -43.77      0.00
   -3   -2    6    -18.43      0.00
   -2   -2    6    -15.69      0.00
   -1   -2    6     -9.51      0.00
    0   -2    6     -9.69      0.00
    1   -2    6      2.55      0.00
    2   -2    6    -29.01      0.00
    3   -2    6     11.27      0.00
    4   -2    6     15.53      0.00
    5   -2    6      3.29      0.00
    6   -2    6    -15.83      0.00
    7   -2    6     13.42      0.00
    8   -2    6      0.08      0.00
    9   -2    6      1.17      0.00
   10   -2    6      1.03      0.00
   11   -2    6      5.79      0.00
   12   -2    6      0.51      0.00
   13   -2    6      4.09      0.00
   14   -2    6      2.95      0.00
   15   -2    6      1.18      0.00
   16   -2    6     -3.24      0.00
  -18   -1    6      3.73      0.00
  -17   -1    6      2.87      0.00
  -16   -1    6      3.51      0.00
  -15   -1    6     -4.40      0.00
  -14   -1    6      1.85      0.00
  -13   -1    6     -0.58      0.00
  -12   -1    6     -6.11      0.00
  -11   -1    6      1.52      0.00
  -10   -1    6     -7.36      0.00
   -9   -1    6      0.05      0.00
   -8   -1    6      9.00      0.00
   -7   -1    6      0.31      0.00
   -6   -1    6     -9.74      0.00
   -5   -1    6      4.00      0.00
   -4   -1    6    -11.84      0.00
   -3   -1    6     21.50      0.00
   -2   -1    6     17.46      0.00
   -1   -1    6      6.99      0.00
    0   -1    6    -32.81      0.00
    1   -1    6     63.52      0.00
    2   -1    6    -38.29      0.00
    3   -1    6     -1.96      0.00
    4   -1    6     -1.97      0.00
    5   -1    6     18.93      0.00
    6   -1    6    -27.83      0.00
    7   -1    6      4.51      0.00
    8   -1    6    -12.05      0.00
    9   -1    6     -0.88      0.00
   10   -1    6      3.41      0.00
   11   -1    6      3.26      0.00
   12   -1    6      0.73      0.00
   13   -1    6      2.60      0.00
   14   -1    6     -1.00      0.00
   15   -1    6      1.15      0.00
   16   -1    6     -0.14      0.00
  -19    0    6      1.69      0.00
  -18    0    6     -1.67      0.00
  -17    0    6      2.09      0.00
  -16    0    6      2.43      0.00
  -15    0    6     -6.78      0.00
  -14    0    6      3.32      0.00
  -13    0    6      1.95      0.00
  -12    0    6      7.52      0.00
  -11    0    6      3.26      0.00
  -10    0    6    -10.08      0.00
   -9    0    6      5.42      0.00
   -8    0    6    -13.86      0.00
   -7    0    6     14.21      0.00
   -6    0    6    -23.86      0.00
   -5    0    6      9.90      0.00
   -4    0    6    -30.69      0.00
   -3    0    6    -12.90      0.00
   -2    0    6    -10.69      0.00
   -1    0    6      1.60      0.00
    0    0    6    -20.85      0.00
    1    0    6     22.85      0.00
    2    0    6     -1.81      0.00
    3    0    6     17.06      0.00
    4    0    6    -18.71      0.00
    5    0    6      8.32      0.00
    6    0    6    -15.19      0.00
    7    0    6     22.58      0.00
    8    0    6     -1.31      0.00
    9    0    6      0.27      0.00
   10    0    6      0.73      0.00
   11    0    6      7.19      0.00
   12    0    6      0.68      0.00
   13    0    6     -1.06      0.00
   14    0    6      0.96      0.00
   15    0    6     -1.88      0.00
  -19    1    6      0.35      0.00
  -18    1    6      4.69      0.00
  -17    1    6      1.10      0.00
  -16    1    6     -0.06      0.00
  -15    1    6     -5.26      0.00
  -14    1    6      5.62      0.00
  -13    1    6     -5.38      0.00
  -12    1    6     -2.97      0.00
  -11    1    6      1.72      0.00
  -10    1    6      0.74      0.00
   -9    1    6    -11.82      0.00
   -8    1    6     16.04      0.00
   -7    1    6      6.76      0.00
   -6    1    6    -18.36      0.00
   -5    1    6     19.78      0.00
   -4    1    6    -20.11      0.00
   -3    1    6     12.47      0.00
   -2    1    6      8.99      0.00
   -1    1    6     48.14      0.00
    0    1    6    -26.53      0.00
    1    1    6     17.71      0.00
    2    1    6    -22.10      0.00
    3    1    6      6.58      0.00
    4    1    6     -5.52      0.00
    5    1    6      2.26      0.00
    6    1    6    -21.85      0.00
    7    1    6      6.55      0.00
    8    1    6     -5.46      0.00
    9    1    6      3.47      0.00
   10    1    6     -0.39      0.00
   11    1    6     -1.40      0.00
   12    1    6     -0.04      0.00
   13    1    6      0.08      0.00
   14    1    6     -2.60      0.00
   15    1    6     -1.35      0.00
  -20    2    6     -0.57      0.00
  -19    2    6      3.30      0.00
  -18    2    6      5.75      0.00
  -17    2    6     -5.21      0.00
  -16    2    6     -1.80      0.00
  -15    2    6     -2.85      0.00
  -14    2    6      6.61      0.00
  -13    2    6      0.79      0.00
  -12    2    6     -4.14      0.00
  -11    2    6      5.16      0.00
  -10    2    6     -0.83      0.00
   -9    2    6      5.45      0.00
   -8    2    6     -9.34      0.00
   -7    2    6      0.98      0.00
   -6    2    6    -22.88      0.00
   -5    2    6     11.25      0.00
   -4    2    6      5.45      0.00
   -3    2    6    -27.39      0.00
   -2    2    6      0.19      0.00
   -1    2    6     25.34      0.00
    0    2    6    -18.87      0.00
    1    2    6     10.71      0.00
    2    2    6      5.10      0.00
    3    2    6     -4.60      0.00
    4    2    6    -15.23      0.00
    5    2    6     23.65      0.00
    6    2    6     -8.85      0.00
    7    2    6      6.25      0.00
    8    2    6      2.02      0.00
    9    2    6      4.61      0.00
   10    2    6      3.40      0.00
   11    2    6      3.05      0.00
   12    2    6     -1.74      0.00
   13    2    6      2.67      0.00
   14    2    6      0.32      0.00
  -20    3    6      1.92      0.00
  -19    3    6     -2.46      0.00
  -18    3    6      0.06      0.00
  -17    3    6     -2.61      0.00
  -16    3    6     -0.51      0.00
  -15    3    6     -3.38      0.00
  -14    3    6      3.62      0.00
  -13    3    6     -6.37      0.00
  -12    3    6      7.97      0.00
  -11    3    6    -10.32      0.00
  -10    3    6     -0.29      0.00
   -9    3    6     -6.19      0.00
   -8    3    6     16.10      0.00
   -7    3    6      8.57      0.00
   -6    3    6    -17.56      0.00
   -5    3    6     15.27      0.00
   -4    3    6     10.61      0.00
   -3    3    6     14.50      0.00
   -2    3    6      2.35      0.00
   -1    3    6      5.71      0.00
    0    3    6     -9.94      0.00
    1    3    6      6.64      0.00
    2    3    6     -2.41      0.00
    3    3    6    -15.51      0.00
    4    3    6    -17.71      0.00
    5    3    6      7.42      0.00
    6    3    6     -3.46      0.00
    7    3    6      3.06      0.00
    8    3    6     -6.00      0.00
    9    3    6     -5.09      0.00
   10    3    6     -3.68      0.00
   11    3    6      6.43      0.00
   12    3    6      0.14      0.00
   13    3    6     -4.99      0.00
   14    3    6      0.60      0.00
  -20    4    6      1.16      0.00
  -19    4    6     -3.11      0.00
  -18    4    6     -5.38      0.00
  -17    4    6     -0.42      0.00
  -16    4    6      7.81      0.00
  -15    4    6     -1.11      0.00
  -14    4    6      2.03      0.00
  -13    4    6     -5.05      0.00
  -12    4    6     -7.10      0.00
  -11    4    6      3.19      0.00
  -10    4    6      8.67      0.00
   -9    4    6    -12.96      0.00
   -8    4    6    -10.21      0.00
   -7    4    6      9.03      0.00
   -6    4    6     -7.78      0.00
   -5    4    6    -10.66      0.00
   -4    4    6      3.81      0.00
   -3    4    6    -15.35      0.00
   -2    4    6     21.78      0.00
   -1    4    6     13.23      0.00
    0    4    6    -31.13      0.00
    1    4    6    -11.54      0.00
    2    4    6      8.84      0.00
    3    4    6     -0.85      0.00
    4    4    6      2.65      0.00
    5    4    6     10.80      0.00
    6    4    6     -6.44      0.00
    7    4    6      4.01      0.00
    8    4    6      6.34      0.00
    9    4    6      0.36      0.00
   10    4    6     -5.47      0.00
   11    4    6      3.90      0.00
   12    4    6     -2.75      0.00
   13    4    6      1.68      0.00
  -21    5    6      1.56      0.00
  -20    5    6      0.23      0.00
  -19    5    6     -2.12      0.00
  -18    5    6     -2.56      0.00
  -17    5    6      2.75      0.00
  -16    5    6      0.82      0.00
  -15    5    6     -6.72      0.00
  -14    5    6      2.48      0.00
  -13    5    6     -1.79      0.00
  -12    5    6      0.67      0.00
  -11    5    6     -8.12      0.00
  -10    5    6      9.55      0.00
   -9    5    6      2.15      0.00
   -8    5    6    -14.53      0.00
   -7    5    6     12.30      0.00
   -6    5    6      0.15      0.00
   -5    5    6     13.33      0.00
   -4    5    6     21.68      0.00
   -3    5    6     -8.88      0.00
   -2    5    6    -23.93      0.00
   -1    5    6      6.69      0.00
    0    5    6      9.15      0.00
    1    5    6    -11.55      0.00
    2    5    6     -1.95      0.00
    3    5    6     -8.90      0.00
    4    5    6     -7.06      0.00
    5    5    6      7.74      0.00
    6    5    6     -5.25      0.00
    7    5    6      0.41      0.00
    8    5    6      0.70      0.00
    9    5    6      0.63      0.00
   10    5    6     -1.40      0.00
   11    5    6     -0.53      0.00
   12    5    6     -1.57      0.00
   13    5    6     -3.82      0.00
  -21    6    6      0.29      0.00
  -20    6    6     -0.79      0.00
  -19    6    6     -1.90      0.00
  -18    6    6      3.04      0.00
  -17    6    6      0.17      0.00
  -16    6    6     -0.07      0.00
  -15    6    6     -4.10      0.00
  -14    6    6      0.22      0.00
  -13    6    6     -0.30      0.00
  -12    6    6      0.00      0.00
  -11    6    6     -4.14      0.00
  -10    6    6      7.57      0.00
   -9    6    6     -8.45      0.00
   -8    6    6      2.23      0.00
   -7    6    6     19.63      0.00
   -6    6    6    -17.49      0.00
   -5    6    6    -24.85      0.00
   -4    6    6      0.38      0.00
   -3    6    6     12.97      0.00
   -2    6    6    -12.24      0.00
   -1    6    6     -0.36      0.00
    0    6    6    -12.87      0.00
    1    6    6     -6.30      0.00
    2    6    6     -2.33      0.00
    3    6    6      0.04      0.00
    4    6    6      3.21      0.00
    5    6    6      3.45      0.00
    6    6    6      3.60      0.00
    7    6    6     -0.23      0.00
    8    6    6     -4.95      0.00
    9    6    6      0.94      0.00
   10    6    6     -3.92      0.00
   11    6    6      3.03      0.00
   12    6    6      0.74      0.00
  -21    7    6     -0.82      0.00
  -20    7    6     -0.78      0.00
  -19    7    6      4.04      0.00
  -18    7    6      0.47      0.00
  -17    7    6     -0.38      0.00
  -16    7    6      1.17      0.00
  -15    7    6     -3.61      0.00
  -14    7    6     -0.09      0.00
  -13    7    6     -2.25      0.00
  -12    7    6     -4.57      0.00
  -11    7    6      3.45      0.00
  -10    7    6      3.41      0.00
   -9    7    6      7.18      0.00
   -8    7    6    -17.92      0.00
   -7    7    6     22.75      0.00
   -6    7    6     -0.18      0.00
   -5    7    6      3.92      0.00
   -4    7    6      6.97      0.00
   -3    7    6     -3.19      0.00
   -2    7    6    -24.43      0.00
   -1    7    6     15.11      0.00
    0    7    6     -6.67      0.00
    1    7    6     -9.49      0.00
    2    7    6     11.18      0.00
    3    7    6      9.33      0.00
    4    7    6     -9.14      0.00
    5    7    6      4.68      0.00
    6    7    6     -5.70      0.00
    7    7    6     -1.79      0.00
    8    7    6      4.03      0.00
    9    7    6      0.86      0.00
   10    7    6     -1.51      0.00
   11    7    6      0.43      0.00
  -21    8    6     -2.79      0.00
  -20    8    6     -0.77      0.00
  -19    8    6      1.67      0.00
  -18    8    6     -0.88      0.00
  -17    8    6     -0.74      0.00
  -16    8    6     -2.40      0.00
  -15    8    6     -1.69      0.00
  -14    8    6     -1.52      0.00
  -13    8    6      4.92      0.00
  -12    8    6      2.69      0.00
  -11    8    6      0.57      0.00
  -10    8    6     -1.52      0.00
   -9    8    6      7.71      0.00
   -8    8    6     -8.62      0.00
   -7    8    6      6.49      0.00
   -6    8    6    -19.54      0.00
   -5    8    6     10.51      0.00
   -4    8    6    -10.50      0.00
   -3    8    6      8.98      0.00
   -2    8    6    -27.52      0.00
   -1    8    6     13.97      0.00
    0    8    6      2.36      0.00
    1    8    6     -4.81      0.00
    2    8    6    -10.70      0.00
    3    8    6      5.31      0.00
    4    8    6      3.94      0.00
    5    8    6      6.76      0.00
    6    8    6      2.01      0.00
    7    8    6     -0.18      0.00
    8    8    6     -2.78      0.00
    9    8    6      1.24      0.00
   10    8    6     -6.44      0.00
  -21    9    6     -0.95      0.00
  -20    9    6      0.42      0.00
  -19    9    6      1.56      0.00
  -18    9    6      1.44      0.00
  -17    9    6     -5.42      0.00
  -16    9    6      1.17      0.00
  -15    9    6      1.34      0.00
  -14    9    6     -5.08      0.00
  -13    9    6      3.04      0.00
  -12    9    6     -2.61      0.00
  -11    9    6      6.12      0.00
  -10    9    6     -2.47      0.00
   -9    9    6     12.49      0.00
   -8    9    6    -14.12      0.00
   -7    9    6     14.83      0.00
   -6    9    6     -9.67      0.00
   -5    9    6      7.35      0.00
   -4    9    6     -7.20      0.00
   -3    9    6     16.62      0.00
   -2    9    6    -21.97      0.00
   -1    9    6      3.16      0.00
    0    9    6     -7.14      0.00
    1    9    6      9.98      0.00
    2    9    6      2.47      0.00
    3    9    6      3.66      0.00
    4    9    6     -3.92      0.00
    5    9    6      4.97      0.00
    6    9    6      1.91      0.00
    7    9    6      1.58      0.00
    8    9    6      1.51      0.00
    9    9    6      3.23      0.00
   10    9    6      0.32      0.00
  -21   10    6     -0.67      0.00
  -20   10    6      1.65      0.00
  -19   10    6      4.08      0.00
  -18   10    6     -3.70      0.00
  -17   10    6     -0.46      0.00
  -16   10    6     -2.36      0.00
  -15   10    6      0.54      0.00
  -14   10    6      1.46      0.00
  -13   10    6      3.85      0.00
  -12   10    6      2.19      0.00
  -11   10    6      1.17      0.00
  -10   10    6     -6.48      0.00
   -9   10    6      9.60      0.00
   -8   10    6    -18.32      0.00
   -7   10    6     11.29      0.00
   -6   10    6     -5.06      0.00
   -5   10    6      8.72      0.00
   -4   10    6    -23.73      0.00
   -3   10    6     11.36      0.00
   -2   10    6    -10.85      0.00
   -1   10    6      7.49      0.00
    0   10    6     -4.12      0.00
    1   10    6     -2.18      0.00
    2   10    6     -0.27      0.00
    3   10    6      8.69      0.00
    4   10    6     -3.76      0.00
    5   10    6      3.74      0.00
    6   10    6     -0.58      0.00
    7   10    6      0.33      0.00
    8   10    6      0.09      0.00
    9   10    6      5.13      0.00
  -21   11    6     -0.51      0.00
  -20   11    6      0.44      0.00
  -19   11    6     -2.71      0.00
  -18   11    6     -1.80      0.00
  -17   11    6      0.60      0.00
  -16   11    6     -0.78      0.00
  -15   11    6      0.83      0.00
  -14   11    6     -3.28      0.00
  -13   11    6      3.62      0.00
  -12   11    6     -0.94      0.00
  -11   11    6      2.85      0.00
  -10   11    6     -3.60      0.00
   -9   11    6     10.75      0.00
   -8   11    6    -10.38      0.00
   -7   11    6      7.96      0.00
   -6   11    6     -0.25      0.00
   -5   11    6      3.81      0.00
   -4   11    6    -16.67      0.00
   -3   11    6     13.52      0.00
   -2   11    6    -11.13      0.00
   -1   11    6      4.87      0.00
    0   11    6      3.93      0.00
    1   11    6      3.19      0.00
    2   11    6     -3.00      0.00
    3   11    6      3.90      0.00
    4   11    6      4.77      0.00
    5   11    6      3.97      0.00
    6   11    6      2.32      0.00
    7   11    6     -4.44      0.00
    8   11    6      0.13      0.00
  -21   12    6      2.87      0.00
  -20   12    6      0.12      0.00
  -19   12    6      1.59      0.00
  -18   12    6     -1.07      0.00
  -17   12    6     -1.24      0.00
  -16   12    6     -1.39      0.00
  -15   12    6      3.91      0.00
  -14   12    6     -2.69      0.00
  -13   12    6      1.28      0.00
  -12   12    6     -0.09      0.00
  -11   12    6      2.04      0.00
  -10   12    6     -1.10      0.00
   -9   12    6      1.54      0.00
   -8   12    6     -9.71      0.00
   -7   12    6      5.99      0.00
   -6   12    6     -0.35      0.00
   -5   12    6      0.56      0.00
   -4   12    6     -8.05      0.00
   -3   12    6      3.14      0.00
   -2   12    6     -6.50      0.00
   -1   12    6     -4.93      0.00
    0   12    6      0.57      0.00
    1   12    6      9.17      0.00
    2   12    6      2.90      0.00
    3   12    6      0.61      0.00
    4   12    6     -5.75      0.00
    5   12    6      2.35      0.00
    6   12    6      2.59      0.00
    7   12    6      3.47      0.00
  -21   13    6     -1.49      0.00
  -20   13    6      0.22      0.00
  -19   13    6     -1.25      0.00
  -18   13    6     -1.60      0.00
  -17   13    6     -0.89      0.00
  -16   13    6     -1.69      0.00
  -15   13    6      3.07      0.00
  -14   13    6     -0.81      0.00
  -13   13    6      1.28      0.00
  -12   13    6     -0.95      0.00
  -11   13    6      1.88      0.00
  -10   13    6     -6.17      0.00
   -9   13    6      3.29      0.00
   -8   13    6      6.66      0.00
   -7   13    6     -2.42      0.00
   -6   13    6      0.01      0.00
   -5   13    6      4.73      0.00
   -4   13    6     -8.81      0.00
   -3   13    6      3.58      0.00
   -2   13    6      3.71      0.00
   -1   13    6     -0.10      0.00
    0   13    6      0.68      0.00
    1   13    6     -0.22      0.00
    2   13    6     -5.47      0.00
    3   13    6      3.01      0.00
    4   13    6      8.27      0.00
    5   13    6     -3.32      0.00
    6   13    6      3.88      0.00
  -21   14    6      2.08      0.00
  -20   14    6     -0.46      0.00
  -19   14    6      0.02      0.00
  -18   14    6     -0.57      0.00
  -17   14    6      0.33      0.00
  -16   14    6     -4.09      0.00
  -15   14    6      4.46      0.00
  -14   14    6     -0.76      0.00
  -13   14    6     -0.90      0.00
  -12   14    6     -0.41      0.00
  -11   14    6      2.41      0.00
  -10   14    6     -4.60      0.00
   -9   14    6      5.44      0.00
   -8   14    6      1.17      0.00
   -7   14    6     -5.34      0.00
   -6   14    6      6.05      0.00
   -5   14    6      2.10      0.00
   -4   14    6     -2.86      0.00
   -3   14    6     -2.27      0.00
   -2   14    6     -1.45      0.00
   -1   14    6      5.50      0.00
    0   14    6      1.82      0.00
    1   14    6      2.71      0.00
    2   14    6     -3.69      0.00
    3   14    6      0.78      0.00
    4   14    6     -0.64      0.00
    5   14    6      5.39      0.00
  -21   15    6     -2.14      0.00
  -20   15    6     -2.09      0.00
  -19   15    6      0.09      0.00
  -18   15    6     -1.11      0.00
  -17   15    6      0.49      0.00
  -16   15    6     -2.49      0.00
  -15   15    6      6.52      0.00
  -14   15    6     -0.01      0.00
  -13   15    6     -2.86      0.00
  -12   15    6      0.37      0.00
  -11   15    6     -2.01      0.00
  -10   15    6     -4.18      0.00
   -9   15    6      4.47      0.00
   -8   15    6      4.31      0.00
   -7   15    6     -3.42      0.00
   -6   15    6     -1.97      0.00
   -5   15    6      2.93      0.00
   -4   15    6     -3.31      0.00
   -3   15    6      1.28      0.00
   -2   15    6     -4.10      0.00
   -1   15    6     -4.07      0.00
    0   15    6     -2.17      0.00
    1   15    6      1.99      0.00
    2   15    6      3.52      0.00
    3   15    6      1.07      0.00
    4   15    6      2.47      0.00
  -20   16    6     -0.65      0.00
  -19   16    6      0.62      0.00
  -18   16    6     -1.38      0.00
  -17   16    6      0.83      0.00
  -16   16    6     -4.79      0.00
  -15   16    6      1.59      0.00
  -14   16    6     -1.63      0.00
  -13   16    6      2.13      0.00
  -12   16    6     -0.30      0.00
  -11   16    6      3.09      0.00
  -10   16    6     -4.64      0.00
   -9   16    6      2.02      0.00
   -8   16    6      3.67      0.00
   -7   16    6      1.85      0.00
   -6   16    6      0.20      0.00
   -5   16    6     -2.14      0.00
   -4   16    6     -3.00      0.00
   -3   16    6      2.78      0.00
   -2   16    6      3.09      0.00
   -1   16    6      5.50      0.00
    0   16    6     -3.00      0.00
    1   16    6      2.08      0.00
    2   16    6     -1.57      0.00
    3   16    6      3.63      0.00
  -20   17    6     -0.07      0.00
  -19   17    6      0.70      0.00
  -18   17    6     -2.39      0.00
  -17   17    6      4.09      0.00
  -16   17    6      2.13      0.00
  -15   17    6      0.20      0.00
  -14   17    6     -1.68      0.00
  -13   17    6     -2.25      0.00
  -12   17    6     -3.71      0.00
  -11   17    6      3.98      0.00
  -10   17    6     -0.69      0.00
   -9   17    6      0.36      0.00
   -8   17    6     -0.98      0.00
   -7   17    6     -1.33      0.00
   -6   17    6     -2.63      0.00
   -5   17    6      1.62      0.00
   -4   17    6     -4.45      0.00
   -3   17    6     -2.38      0.00
   -2   17    6     -4.10      0.00
   -1   17    6      0.59      0.00
    0   17    6     -0.48      0.00
    1   17    6     -2.14      0.00
    2   17    6      0.51      0.00
  -19   18    6      3.07      0.00
  -18   18    6     -1.05      0.00
  -17   18    6     -1.54      0.00
  -16   18    6     -1.73      0.00
  -15   18    6     -0.67      0.00
  -14   18    6      0.99      0.00
  -13   18    6      2.96      0.00
  -12   18    6     -6.20      0.00
  -11   18    6     -4.50      0.00
  -10   18    6     -2.97      0.00
   -9   18    6      2.81      0.00
   -8   18    6      1.98      0.00
   -7   18    6      0.78      0.00
   -6   18    6     -3.36      0.00
   -5   18    6      2.12      0.00
   -4   18    6      2.59      0.00
   -3   18    6      1.38      0.00
   -2   18    6      2.90      0.00
   -1   18    6     -0.12      0.00
    0   18    6     -1.98      0.00
  -19   19    6     -0.84      0.00
  -18   19    6      0.33      0.00
  -17   19    6     -0.52      0.00
  -16   19    6      0.63      0.00
  -15   19    6      2.28      0.00
  -14   19    6      0.89      0.00
  -13   19    6     -1.16      0.00
  -12   19    6     -5.84      0.00
  -11   19    6     -0.42      0.00
  -10   19    6      1.90      0.00
   -9   19    6     -1.09      0.00
   -8   19    6      0.49      0.00
   -7   19    6     -2.46      0.00
   -6   19    6     -1.52      0.00
   -5   19    6      0.56      0.00
   -4   19    6     -3.70      0.00
   -3   19    6     -4.61      0.00
   -2   19    6     -0.02      0.00
  -17   20    6     -2.22      0.00
  -16   20    6     -0.89      0.00
  -15   20    6     -3.05      0.00
  -14   20    6     -0.40      0.00
  -13   20    6     -2.70      0.00
  -12   20    6     -2.12      0.00
  -11   20    6      3.90      0.00
  -10   20    6      0.24      0.00
   -9   20    6     -2.64      0.00
   -8   20    6      0.58      0.00
   -7   20    6      1.19      0.00
   -6   20    6      1.59      0.00
   -5   20    6     -0.17      0.00
   -4   20    6      1.67      0.00
   -3   20    6     -0.98      0.00
  -16   21    6     -1.01      0.00
  -15   21    6      1.24      0.00
  -14   21    6     -4.41      0.00
  -13   21    6     -0.89      0.00
  -12   21    6     -1.56      0.00
  -11   21    6     -0.94      0.00
  -10   21    6      2.48      0.00
   -9   21    6     -3.07      0.00
   -8   21    6     -0.72      0.00
   -7   21    6      0.10      0.00
   -6   21    6     -0.85      0.00
  -13   22    6     -1.18      0.00
  -12   22    6      1.73      0.00
  -11   22    6      2.39      0.00
  -10   22    6     -0.52      0.00
    3  -21    7     -0.73      0.00
    4  -21    7     -0.38      0.00
    5  -21    7     -3.85      0.00
    6  -21    7      4.85      0.00
    7  -21    7      2.69      0.00
    8  -21    7      4.75      0.00
    9  -21    7     -3.86      0.00
   10  -21    7     -2.18      0.00
   11  -21    7      2.43      0.00
    0  -20    7     -4.64      0.00
    1  -20    7      5.42      0.00
    2  -20    7     -1.54      0.00
    3  -20    7      0.65      0.00
    4  -20    7      1.30      0.00
    5  -20    7      1.77      0.00
    6  -20    7    -10.07      0.00
    7  -20    7     -1.63      0.00
    8  -20    7      0.35      0.00
    9  -20    7      2.73      0.00
   10  -20    7      1.84      0.00
   11  -20    7     -2.64      0.00
   12  -20    7     -2.03      0.00
   13  -20    7      0.20      0.00
   -2  -19    7      0.52      0.00
   -1  -19    7      2.97      0.00
    0  -19    7      1.72      0.00
    1  -19    7      0.15      0.00
    2  -19    7     -1.45      0.00
    3  -19    7     -1.86      0.00
    4  -19    7      1.41      0.00
    5  -19    7      3.42      0.00
    6  -19    7      4.03      0.00
    7  -19    7      2.16      0.00
    8  -19    7      0.77      0.00
    9  -19    7     -2.01      0.00
   10  -19    7     -0.05      0.00
   11  -19    7      0.97      0.00
   12  -19    7      2.71      0.00
   13  -19    7     -4.40      0.00
   14  -19    7      2.57      0.00
   -3  -18    7     -1.68      0.00
   -2  -18    7     -3.29      0.00
   -1  -18    7     -0.90      0.00
    0  -18    7     -6.04      0.00
    1  -18    7      5.96      0.00
    2  -18    7      0.48      0.00
    3  -18    7      3.14      0.00
    4  -18    7     -0.64      0.00
    5  -18    7     -6.13      0.00
    6  -18    7     -4.25      0.00
    7  -18    7      1.18      0.00
    8  -18    7     -0.60      0.00
    9  -18    7     -2.10      0.00
   10  -18    7     -2.57      0.00
   11  -18    7      1.07      0.00
   12  -18    7      0.15      0.00
   13  -18    7     -0.09      0.00
   14  -18    7      2.60      0.00
   15  -18    7     -0.91      0.00
   -5  -17    7      1.60      0.00
   -4  -17    7     -1.64      0.00
   -3  -17    7      0.09      0.00
   -2  -17    7     -0.07      0.00
   -1  -17    7      2.80      0.00
    0  -17    7     -0.17      0.00
    1  -17    7      1.66      0.00
    2  -17    7     -2.69      0.00
    3  -17    7      2.72      0.00
    4  -17    7      7.60      0.00
    5  -17    7     -0.23      0.00
    6  -17    7     -1.22      0.00
    7  -17    7     -2.02      0.00
    8  -17    7      3.17      0.00
    9  -17    7     -0.81      0.00
   10  -17    7      0.95      0.00
   11  -17    7     -6.07      0.00
   12  -17    7      2.24      0.00
   13  -17    7     -6.85      0.00
   14  -17    7      3.92      0.00
   15  -17    7     -2.32      0.00
   16  -17    7     -0.63      0.00
   -6  -16    7     -3.01      0.00
   -5  -16    7      1.43      0.00
   -4  -16    7      1.92      0.00
   -3  -16    7     -2.17      0.00
   -2  -16    7     -2.19      0.00
   -1  -16    7      1.64      0.00
    0  -16    7     -2.15      0.00
    1  -16    7     -0.51      0.00
    2  -16    7      2.33      0.00
    3  -16    7     -5.98      0.00
    4  -16    7     -1.78      0.00
    5  -16    7     -0.40      0.00
    6  -16    7     -2.53      0.00
    7  -16    7     -1.26      0.00
    8  -16    7      1.15      0.00
    9  -16    7     -3.56      0.00
   10  -16    7      0.39      0.00
   11  -16    7      4.11      0.00
   12  -16    7      1.85      0.00
   13  -16    7     -4.46      0.00
   14  -16    7      3.64      0.00
   15  -16    7     -0.21      0.00
   16  -16    7      1.97      0.00
   -8  -15    7      4.82      0.00
   -7  -15    7     -1.05      0.00
   -6  -15    7     -4.84      0.00
   -5  -15    7     -0.80      0.00
   -4  -15    7      2.80      0.00
   -3  -15    7      3.42      0.00
   -2  -15    7     -7.77      0.00
   -1  -15    7      2.61      0.00
    0  -15    7      3.14      0.00
    1  -15    7      5.28      0.00
    2  -15    7      7.90      0.00
    3  -15    7     -3.06      0.00
    4  -15    7      1.42      0.00
    5  -15    7     -2.01      0.00
    6  -15    7     -4.42      0.00
    7  -15    7     -9.05      0.00
    8  -15    7      3.61      0.00
    9  -15    7     -2.92      0.00
   10  -15    7      0.13      0.00
   11  -15    7     -5.06      0.00
   12  -15    7      0.73      0.00
   13  -15    7     -2.84      0.00
   14  -15    7      3.13      0.00
   15  -15    7     -0.45      0.00
   16  -15    7      2.16      0.00
   17  -15    7     -2.65      0.00
   -9  -14    7      2.02      0.00
   -8  -14    7     -4.51      0.00
   -7  -14    7      9.66      0.00
   -6  -14    7      2.49      0.00
   -5  -14    7     -3.78      0.00
   -4  -14    7      0.24      0.00
   -3  -14    7     -5.96      0.00
   -2  -14    7      4.31      0.00
   -1  -14    7      1.91      0.00
    0  -14    7      0.53      0.00
    1  -14    7     -6.14      0.00
    2  -14    7      0.79      0.00
    3  -14    7      0.98      0.00
    4  -14    7      5.00      0.00
    5  -14    7     -5.23      0.00
    6  -14    7     -3.70      0.00
    7  -14    7     -1.23      0.00
    8  -14    7     -0.69      0.00
    9  -14    7     -0.60      0.00
   10  -14    7      1.84      0.00
   11  -14    7     -1.22      0.00
   12  -14    7      3.96      0.00
   13  -14    7     -1.56      0.00
   14  -14    7      1.78      0.00
   15  -14    7      0.80      0.00
   16  -14    7     -1.66      0.00
   17  -14    7     -4.34      0.00
  -10  -13    7     -3.59      0.00
   -9  -13    7     -2.14      0.00
   -8  -13    7      0.46      0.00
   -7  -13    7      2.12      0.00
   -6  -13    7      5.68      0.00
   -5  -13    7      3.20      0.00
   -4  -13    7     -5.12      0.00
   -3  -13    7      4.25      0.00
   -2  -13    7      0.85      0.00
   -1  -13    7      7.67      0.00
    0  -13    7      9.31      0.00
    1  -13    7     -7.39      0.00
    2  -13    7      6.10      0.00
    3  -13    7     -2.74      0.00
    4  -13    7      1.80      0.00
    5  -13    7     -8.65      0.00
    6  -13    7      4.96      0.00
    7  -13    7     -5.78      0.00
    8  -13    7      2.48      0.00
    9  -13    7     -4.21      0.00
   10  -13    7      1.17      0.00
   11  -13    7     -3.72      0.00
   12  -13    7      5.33      0.00
   13  -13    7     -2.16      0.00
   14  -13    7      0.53      0.00
   15  -13    7     -2.26      0.00
   16  -13    7     -0.51      0.00
   17  -13    7      0.63      0.00
  -11  -12    7      1.63      0.00
  -10  -12    7      3.48      0.00
   -9  -12    7      2.32      0.00
   -8  -12    7      3.75      0.00
   -7  -12    7     -7.47      0.00
   -6  -12    7      2.62      0.00
   -5  -12    7     -3.06      0.00
   -4  -12    7      5.78      0.00
   -3  -12    7     -0.52      0.00
   -2  -12    7     -1.13      0.00
   -1  -12    7     -0.57      0.00
    0  -12    7      4.19      0.00
    1  -12    7     -4.07      0.00
    2  -12    7      4.39      0.00
    3  -12    7     -0.39      0.00
    4  -12    7      2.39      0.00
    5  -12    7     -3.93      0.00
    6  -12    7      7.88      0.00
    7  -12    7    -12.13      0.00
    8  -12    7     -0.53      0.00
    9  -12    7      0.93      0.00
   10  -12    7      6.73      0.00
   11  -12    7     -2.15      0.00
   12  -12    7      4.85      0.00
   13  -12    7      3.33      0.00
   14  -12    7     -2.67      0.00
   15  -12    7     -3.13      0.00
   16  -12    7     -2.91      0.00
   17  -12    7     -0.13      0.00
  -11  -11    7     -1.12      0.00
  -10  -11    7     -2.84      0.00
   -9  -11    7      6.07      0.00
   -8  -11    7     -0.19      0.00
   -7  -11    7      6.08      0.00
   -6  -11    7      1.67      0.00
   -5  -11    7     -1.38      0.00
   -4  -11    7      6.58      0.00
   -3  -11    7      3.18      0.00
   -2  -11    7      1.17      0.00
   -1  -11    7      9.55      0.00
    0  -11    7      7.17      0.00
    1  -11    7     -9.42      0.00
    2  -11    7      4.12      0.00
    3  -11    7     -4.49      0.00
    4  -11    7      2.61      0.00
    5  -11    7     -8.11      0.00
    6  -11    7      6.48      0.00
    7  -11    7     -6.04      0.00
    8  -11    7      8.77      0.00
    9  -11    7     -1.86      0.00
   10  -11    7      0.30      0.00
   11  -11    7     -7.47      0.00
   12  -11    7      6.29      0.00
   13  -11    7     -3.38      0.00
   14  -11    7     -2.17      0.00
   15  -11    7      0.07      0.00
   16  -11    7      2.66      0.00
   17  -11    7     -1.27      0.00
  -12  -10    7      1.14      0.00
  -11  -10    7      4.67      0.00
  -10  -10    7      7.07      0.00
   -9  -10    7     -5.85      0.00
   -8  -10    7     -6.71      0.00
   -7  -10    7     -6.07      0.00
   -6  -10    7      9.70      0.00
   -5  -10    7      1.10      0.00
   -4  -10    7     -5.29      0.00
   -3  -10    7     -1.70      0.00
   -2  -10    7     -4.94      0.00
   -1  -10    7     -4.84      0.00
    0  -10    7      4.93      0.00
    1  -10    7      2.28      0.00
    2  -10    7      3.65      0.00
    3  -10    7     -2.27      0.00
    4  -10    7     10.50      0.00
    5  -10    7     -4.68      0.00
    6  -10    7      5.66      0.00
    7  -10    7     -9.10      0.00
    8  -10    7      7.33      0.00
    9  -10    7      3.06      0.00
   10  -10    7      2.54      0.00
   11  -10    7      0.56      0.00
   12  -10    7      2.38      0.00
   13  -10    7      3.60      0.00
   14  -10    7     -2.81      0.00
   15  -10    7     -0.63      0.00
   16  -10    7      3.33      0.00
   17  -10    7     -0.66      0.00
  -13   -9    7      2.63      0.00
  -12   -9    7      7.01      0.00
  -11   -9    7     -3.49      0.00
  -10   -9    7     -5.34      0.00
   -9   -9    7      4.49      0.00
   -8   -9    7      3.01      0.00
   -7   -9    7      0.54      0.00
   -6   -9    7      1.42      0.00
   -5   -9    7     -0.91      0.00
   -4   -9    7      0.44      0.00
   -3   -9    7     21.62      0.00
   -2   -9    7     -2.00      0.00
   -1   -9    7     -4.17      0.00
    0   -9    7      2.98      0.00
    1   -9    7     -0.72      0.00
    2   -9    7     -4.37      0.00
    3   -9    7     -6.26      0.00
    4   -9    7     -1.81      0.00
    5   -9    7    -16.82      0.00
    6   -9    7      6.97      0.00
    7   -9    7      1.68      0.00
    8   -9    7     -0.13      0.00
    9   -9    7     -4.04      0.00
   10   -9    7      5.86      0.00
   11   -9    7     -2.04      0.00
   12   -9    7     -3.87      0.00
   13   -9    7     -1.93      0.00
   14   -9    7      0.25      0.00
   15   -9    7      2.62      0.00
   16   -9    7      0.31      0.00
   17   -9    7     -3.45      0.00
  -14   -8    7      1.64      0.00
  -13   -8    7      3.66      0.00
  -12   -8    7      4.41      0.00
  -11   -8    7      4.33      0.00
  -10   -8    7     -0.41      0.00
   -9   -8    7     -9.76      0.00
   -8   -8    7     -1.74      0.00
   -7   -8    7      0.48      0.00
   -6   -8    7     -1.34      0.00
   -5   -8    7     -2.41      0.00
   -4   -8    7    -20.07      0.00
   -3   -8    7      5.00      0.00
   -1   -8    7     -6.61      0.00
    0   -8    7      7.92      0.00
    1   -8    7      7.77      0.00
    2   -8    7     -0.11      0.00
    3   -8    7      3.04      0.00
    4   -8    7     11.65      0.00
    5   -8    7    -10.98      0.00
    6   -8    7      6.12      0.00
    7   -8    7      7.49      0.00
    8   -8    7      2.12      0.00
    9   -8    7      0.27      0.00
   10   -8    7     -0.40      0.00
   11   -8    7      1.07      0.00
   12   -8    7      0.07      0.00
   13   -8    7      4.07      0.00
   14   -8    7     -0.28      0.00
   15   -8    7      1.12      0.00
   16   -8    7      1.64      0.00
   17   -8    7      3.21      0.00
  -15   -7    7      1.07      0.00
  -14   -7    7      5.81      0.00
  -13   -7    7      0.70      0.00
  -12   -7    7     -2.37      0.00
  -11   -7    7     -1.13      0.00
  -10   -7    7     -1.01      0.00
   -9   -7    7      0.78      0.00
   -8   -7    7     -2.46      0.00
   -7   -7    7     -1.87      0.00
   -6   -7    7     14.01      0.00
   -5   -7    7     12.50      0.00
   -4   -7    7     -5.08      0.00
   -3   -7    7      5.89      0.00
   -2   -7    7      5.81      0.00
   -1   -7    7      0.31      0.00
    0   -7    7     -0.07      0.00
    1   -7    7     -1.44      0.00
    2   -7    7    -13.08      0.00
    3   -7    7    -15.01      0.00
    4   -7    7      9.07      0.00
    5   -7    7    -12.66      0.00
    6   -7    7     11.00      0.00
    7   -7    7     -3.01      0.00
    8   -7    7    -12.00      0.00
    9   -7    7     -2.86      0.00
   10   -7    7      5.85      0.00
   11   -7    7     -3.22      0.00
   12   -7    7     -5.98      0.00
   13   -7    7      3.66      0.00
   14   -7    7     -0.86      0.00
   15   -7    7     -2.84      0.00
   16   -7    7      0.04      0.00
   17   -7    7      3.90      0.00
  -15   -6    7     -0.79      0.00
  -14   -6    7      6.76      0.00
  -13   -6    7     -0.25      0.00
  -12   -6    7      3.73      0.00
  -11   -6    7     -4.58      0.00
  -10   -6    7    -10.94      0.00
   -9   -6    7     -3.02      0.00
   -8   -6    7      3.87      0.00
   -7   -6    7     -8.40      0.00
   -6   -6    7    -15.34      0.00
   -5   -6    7     -5.31      0.00
   -4   -6    7      0.00      0.00
   -3   -6    7     -5.47      0.00
   -2   -6    7     -2.97      0.00
   -1   -6    7    -16.05      0.00
    0   -6    7     13.93      0.00
    1   -6    7      3.62      0.00
    2   -6    7      7.26      0.00
    3   -6    7      5.46      0.00
    4   -6    7     12.50      0.00
    5   -6    7     -4.38      0.00
    6   -6    7      4.68      0.00
    7   -6    7     10.02      0.00
    8   -6    7      1.95      0.00
    9   -6    7      0.16      0.00
   10   -6    7     -5.93      0.00
   11   -6    7      0.06      0.00
   12   -6    7      0.22      0.00
   13   -6    7      2.74      0.00
   14   -6    7      0.25      0.00
   15   -6    7      2.25      0.00
   16   -6    7      4.37      0.00
   17   -6    7     -0.59      0.00
  -16   -5    7     -1.14      0.00
  -15   -5    7      0.17      0.00
  -14   -5    7     -1.09      0.00
  -13   -5    7      0.63      0.00
  -12   -5    7     -5.27      0.00
  -11   -5    7      4.33      0.00
  -10   -5    7      0.55      0.00
   -9   -5    7     -9.13      0.00
   -8   -5    7     11.63      0.00
   -7   -5    7     -2.90      0.00
   -6   -5    7     10.43      0.00
   -5   -5    7      6.23      0.00
   -4   -5    7      4.73      0.00
   -3   -5    7    -10.27      0.00
   -2   -5    7     26.69      0.00
   -1   -5    7     -8.81      0.00
    0   -5    7     -7.78      0.00
    1   -5    7     -4.65      0.00
    2   -5    7      9.78      0.00
    3   -5    7    -36.03      0.00
    4   -5    7     18.41      0.00
    5   -5    7     -8.63      0.00
    6   -5    7     -2.50      0.00
    7   -5    7     -5.99      0.00
    8   -5    7      2.12      0.00
    9   -5    7     -0.87      0.00
   10   -5    7      0.59      0.00
   11   -5    7      4.37      0.00
   12   -5    7      1.72      0.00
   13   -5    7      3.62      0.00
   14   -5    7     -1.82      0.00
   15   -5    7      1.26      0.00
   16   -5    7      0.45      0.00
   17   -5    7      2.39      0.00
  -17   -4    7     -2.39      0.00
  -16   -4    7      3.24      0.00
  -15   -4    7     -0.31      0.00
  -14   -4    7      2.55      0.00
  -13   -4    7     -4.52      0.00
  -12   -4    7     -3.33      0.00
  -11   -4    7     -9.19      0.00
  -10   -4    7      2.25      0.00
   -9   -4    7     -2.44      0.00
   -8   -4    7     -0.62      0.00
   -7   -4    7    -12.52      0.00
   -6   -4    7     11.68      0.00
   -5   -4    7    -25.41      0.00
   -4   -4    7      9.85      0.00
   -3   -4    7    -35.87      0.00
   -2   -4    7     33.20      0.00
   -1   -4    7     -4.41      0.00
    0   -4    7     13.81      0.00
    1   -4    7      0.82      0.00
    2   -4    7     18.49      0.00
    3   -4    7     -3.22      0.00
    4   -4    7     12.76      0.00
    5   -4    7     -4.10      0.00
    6   -4    7     -3.61      0.00
    7   -4    7      2.78      0.00
    8   -4    7      3.38      0.00
    9   -4    7    -10.20      0.00
   10   -4    7      1.13      0.00
   11   -4    7      2.88      0.00
   12   -4    7     -0.48      0.00
   13   -4    7      3.64      0.00
   14   -4    7      1.70      0.00
   15   -4    7      2.86      0.00
   16   -4    7     -1.06      0.00
  -17   -3    7      5.47      0.00
  -16   -3    7     -5.55      0.00
  -15   -3    7     -8.12      0.00
  -14   -3    7      1.90      0.00
  -13   -3    7      4.02      0.00
  -12   -3    7     -0.23      0.00
  -11   -3    7     -4.80      0.00
  -10   -3    7      0.66      0.00
   -9   -3    7    -10.38      0.00
   -8   -3    7     16.38      0.00
   -7   -3    7     -8.43      0.00
   -6   -3    7      9.55      0.00
   -5   -3    7     10.63      0.00
   -4   -3    7     19.15      0.00
   -3   -3    7    -21.58      0.00
   -2   -3    7     10.73      0.00
   -1   -3    7    -30.99      0.00
    0   -3    7     24.36      0.00
    1   -3    7      1.08      0.00
    2   -3    7     -2.19      0.00
    3   -3    7    -36.44      0.00
    4   -3    7     21.52      0.00
    5   -3    7     -4.27      0.00
    6   -3    7     -9.64      0.00
    7   -3    7     -4.88      0.00
    8   -3    7      3.82      0.00
    9   -3    7     -1.93      0.00
   10   -3    7      4.72      0.00
   11   -3    7      7.85      0.00
   12   -3    7     -1.16      0.00
   13   -3    7     -0.86      0.00
   14   -3    7      0.88      0.00
   15   -3    7      2.10      0.00
   16   -3    7      0.48      0.00
  -18   -2    7      0.48      0.00
  -17   -2    7     -1.41      0.00
  -16   -2    7      8.09      0.00
  -15   -2    7     -2.24      0.00
  -14   -2    7     -7.29      0.00
  -13   -2    7     -2.94      0.00
  -12   -2    7      2.57      0.00
  -11   -2    7     -2.82      0.00
  -10   -2    7      4.30      0.00
   -9   -2    7    -10.77      0.00
   -8   -2    7      9.42      0.00
   -7   -2    7    -11.05      0.00
   -6   -2    7     12.60      0.00
   -5   -2    7    -37.12      0.00
   -4   -2    7     19.82      0.00
   -3   -2    7    -19.90      0.00
   -2   -2    7     50.85      0.00
   -1   -2    7      7.22      0.00
    0   -2    7    -11.34      0.00
    1   -2    7      5.35      0.00
    2   -2    7     28.63      0.00
    3   -2    7     -6.37      0.00
    4   -2    7     -0.76      0.00
    5   -2    7     -0.39      0.00
    6   -2    7      0.72      0.00
    7   -2    7      2.05      0.00
    8   -2    7      4.37      0.00
    9   -2    7    -10.29      0.00
   10   -2    7      0.99      0.00
   11   -2    7      1.61      0.00
   12   -2    7     -3.03      0.00
   13   -2    7      1.83      0.00
   14   -2    7     -2.45      0.00
   15   -2    7     -1.89      0.00
   16   -2    7     -1.25      0.00
  -18   -1    7      3.50      0.00
  -17   -1    7     -1.34      0.00
  -16   -1    7     -0.64      0.00
  -15   -1    7     -4.08      0.00
  -14   -1    7      3.50      0.00
  -13   -1    7     -6.39      0.00
  -12   -1    7     -1.81      0.00
  -11   -1    7      3.94      0.00
  -10   -1    7      6.22      0.00
   -9   -1    7      3.96      0.00
   -8   -1    7      7.19      0.00
   -7   -1    7      0.87      0.00
   -6   -1    7     -7.37      0.00
   -5   -1    7     10.37      0.00
   -4   -1    7     23.58      0.00
   -3   -1    7    -18.99      0.00
   -2   -1    7      0.81      0.00
   -1   -1    7      2.79      0.00
    0   -1    7      5.62      0.00
    1   -1    7    -30.05      0.00
    2   -1    7     -3.86      0.00
    3   -1    7     -1.31      0.00
    4   -1    7     -1.53      0.00
    5   -1    7     -2.57      0.00
    6   -1    7    -14.73      0.00
    7   -1    7      1.00      0.00
    8   -1    7      8.84      0.00
    9   -1    7      3.14      0.00
   10   -1    7     -0.81      0.00
   11   -1    7      4.28      0.00
   12   -1    7      0.87      0.00
   13   -1    7      0.21      0.00
   14   -1    7      0.49      0.00
   15   -1    7      0.92      0.00
  -19    0    7     -2.33      0.00
  -18    0    7      4.93      0.00
  -17    0    7      0.71      0.00
  -16    0    7     -1.75      0.00
  -15    0    7     -3.14      0.00
  -14    0    7      6.78      0.00
  -13    0    7      4.58      0.00
  -12    0    7     -7.30      0.00
  -11    0    7     -3.23      0.00
  -10    0    7      3.69      0.00
   -9    0    7    -13.07      0.00
   -8    0    7     10.92      0.00
   -7    0    7      3.85      0.00
   -6    0    7    -10.95      0.00
   -5    0    7    -13.01      0.00
   -4    0    7     21.67      0.00
   -3    0    7     -4.32      0.00
   -2    0    7      9.61      0.00
   -1    0    7     40.78      0.00
    0    0    7     -2.02      0.00
    1    0    7     13.84      0.00
    2    0    7     10.29      0.00
    3    0    7    -20.77      0.00
    4    0    7    -12.18      0.00
    5    0    7     19.80      0.00
    6    0    7      6.85      0.00
    7    0    7     -5.11      0.00
    8    0    7     -1.66      0.00
    9    0    7     -4.01      0.00
   10    0    7     -0.45      0.00
   11    0    7     -0.38      0.00
   12    0    7     -2.48      0.00
   13    0    7      1.44      0.00
   14    0    7     -1.24      0.00
   15    0    7     -1.05      0.00
  -19    1    7      2.61      0.00
  -18    1    7      3.78      0.00
  -17    1    7     -8.54      0.00
  -16    1    7     -1.11      0.00
  -15    1    7     -4.81      0.00
  -14    1    7     -1.62      0.00
  -13    1    7      3.77      0.00
  -12    1    7     -1.82      0.00
  -11    1    7      5.81      0.00
  -10    1    7     -2.70      0.00
   -9    1    7     10.21      0.00
   -8    1    7    -10.40      0.00
   -7    1    7     12.07      0.00
   -6    1    7     -5.23      0.00
   -5    1    7      4.42      0.00
   -4    1    7     16.70      0.00
   -3    1    7      4.63      0.00
   -2    1    7    -10.05      0.00
   -1    1    7      9.90      0.00
    0    1    7    -35.55      0.00
    1    1    7     -8.62      0.00
    2    1    7     10.35      0.00
    3    1    7     17.04      0.00
    4    1    7    -28.13      0.00
    5    1    7     12.79      0.00
    6    1    7     -0.96      0.00
    7    1    7     -0.79      0.00
    8    1    7      5.25      0.00
    9    1    7      1.50      0.00
   10    1    7     -2.58      0.00
   11    1    7      3.83      0.00
   12    1    7      4.02      0.00
   13    1    7     -0.92      0.00
   14    1    7      0.70      0.00
  -20    2    7      7.90      0.00
  -19    2    7      0.30      0.00
  -18    2    7     -0.79      0.00
  -17    2    7     -4.20      0.00
  -16    2    7      5.57      0.00
  -15    2    7     -2.90      0.00
  -14    2    7      0.98      0.00
  -13    2    7      1.39      0.00
  -12    2    7     -2.86      0.00
  -11    2    7      1.47      0.00
  -10    2    7      2.93      0.00
   -9    2    7     -7.80      0.00
   -8    2    7    -15.35      0.00
   -7    2    7     10.11      0.00
   -6    2    7     -5.46      0.00
   -5    2    7     11.18      0.00
   -4    2    7      1.53      0.00
   -3    2    7     13.55      0.00
   -2    2    7     -7.15      0.00
   -1    2    7     22.35      0.00
    0    2    7     -5.96      0.00
    1    2    7      4.59      0.00
    2    2    7     -7.65      0.00
    3    2    7      7.13      0.00
    4    2    7      0.12      0.00
    5    2    7     12.32      0.00
    6    2    7     -5.06      0.00
    7    2    7     -0.25      0.00
    8    2    7      0.62      0.00
    9    2    7      0.75      0.00
   10    2    7     -5.27      0.00
   11    2    7     -0.51      0.00
   12    2    7      2.86      0.00
   13    2    7     -2.71      0.00
   14    2    7      1.17      0.00
  -20    3    7      0.83      0.00
  -19    3    7     -4.70      0.00
  -18    3    7     -2.04      0.00
  -17    3    7     -3.86      0.00
  -16    3    7      6.30      0.00
  -15    3    7     -1.63      0.00
  -14    3    7     -1.05      0.00
  -13    3    7      5.67      0.00
  -12    3    7     -8.69      0.00
  -11    3    7     -3.34      0.00
  -10    3    7      9.57      0.00
   -9    3    7     12.78      0.00
   -8    3    7    -14.62      0.00
   -7    3    7      9.47      0.00
   -6    3    7      4.53      0.00
   -5    3    7     -6.66      0.00
   -4    3    7     15.24      0.00
   -3    3    7      4.36      0.00
   -2    3    7    -34.21      0.00
   -1    3    7     15.46      0.00
    0    3    7     -9.75      0.00
    1    3    7     -8.28      0.00
    2    3    7    -10.69      0.00
    3    3    7     15.01      0.00
    4    3    7    -10.13      0.00
    5    3    7     16.08      0.00
    6    3    7     -3.05      0.00
    7    3    7     -4.09      0.00
    8    3    7      0.84      0.00
    9    3    7      4.32      0.00
   10    3    7      5.04      0.00
   11    3    7      2.95      0.00
   12    3    7     -4.22      0.00
   13    3    7      0.24      0.00
  -20    4    7      3.43      0.00
  -19    4    7     -2.37      0.00
  -18    4    7      0.11      0.00
  -17    4    7      4.13      0.00
  -16    4    7      4.83      0.00
  -15    4    7     -4.29      0.00
  -14    4    7     -2.17      0.00
  -13    4    7     -2.04      0.00
  -12    4    7      6.32      0.00
  -11    4    7     -3.99      0.00
  -10    4    7     -4.78      0.00
   -9    4    7      1.53      0.00
   -8    4    7     -8.99      0.00
   -7    4    7     18.00      0.00
   -6    4    7     -6.15      0.00
   -5    4    7     -3.25      0.00
   -4    4    7      6.08      0.00
   -3    4    7     19.92      0.00
   -2    4    7    -20.47      0.00
   -1    4    7     -5.09      0.00
    0    4    7     10.95      0.00
    1    4    7      4.60      0.00
    2    4    7      2.87      0.00
    3    4    7     16.10      0.00
    4    4    7    -10.97      0.00
    5    4    7     -2.09      0.00
    6    4    7     -1.37      0.00
    7    4    7      3.06      0.00
    8    4    7     -4.91      0.00
    9    4    7     -0.79      0.00
   10    4    7     -3.68      0.00
   11    4    7     -1.47      0.00
   12    4    7      1.07      0.00
   13    4    7     -3.05      0.00
  -21    5    7     -2.30      0.00
  -20    5    7      0.09      0.00
  -19    5    7      0.27      0.00
  -18    5    7      1.98      0.00
  -17    5    7     -7.58      0.00
  -16    5    7      1.32      0.00
  -15    5    7      0.00      0.00
  -14    5    7      4.40      0.00
  -13    5    7     -1.25      0.00
  -12    5    7      2.10      0.00
  -11    5    7     -5.19      0.00
  -10    5    7     12.66      0.00
   -9    5    7     -9.62      0.00
   -8    5    7      0.81      0.00
   -7    5    7      7.66      0.00
   -6    5    7     18.43      0.00
   -5    5    7    -14.52      0.00
   -4    5    7     -8.59      0.00
   -3    5    7     -6.35      0.00
   -2    5    7    -14.26      0.00
   -1    5    7     12.34      0.00
    0    5    7     -0.86      0.00
    1    5    7    -10.96      0.00
    2    5    7     -6.26      0.00
    3    5    7     12.69      0.00
    4    5    7     -1.48      0.00
    5    5    7      2.55      0.00
    6    5    7      1.47      0.00
    7    5    7     -0.06      0.00
    8    5    7     -0.93      0.00
    9    5    7      4.61      0.00
   10    5    7     -4.08      0.00
   11    5    7     -0.91      0.00
   12    5    7      1.80      0.00
  -21    6    7      0.40      0.00
  -20    6    7     -3.05      0.00
  -19    6    7      8.20      0.00
  -18    6    7      3.13      0.00
  -17    6    7     -7.50      0.00
  -16    6    7      4.63      0.00
  -15    6    7     -2.25      0.00
  -14    6    7      5.94      0.00
  -13    6    7     -2.95      0.00
  -12    6    7      5.26      0.00
  -11    6    7     -6.87      0.00
  -10    6    7      0.77      0.00
   -9    6    7     15.35      0.00
   -8    6    7     -5.89      0.00
   -7    6    7    -12.24      0.00
   -6    6    7      1.06      0.00
   -5    6    7     -2.48      0.00
   -4    6    7     15.86      0.00
   -3    6    7      5.99      0.00
   -2    6    7    -18.52      0.00
   -1    6    7     -7.70      0.00
    0    6    7     19.78      0.00
    1    6    7     -5.27      0.00
    2    6    7      3.07      0.00
    3    6    7     10.33      0.00
    4    6    7     -8.87      0.00
    5    6    7      5.79      0.00
    6    6    7      0.58      0.00
    7    6    7     -7.58      0.00
    8    6    7     -3.06      0.00
    9    6    7      3.91      0.00
   10    6    7     -1.97      0.00
   11    6    7     -2.66      0.00
  -21    7    7     -1.64      0.00
  -20    7    7     -1.71      0.00
  -19    7    7     -3.42      0.00
  -18    7    7      2.45      0.00
  -17    7    7     -3.97      0.00
  -16    7    7      0.84      0.00
  -15    7    7     -3.19      0.00
  -14    7    7     -2.40      0.00
  -13    7    7     -5.81      0.00
  -12    7    7     16.48      0.00
  -11    7    7     -9.44      0.00
  -10    7    7      2.20      0.00
   -9    7    7     -3.24      0.00
   -8    7    7      4.71      0.00
   -7    7    7     -3.89      0.00
   -6    7    7      7.84      0.00
   -5    7    7    -10.14      0.00
   -4    7    7    -16.59      0.00
   -3    7    7      3.09      0.00
   -2    7    7      4.99      0.00
   -1    7    7     -9.66      0.00
    0    7    7      3.63      0.00
    1    7    7      6.53      0.00
    2    7    7     -2.10      0.00
    3    7    7     -0.85      0.00
    4    7    7      1.48      0.00
    5    7    7      0.55      0.00
    6    7    7      1.83      0.00
    7    7    7      5.03      0.00
    8    7    7     -2.42      0.00
    9    7    7      2.26      0.00
   10    7    7     -1.17      0.00
   11    7    7     -1.42      0.00
  -21    8    7     -0.20      0.00
  -20    8    7     -0.73      0.00
  -19    8    7     -4.12      0.00
  -18    8    7      4.16      0.00
  -17    8    7     -4.72      0.00
  -16    8    7      6.01      0.00
  -15    8    7     -0.48      0.00
  -14    8    7      4.03      0.00
  -13    8    7     -7.05      0.00
  -12    8    7      4.72      0.00
  -11    8    7     -4.85      0.00
  -10    8    7     -1.00      0.00
   -9    8    7     11.50      0.00
   -8    8    7    -12.27      0.00
   -7    8    7     -7.03      0.00
   -6    8    7     17.47      0.00
   -5    8    7     -3.36      0.00
   -4    8    7    -14.39      0.00
   -3    8    7      4.56      0.00
   -2    8    7      6.27      0.00
   -1    8    7     -2.18      0.00
    0    8    7      1.99      0.00
    1    8    7     -5.24      0.00
    2    8    7      1.99      0.00
    3    8    7     10.37      0.00
    4    8    7     -2.20      0.00
    5    8    7     -3.40      0.00
    6    8    7      0.97      0.00
    7    8    7     -1.43      0.00
    8    8    7     -2.84      0.00
    9    8    7      0.48      0.00
   10    8    7      1.21      0.00
  -21    9    7     -0.95      0.00
  -20    9    7      0.05      0.00
  -19    9    7     -2.71      0.00
  -18    9    7     -2.49      0.00
  -17    9    7      0.20      0.00
  -16    9    7     -0.02      0.00
  -15    9    7     -4.63      0.00
  -14    9    7      0.07      0.00
  -13    9    7     -6.20      0.00
  -12    9    7      8.39      0.00
  -11    9    7     -3.02      0.00
  -10    9    7     -7.32      0.00
   -9    9    7      3.73      0.00
   -8    9    7     -3.40      0.00
   -7    9    7     -3.05      0.00
   -6    9    7     -0.16      0.00
   -5    9    7      6.66      0.00
   -4    9    7    -11.83      0.00
   -3    9    7     -0.40      0.00
   -2    9    7     -4.12      0.00
   -1    9    7      0.08      0.00
    0    9    7     10.81      0.00
    1    9    7      6.89      0.00
    2    9    7     -7.40      0.00
    3    9    7      6.06      0.00
    4    9    7      1.55      0.00
    5    9    7      3.40      0.00
    6    9    7      3.01      0.00
    7    9    7      1.26      0.00
    8    9    7     -1.58      0.00
    9    9    7      3.69      0.00
  -21   10    7     -0.55      0.00
  -20   10    7      4.11      0.00
  -19   10    7     -3.53      0.00
  -18   10    7      2.12      0.00
  -17   10    7      0.65      0.00
  -16   10    7     -0.30      0.00
  -15   10    7      2.41      0.00
  -14   10    7     -1.30      0.00
  -13   10    7     -2.00      0.00
  -12   10    7      0.87      0.00
  -11   10    7      2.54      0.00
  -10   10    7     -6.81      0.00
   -9   10    7      6.34      0.00
   -8   10    7     -4.41      0.00
   -7   10    7      6.70      0.00
   -6   10    7     -4.51      0.00
   -5   10    7      0.52      0.00
   -4   10    7    -11.47      0.00
   -3   10    7     13.62      0.00
   -2   10    7     -1.83      0.00
   -1   10    7     -2.77      0.00
    0   10    7     -3.74      0.00
    1   10    7      7.11      0.00
    2   10    7     -1.12      0.00
    3   10    7     -1.62      0.00
    4   10    7     -0.33      0.00
    5   10    7     -1.07      0.00
    6   10    7      1.94      0.00
    7   10    7      3.06      0.00
    8   10    7     -4.70      0.00
  -21   11    7      0.06      0.00
  -20   11    7     -0.67      0.00
  -19   11    7      1.20      0.00
  -18   11    7      0.31      0.00
  -17   11    7      1.91      0.00
  -16   11    7     -4.90      0.00
  -15   11    7      0.78      0.00
  -14   11    7      1.17      0.00
  -13   11    7     -3.30      0.00
  -12   11    7     -0.45      0.00
  -11   11    7      3.17      0.00
  -10   11    7     -4.87      0.00
   -9   11    7      6.54      0.00
   -8   11    7     -8.88      0.00
   -7   11    7      6.03      0.00
   -6   11    7     -7.58      0.00
   -5   11    7     11.06      0.00
   -4   11    7    -10.03      0.00
   -3   11    7      6.81      0.00
   -2   11    7      0.13      0.00
   -1   11    7      3.96      0.00
    0   11    7     -4.56      0.00
    1   11    7      5.69      0.00
    2   11    7     -3.55      0.00
    3   11    7      9.13      0.00
    4   11    7      0.30      0.00
    5   11    7      0.49      0.00
    6   11    7     -0.79      0.00
    7   11    7      3.47      0.00
    8   11    7     -0.80      0.00
  -21   12    7      0.61      0.00
  -20   12    7     -0.07      0.00
  -19   12    7     -0.05      0.00
  -18   12    7     -1.24      0.00
  -17   12    7      0.71      0.00
  -16   12    7     -0.56      0.00
  -15   12    7      1.32      0.00
  -14   12    7     -0.82      0.00
  -13   12    7      1.85      0.00
  -12   12    7      0.09      0.00
  -11   12    7      5.40      0.00
  -10   12    7     -8.13      0.00
   -9   12    7      3.68      0.00
   -8   12    7      2.73      0.00
   -7   12    7      2.08      0.00
   -6   12    7    -11.49      0.00
   -5   12    7     14.46      0.00
   -4   12    7     -9.31      0.00
   -3   12    7      4.15      0.00
   -2   12    7     -2.73      0.00
   -1   12    7      4.00      0.00
    0   12    7      3.20      0.00
    1   12    7      3.61      0.00
    2   12    7     -7.96      0.00
    3   12    7     -5.27      0.00
    4   12    7      6.17      0.00
    5   12    7      1.59      0.00
    6   12    7      0.92      0.00
    7   12    7      1.68      0.00
  -21   13    7      3.19      0.00
  -20   13    7      0.74      0.00
  -19   13    7      1.86      0.00
  -18   13    7     -1.54      0.00
  -17   13    7      1.28      0.00
  -16   13    7     -4.52      0.00
  -15   13    7      1.06      0.00
  -14   13    7      0.52      0.00
  -13   13    7     -2.13      0.00
  -12   13    7     -2.14      0.00
  -11   13    7      1.73      0.00
  -10   13    7     -6.32      0.00
   -9   13    7     10.01      0.00
   -8   13    7     -4.33      0.00
   -7   13    7      1.34      0.00
   -6   13    7     -6.89      0.00
   -5   13    7      7.33      0.00
   -4   13    7     -8.27      0.00
   -3   13    7      2.05      0.00
   -2   13    7     -2.97      0.00
   -1   13    7      0.72      0.00
    0   13    7     -8.86      0.00
    1   13    7      4.89      0.00
    2   13    7      4.80      0.00
    3   13    7      8.24      0.00
    4   13    7     -2.62      0.00
    5   13    7     -0.82      0.00
    6   13    7     -0.98      0.00
  -21   14    7      0.56      0.00
  -20   14    7     -2.06      0.00
  -19   14    7      0.25      0.00
  -18   14    7     -1.42      0.00
  -17   14    7      3.11      0.00
  -16   14    7     -0.03      0.00
  -15   14    7      2.73      0.00
  -14   14    7     -0.15      0.00
  -13   14    7     -0.93      0.00
  -12   14    7      0.17      0.00
  -11   14    7     -2.20      0.00
  -10   14    7     -0.63      0.00
   -9   14    7     -0.46      0.00
   -8   14    7      1.52      0.00
   -7   14    7      2.72      0.00
   -6   14    7     -4.39      0.00
   -5   14    7      3.88      0.00
   -4   14    7     -3.21      0.00
   -3   14    7      0.74      0.00
   -2   14    7      3.82      0.00
   -1   14    7      1.37      0.00
    0   14    7     -5.55      0.00
    1   14    7     -2.05      0.00
    2   14    7      3.75      0.00
    3   14    7      1.52      0.00
    4   14    7      5.50      0.00
    5   14    7     -2.56      0.00
  -21   15    7      0.38      0.00
  -20   15    7      2.01      0.00
  -19   15    7      0.07      0.00
  -18   15    7     -2.71      0.00
  -17   15    7      2.77      0.00
  -16   15    7      0.11      0.00
  -15   15    7     -1.35      0.00
  -14   15    7     -4.14      0.00
  -13   15    7      0.44      0.00
  -12   15    7     -7.41      0.00
  -11   15    7      2.92      0.00
  -10   15    7     -0.90      0.00
   -9   15    7     -0.45      0.00
   -8   15    7     -0.68      0.00
   -7   15    7      1.42      0.00
   -6   15    7     -4.56      0.00
   -5   15    7     -2.06      0.00
   -4   15    7     -1.01      0.00
   -3   15    7     -4.07      0.00
   -2   15    7     -4.27      0.00
   -1   15    7      7.21      0.00
    0   15    7     -3.38      0.00
    1   15    7      6.69      0.00
    2   15    7      0.93      0.00
    3   15    7      0.95      0.00
    4   15    7     -2.50      0.00
  -20   16    7     -0.44      0.00
  -19   16    7     -0.90      0.00
  -18   16    7     -3.15      0.00
  -17   16    7      3.76      0.00
  -16   16    7      1.55      0.00
  -15   16    7      2.64      0.00
  -14   16    7      2.70      0.00
  -13   16    7     -1.63      0.00
  -12   16    7     -4.70      0.00
  -11   16    7     -0.17      0.00
  -10   16    7      0.96      0.00
   -9   16    7     -0.49      0.00
   -8   16    7      3.01      0.00
   -7   16    7     -0.91      0.00
   -6   16    7     -5.92      0.00
   -5   16    7     -1.00      0.00
   -4   16    7      3.86      0.00
   -3   16    7      0.43      0.00
   -2   16    7      0.50      0.00
   -1   16    7      0.59      0.00
    0   16    7     -0.66      0.00
    1   16    7      0.22      0.00
    2   16    7      2.10      0.00
  -20   17    7      1.13      0.00
  -19   17    7      0.74      0.00
  -18   17    7      0.69      0.00
  -17   17    7      1.40      0.00
  -16   17    7     -5.51      0.00
  -15   17    7     -1.97      0.00
  -14   17    7     -3.30      0.00
  -13   17    7      1.55      0.00
  -12   17    7     -3.13      0.00
  -11   17    7      2.50      0.00
  -10   17    7     -1.11      0.00
   -9   17    7      0.22      0.00
   -8   17    7      0.47      0.00
   -7   17    7      4.49      0.00
   -6   17    7     -1.91      0.00
   -5   17    7     -3.74      0.00
   -4   17    7     -2.12      0.00
   -3   17    7      0.32      0.00
   -2   17    7     -1.30      0.00
   -1   17    7      5.89      0.00
    0   17    7     -2.10      0.00
    1   17    7      1.82      0.00
  -19   18    7      0.44      0.00
  -18   18    7     -2.06      0.00
  -17   18    7      2.90      0.00
  -16   18    7      1.00      0.00
  -15   18    7      1.40      0.00
  -14   18    7      1.48      0.00
  -13   18    7     -3.85      0.00
  -12   18    7     -5.92      0.00
  -11   18    7      4.07      0.00
  -10   18    7      5.65      0.00
   -9   18    7      0.00      0.00
   -8   18    7     -3.08      0.00
   -7   18    7     -3.11      0.00
   -6   18    7      2.66      0.00
   -5   18    7      1.06      0.00
   -4   18    7     -2.16      0.00
   -3   18    7      0.31      0.00
   -2   18    7     -3.85      0.00
   -1   18    7      0.71      0.00
  -19   19    7      1.89      0.00
  -18   19    7     -0.07      0.00
  -17   19    7      2.38      0.00
  -16   19    7     -1.35      0.00
  -15   19    7     -1.97      0.00
  -14   19    7     -2.43      0.00
  -13   19    7     -1.49      0.00
  -12   19    7     -0.56      0.00
  -11   19    7      4.17      0.00
  -10   19    7     -0.23      0.00
   -9   19    7      0.80      0.00
   -8   19    7     -2.46      0.00
   -7   19    7      1.52      0.00
   -6   19    7     -0.40      0.00
   -5   19    7     -2.61      0.00
   -4   19    7     -2.05      0.00
   -3   19    7      3.22      0.00
   -2   19    7      1.51      0.00
  -18   20    7     -1.15      0.00
  -17   20    7      1.20      0.00
  -16   20    7      0.55      0.00
  -15   20    7      1.51      0.00
  -14   20    7     -1.73      0.00
  -13   20    7      1.20      0.00
  -12   20    7      3.99      0.00
  -11   20    7      0.46      0.00
  -10   20    7     -1.44      0.00
   -9   20    7     -0.69      0.00
   -8   20    7     -0.02      0.00
   -7   20    7     -1.99      0.00
   -6   20    7     -2.19      0.00
   -5   20    7     -2.02      0.00
   -4   20    7     -2.73      0.00
  -16   21    7      1.80      0.00
  -15   21    7     -4.69      0.00
  -14   21    7     -0.27      0.00
  -13   21    7      0.37      0.00
  -12   21    7      0.18      0.00
  -11   21    7      2.01      0.00
  -10   21    7     -2.55      0.00
   -9   21    7      1.28      0.00
   -8   21    7     -0.08      0.00
   -7   21    7     -0.47      0.00
    3  -21    8      1.85      0.00
    4  -21    8      2.00      0.00
    5  -21    8      5.19      0.00
    6  -21    8     -1.37      0.00
    7  -21    8     -3.08      0.00
    8  -21    8     -2.51      0.00
    9  -21    8     -3.50      0.00
   10  -21    8      0.88      0.00
    1  -20    8      2.34      0.00
    2  -20    8     -1.95      0.00
    3  -20    8     -3.63      0.00
    4  -20    8     -0.15      0.00
    5  -20    8     -4.19      0.00
    6  -20    8      4.01      0.00
    7  -20    8      1.31      0.00
    8  -20    8      7.93      0.00
    9  -20    8      1.81      0.00
   10  -20    8     -7.11      0.00
   11  -20    8      2.61      0.00
   12  -20    8      5.95      0.00
   -2  -19    8      1.01      0.00
   -1  -19    8      2.02      0.00
    0  -19    8     -5.49      0.00
    1  -19    8     -0.35      0.00
    2  -19    8      1.90      0.00
    3  -19    8     -0.02      0.00
    4  -19    8      1.28      0.00
    5  -19    8      0.27      0.00
    6  -19    8     -3.69      0.00
    7  -19    8     -4.44      0.00
    8  -19    8      1.46      0.00
    9  -19    8      1.25      0.00
   10  -19    8     -2.27      0.00
   11  -19    8      2.23      0.00
   12  -19    8     -1.12      0.00
   13  -19    8      1.89      0.00
   14  -19    8     -3.11      0.00
   -4  -18    8      1.28      0.00
   -3  -18    8     -0.89      0.00
   -2  -18    8     -1.69      0.00
   -1  -18    8      2.29      0.00
    0  -18    8      2.91      0.00
    1  -18    8      1.85      0.00
    2  -18    8      0.35      0.00
    3  -18    8      0.46      0.00
    4  -18    8     -2.40      0.00
    5  -18    8      3.18      0.00
    6  -18    8      5.30      0.00
    7  -18    8      0.58      0.00
    8  -18    8     -1.12      0.00
    9  -18    8      4.14      0.00
   10  -18    8      3.98      0.00
   11  -18    8      3.32      0.00
   12  -18    8      5.35      0.00
   13  -18    8     -0.88      0.00
   14  -18    8      0.49      0.00
   -5  -17    8     -0.08      0.00
   -4  -17    8      2.97      0.00
   -3  -17    8      0.56      0.00
   -2  -17    8     -2.22      0.00
   -1  -17    8     -0.30      0.00
    0  -17    8     -3.85      0.00
    1  -17    8     -1.37      0.00
    2  -17    8      1.13      0.00
    3  -17    8      3.45      0.00
    4  -17    8     -7.54      0.00
    5  -17    8     -1.95      0.00
    6  -17    8     -0.70      0.00
    7  -17    8      1.37      0.00
    8  -17    8      1.86      0.00
    9  -17    8      1.23      0.00
   10  -17    8     -3.89      0.00
   11  -17    8      1.09      0.00
   12  -17    8      3.62      0.00
   13  -17    8     -1.26      0.00
   14  -17    8      0.21      0.00
   15  -17    8     -0.66      0.00
   -6  -16    8      0.41      0.00
   -5  -16    8     -0.02      0.00
   -4  -16    8     -1.06      0.00
   -3  -16    8      1.60      0.00
   -2  -16    8      3.18      0.00
   -1  -16    8      1.66      0.00
    0  -16    8      2.15      0.00
    1  -16    8      2.18      0.00
    2  -16    8      2.79      0.00
    3  -16    8      3.10      0.00
    4  -16    8      4.90      0.00
    5  -16    8      4.41      0.00
    6  -16    8     -1.29      0.00
    7  -16    8      1.71      0.00
    8  -16    8     -0.28      0.00
    9  -16    8      3.44      0.00
   10  -16    8      5.10      0.00
   11  -16    8     -3.66      0.00
   12  -16    8      1.48      0.00
   13  -16    8     -1.46      0.00
   14  -16    8      1.98      0.00
   15  -16    8     -1.37      0.00
   16  -16    8      0.94      0.00
   -8  -15    8     -4.91      0.00
   -7  -15    8      3.66      0.00
   -6  -15    8      3.66      0.00
   -5  -15    8      4.88      0.00
   -4  -15    8      0.77      0.00
   -3  -15    8     -3.54      0.00
   -2  -15    8      0.43      0.00
   -1  -15    8      9.31      0.00
    0  -15    8      0.74      0.00
    1  -15    8      1.02      0.00
    2  -15    8     -4.59      0.00
    3  -15    8     -0.83      0.00
    4  -15    8     -4.71      0.00
    5  -15    8     -2.71      0.00
    6  -15    8     -4.20      0.00
    7  -15    8      3.57      0.00
    8  -15    8      0.16      0.00
    9  -15    8      3.14      0.00
   10  -15    8      1.44      0.00
   11  -15    8     -3.28      0.00
   12  -15    8      4.57      0.00
   13  -15    8     -2.00      0.00
   14  -15    8      1.50      0.00
   15  -15    8     -0.41      0.00
   16  -15    8      0.49      0.00
   -9  -14    8     -0.57      0.00
   -8  -14    8      1.88      0.00
   -7  -14    8      3.75      0.00
   -6  -14    8     -4.15      0.00
   -5  -14    8      0.31      0.00
   -4  -14    8     -1.91      0.00
   -3  -14    8      3.98      0.00
   -2  -14    8      3.55      0.00
   -1  -14    8      2.92      0.00
    0  -14    8      6.46      0.00
    1  -14    8     -0.03      0.00
    2  -14    8      8.14      0.00
    3  -14    8      2.90      0.00
    4  -14    8     -1.59      0.00
    5  -14    8     -1.39      0.00
    6  -14    8      2.94      0.00
    7  -14    8     -4.15      0.00
    8  -14    8      2.78      0.00
    9  -14    8      0.37      0.00
   10  -14    8     -0.56      0.00
   11  -14    8     -3.30      0.00
   12  -14    8      3.70      0.00
   13  -14    8     -2.15      0.00
   14  -14    8      0.51      0.00
   15  -14    8     -4.22      0.00
   16  -14    8     -0.32      0.00
  -10  -13    8     -2.79      0.00
   -9  -13    8      8.03      0.00
   -8  -13    8      0.78      0.00
   -7  -13    8      6.14      0.00
   -6  -13    8      3.52      0.00
   -5  -13    8     -0.10      0.00
   -4  -13    8      2.74      0.00
   -3  -13    8      5.31      0.00
   -2  -13    8      3.68      0.00
   -1  -13    8      0.29      0.00
    0  -13    8     -0.39      0.00
    1  -13    8     -1.44      0.00
    2  -13    8     -2.52      0.00
    3  -13    8     -3.52      0.00
    4  -13    8     -5.52      0.00
    5  -13    8      1.44      0.00
    6  -13    8      1.38      0.00
    7  -13    8     -0.09      0.00
    8  -13    8      0.44      0.00
    9  -13    8      1.86      0.00
   10  -13    8      3.13      0.00
   11  -13    8     -2.24      0.00
   12  -13    8      2.79      0.00
   13  -13    8     -0.49      0.00
   14  -13    8     -0.24      0.00
   15  -13    8     -1.62      0.00
   16  -13    8      2.92      0.00
  -11  -12    8      0.70      0.00
  -10  -12    8     -5.71      0.00
   -9  -12    8      4.46      0.00
   -8  -12    8    -11.87      0.00
   -7  -12    8     -0.40      0.00
   -6  -12    8     -0.07      0.00
   -5  -12    8      1.17      0.00
   -4  -12    8      0.25      0.00
   -3  -12    8      0.61      0.00
   -2  -12    8      0.29      0.00
   -1  -12    8     -4.29      0.00
    0  -12    8      8.75      0.00
    1  -12    8     -0.15      0.00
    2  -12    8      3.45      0.00
    3  -12    8     -5.42      0.00
    4  -12    8      4.69      0.00
    5  -12    8     -5.01      0.00
    6  -12    8      1.66      0.00
    7  -12    8     -1.90      0.00
    8  -12    8      8.02      0.00
    9  -12    8      0.63      0.00
   10  -12    8      4.23      0.00
   11  -12    8     -6.30      0.00
   12  -12    8      4.82      0.00
   13  -12    8     -2.28      0.00
   14  -12    8     -0.87      0.00
   15  -12    8     -1.19      0.00
   16  -12    8      5.23      0.00
   17  -12    8      1.37      0.00
  -12  -11    8     -2.24      0.00
  -11  -11    8      3.23      0.00
  -10  -11    8      3.96      0.00
   -9  -11    8      7.60      0.00
   -8  -11    8      1.91      0.00
   -7  -11    8      0.43      0.00
   -6  -11    8      1.47      0.00
   -5  -11    8      3.98      0.00
   -4  -11    8      1.40      0.00
   -3  -11    8     -2.64      0.00
   -2  -11    8     12.01      0.00
   -1  -11    8    -17.37      0.00
    0  -11    8     -2.09      0.00
    1  -11    8      0.55      0.00
    2  -11    8      0.78      0.00
    3  -11    8     -7.50      0.00
    4  -11    8      7.07      0.00
    5  -11    8     -6.72      0.00
    6  -11    8      5.57      0.00
    7  -11    8      0.20      0.00
    8  -11    8      3.38      0.00
    9  -11    8     -5.89      0.00
   10  -11    8      5.47      0.00
   11  -11    8     -2.08      0.00
   12  -11    8      0.53      0.00
   13  -11    8      0.59      0.00
   14  -11    8      4.21      0.00
   15  -11    8     -1.10      0.00
   16  -11    8     -0.38      0.00
   17  -11    8     -1.87      0.00
  -12  -10    8      0.58      0.00
  -11  -10    8      0.43      0.00
  -10  -10    8    -17.00      0.00
   -9  -10    8     -4.50      0.00
   -8  -10    8      1.70      0.00
   -7  -10    8      7.66      0.00
   -6  -10    8     -1.37      0.00
   -5  -10    8     -8.16      0.00
   -4  -10    8    -11.50      0.00
   -3  -10    8     -0.96      0.00
   -2  -10    8      9.46      0.00
   -1  -10    8     -7.92      0.00
    0  -10    8      7.87      0.00
    1  -10    8     -5.31      0.00
    2  -10    8      2.80      0.00
    3  -10    8     -4.94      0.00
    4  -10    8     16.35      0.00
    5  -10    8    -11.19      0.00
    6  -10    8      8.64      0.00
    7  -10    8      1.92      0.00
    8  -10    8      6.75      0.00
    9  -10    8    -10.10      0.00
   10  -10    8     10.88      0.00
   11  -10    8     -2.81      0.00
   12  -10    8      1.37      0.00
   13  -10    8     -3.08      0.00
   14  -10    8      2.09      0.00
   15  -10    8     -1.24      0.00
   16  -10    8     -0.10      0.00
   17  -10    8     -2.97      0.00
  -13   -9    8      8.99      0.00
  -12   -9    8     -4.84      0.00
  -11   -9    8      5.49      0.00
  -10   -9    8      3.88      0.00
   -9   -9    8      5.85      0.00
   -8   -9    8      1.08      0.00
   -7   -9    8     -0.99      0.00
   -6   -9    8      4.34      0.00
   -5   -9    8      1.46      0.00
   -4   -9    8      1.28      0.00
   -3   -9    8     -9.99      0.00
   -2   -9    8     -0.92      0.00
   -1   -9    8     -8.49      0.00
    0   -9    8      4.53      0.00
    1   -9    8     -1.48      0.00
    2   -9    8      2.63      0.00
    3   -9    8    -15.23      0.00
    4   -9    8     15.03      0.00
    5   -9    8     -4.39      0.00
    6   -9    8     11.77      0.00
    7   -9    8     -3.09      0.00
    8   -9    8      5.87      0.00
    9   -9    8     -4.34      0.00
   10   -9    8      6.66      0.00
   11   -9    8     -5.71      0.00
   12   -9    8      1.75      0.00
   13   -9    8      2.31      0.00
   14   -9    8      2.50      0.00
   15   -9    8     -5.07      0.00
   16   -9    8     -0.76      0.00
   17   -9    8      0.84      0.00
  -14   -8    8      2.54      0.00
  -13   -8    8      2.07      0.00
  -12   -8    8     -4.23      0.00
  -11   -8    8     -4.13      0.00
  -10   -8    8    -12.31      0.00
   -9   -8    8      6.00      0.00
   -8   -8    8      2.52      0.00
   -7   -8    8     -7.26      0.00
   -6   -8    8     -8.92      0.00
   -5   -8    8     -1.30      0.00
   -4   -8    8     -4.47      0.00
   -3   -8    8     -0.73      0.00
   -2   -8    8      8.51      0.00
   -1   -8    8      3.91      0.00
    0   -8    8      1.97      0.00
    1   -8    8     -0.49      0.00
    2   -8    8     10.85      0.00
    3   -8    8    -12.70      0.00
    4   -8    8     11.59      0.00
    5   -8    8     -8.11      0.00
    6   -8    8     12.39      0.00
    7   -8    8     -2.25      0.00
    8   -8    8      2.83      0.00
    9   -8    8     -8.33      0.00
   10   -8    8      7.88      0.00
   11   -8    8      0.09      0.00
   12   -8    8      0.02      0.00
   13   -8    8     -2.73      0.00
   14   -8    8      0.06      0.00
   15   -8    8     -3.15      0.00
   16   -8    8      1.71      0.00
  -15   -7    8      2.96      0.00
  -14   -7    8      0.27      0.00
  -13   -7    8      0.76      0.00
  -12   -7    8      2.55      0.00
  -11   -7    8      6.97      0.00
  -10   -7    8      2.59      0.00
   -9   -7    8     -0.35      0.00
   -8   -7    8      5.13      0.00
   -7   -7    8     11.18      0.00
   -6   -7    8     -7.28      0.00
   -5   -7    8      1.26      0.00
   -4   -7    8    -15.91      0.00
   -3   -7    8     -0.83      0.00
   -2   -7    8      1.44      0.00
   -1   -7    8     -1.54      0.00
    0   -7    8     -7.87      0.00
    1   -7    8     -4.70      0.00
    2   -7    8     10.49      0.00
    3   -7    8     -2.24      0.00
    4   -7    8     19.23      0.00
    5   -7    8     -1.58      0.00
    6   -7    8     -5.01      0.00
    7   -7    8     -9.10      0.00
    8   -7    8     12.36      0.00
    9   -7    8      0.98      0.00
   10   -7    8      0.49      0.00
   11   -7    8      0.91      0.00
   12   -7    8      3.02      0.00
   13   -7    8     -0.73      0.00
   14   -7    8     -1.96      0.00
   15   -7    8     -0.18      0.00
   16   -7    8      4.79      0.00
  -15   -6    8      2.10      0.00
  -14   -6    8     -4.10      0.00
  -13   -6    8      0.15      0.00
  -12   -6    8    -10.70      0.00
  -11   -6    8     -6.73      0.00
  -10   -6    8     -1.72      0.00
   -9   -6    8      2.61      0.00
   -8   -6    8     -7.43      0.00
   -7   -6    8     -5.94      0.00
   -6   -6    8     -4.59      0.00
   -5   -6    8     19.14      0.00
   -4   -6    8     -1.38      0.00
   -2   -6    8      0.71      0.00
   -1   -6    8     19.65      0.00
    0   -6    8     -2.71      0.00
    1   -6    8      4.70      0.00
    2   -6    8     12.55      0.00
    3   -6    8    -24.35      0.00
    4   -6    8     12.69      0.00
    5   -6    8      2.54      0.00
    6   -6    8      1.15      0.00
    7   -6    8     -5.44      0.00
    8   -6    8      2.19      0.00
    9   -6    8     -6.13      0.00
   10   -6    8      2.28      0.00
   11   -6    8      5.86      0.00
   12   -6    8     -0.99      0.00
   13   -6    8     -0.40      0.00
   14   -6    8     -1.72      0.00
   15   -6    8      1.31      0.00
   16   -6    8     -3.78      0.00
  -16   -5    8      0.98      0.00
  -15   -5    8     -2.97      0.00
  -14   -5    8      2.07      0.00
  -13   -5    8      1.20      0.00
  -12   -5    8      6.91      0.00
  -11   -5    8      2.97      0.00
  -10   -5    8     -5.77      0.00
   -9   -5    8      5.57      0.00
   -8   -5    8      2.55      0.00
   -7   -5    8      2.31      0.00
   -6   -5    8     -8.36      0.00
   -5   -5    8     -4.17      0.00
   -4   -5    8     -4.60      0.00
   -3   -5    8     -0.86      0.00
   -2   -5    8     -5.44      0.00
   -1   -5    8     -5.88      0.00
    0   -5    8     -6.42      0.00
    1   -5    8     -2.04      0.00
    2   -5    8      3.03      0.00
    3   -5    8     -3.99      0.00
    4   -5    8     14.06      0.00
    5   -5    8     -2.98      0.00
    6   -5    8      0.47      0.00
    7   -5    8      1.96      0.00
    8   -5    8     10.60      0.00
    9   -5    8     -3.38      0.00
   10   -5    8      2.04      0.00
   11   -5    8      5.71      0.00
   12   -5    8     -1.58      0.00
   13   -5    8     -2.29      0.00
   14   -5    8      1.22      0.00
   15   -5    8      1.22      0.00
   16   -5    8      0.63      0.00
  -17   -4    8      2.62      0.00
  -16   -4    8     -0.07      0.00
  -15   -4    8     -4.23      0.00
  -14   -4    8     -5.12      0.00
  -13   -4    8     -2.28      0.00
  -12   -4    8     -6.65      0.00
  -11   -4    8      2.72      0.00
  -10   -4    8      4.65      0.00
   -9   -4    8     -8.70      0.00
   -8   -4    8      0.48      0.00
   -7   -4    8      6.47      0.00
   -6   -4    8     -6.92      0.00
   -5   -4    8      5.75      0.00
   -4   -4    8     12.26      0.00
   -3   -4    8      7.33      0.00
   -2   -4    8     14.09      0.00
   -1   -4    8     12.43      0.00
    0   -4    8      2.15      0.00
    1   -4    8     -7.43      0.00
    2   -4    8     15.33      0.00
    3   -4    8    -24.23      0.00
    4   -4    8     -1.66      0.00
    5   -4    8     -0.33      0.00
    6   -4    8     -0.64      0.00
    7   -4    8     -4.03      0.00
    8   -4    8      1.13      0.00
    9   -4    8      3.01      0.00
   10   -4    8     -0.25      0.00
   11   -4    8      2.23      0.00
   12   -4    8     -0.97      0.00
   13   -4    8     -1.72      0.00
   14   -4    8      0.66      0.00
   15   -4    8     -1.08      0.00
   16   -4    8     -2.26      0.00
  -17   -3    8     -6.88      0.00
  -16   -3    8     -2.91      0.00
  -15   -3    8      4.23      0.00
  -14   -3    8      5.38      0.00
  -13   -3    8      0.63      0.00
  -12   -3    8     -3.80      0.00
  -11   -3    8     -5.49      0.00
  -10   -3    8      5.56      0.00
   -9   -3    8      0.66      0.00
   -8   -3    8      6.89      0.00
   -7   -3    8     -3.70      0.00
   -6   -3    8     18.02      0.00
   -5   -3    8    -26.33      0.00
   -4   -3    8      8.22      0.00
   -3   -3    8    -32.93      0.00
   -2   -3    8     -3.62      0.00
   -1   -3    8     19.53      0.00
    0   -3    8      4.17      0.00
    1   -3    8    -35.25      0.00
    2   -3    8     18.60      0.00
    3   -3    8      3.82      0.00
    4   -3    8      2.60      0.00
    5   -3    8     -3.12      0.00
    6   -3    8     11.00      0.00
    7   -3    8     -4.71      0.00
    8   -3    8      8.87      0.00
    9   -3    8     -0.05      0.00
   10   -3    8     -2.58      0.00
   11   -3    8     -3.11      0.00
   12   -3    8     -5.34      0.00
   13   -3    8     -0.16      0.00
   14   -3    8     -0.26      0.00
   15   -3    8     -1.91      0.00
  -18   -2    8     -1.70      0.00
  -17   -2    8     -0.09      0.00
  -16   -2    8     -0.56      0.00
  -15   -2    8     -9.50      0.00
  -14   -2    8     -1.11      0.00
  -13   -2    8      3.72      0.00
  -12   -2    8      1.13      0.00
  -11   -2    8     -4.71      0.00
  -10   -2    8      7.18      0.00
   -9   -2    8     -7.90      0.00
   -8   -2    8     11.43      0.00
   -7   -2    8     -2.16      0.00
   -6   -2    8      2.96      0.00
   -5   -2    8     -8.52      0.00
   -4   -2    8     43.81      0.00
   -3   -2    8      3.23      0.00
   -2   -2    8      5.60      0.00
   -1   -2    8    -15.71      0.00
    0   -2    8     22.68      0.00
    1   -2    8    -12.98      0.00
    2   -2    8     15.25      0.00
    3   -2    8    -20.48      0.00
    4   -2    8     -2.60      0.00
    5   -2    8      1.83      0.00
    6   -2    8      5.43      0.00
    7   -2    8    -10.48      0.00
    8   -2    8     -1.55      0.00
    9   -2    8      3.05      0.00
   10   -2    8     -4.28      0.00
   11   -2    8     -2.32      0.00
   12   -2    8      0.80      0.00
   13   -2    8     -0.95      0.00
   14   -2    8     -2.36      0.00
   15   -2    8     -1.17      0.00
  -18   -1    8     -3.20      0.00
  -17   -1    8     -3.30      0.00
  -16   -1    8      1.51      0.00
  -15   -1    8      3.50      0.00
  -14   -1    8     -4.42      0.00
  -13   -1    8      1.32      0.00
  -12   -1    8      7.65      0.00
  -11   -1    8     -4.69      0.00
  -10   -1    8     14.12      0.00
   -9   -1    8    -13.56      0.00
   -8   -1    8      7.32      0.00
   -7   -1    8    -14.09      0.00
   -6   -1    8     28.82      0.00
   -5   -1    8    -39.15      0.00
   -4   -1    8     15.96      0.00
   -3   -1    8    -30.62      0.00
   -2   -1    8      6.80      0.00
   -1   -1    8     -2.02      0.00
    0   -1    8     -1.64      0.00
    1   -1    8    -28.30      0.00
    2   -1    8     36.63      0.00
    3   -1    8     -4.02      0.00
    4   -1    8     -1.36      0.00
    5   -1    8     -0.84      0.00
    6   -1    8     23.61      0.00
    7   -1    8     -3.36      0.00
    8   -1    8      4.14      0.00
    9   -1    8     -5.19      0.00
   10   -1    8     -4.46      0.00
   11   -1    8     -0.52      0.00
   12   -1    8     -0.58      0.00
   13   -1    8      2.49      0.00
   14   -1    8     -0.42      0.00
   15   -1    8     -1.00      0.00
  -19    0    8     -2.24      0.00
  -18    0    8      0.44      0.00
  -17    0    8     -6.57      0.00
  -16    0    8      1.17      0.00
  -15    0    8      5.12      0.00
  -14    0    8     -1.23      0.00
  -13    0    8     -5.85      0.00
  -12    0    8     -0.27      0.00
  -11    0    8     -4.96      0.00
  -10    0    8      9.72      0.00
   -9    0    8      2.54      0.00
   -8    0    8      9.87      0.00
   -7    0    8    -20.23      0.00
   -6    0    8     17.02      0.00
   -5    0    8    -17.50      0.00
   -4    0    8     32.51      0.00
   -3    0    8     -7.51      0.00
   -2    0    8     14.54      0.00
   -1    0    8     -5.95      0.00
    0    0    8     21.79      0.00
    1    0    8    -33.48      0.00
    2    0    8     -5.34      0.00
    3    0    8      3.05      0.00
    4    0    8     10.49      0.00
    5    0    8     -1.56      0.00
    6    0    8     -0.86      0.00
    7    0    8    -13.79      0.00
    8    0    8     -0.66      0.00
    9    0    8      2.49      0.00
   10    0    8     -4.01      0.00
   11    0    8     -1.50      0.00
   12    0    8      1.77      0.00
   13    0    8      0.95      0.00
   14    0    8     -0.02      0.00
  -20    1    8      4.20      0.00
  -19    1    8     -4.17      0.00
  -18    1    8     -9.35      0.00
  -17    1    8     -1.25      0.00
  -16    1    8      4.03      0.00
  -15    1    8      1.10      0.00
  -14    1    8      0.99      0.00
  -13    1    8      4.74      0.00
  -12    1    8      2.81      0.00
  -11    1    8     -5.39      0.00
  -10    1    8     11.94      0.00
   -9    1    8     -9.09      0.00
   -8    1    8     -0.71      0.00
   -7    1    8    -10.03      0.00
   -6    1    8     13.56      0.00
   -5    1    8    -28.74      0.00
   -4    1    8     13.31      0.00
   -3    1    8    -10.20      0.00
   -2    1    8     -9.91      0.00
   -1    1    8    -23.10      0.00
    0    1    8     24.81      0.00
    1    1    8      1.21      0.00
    2    1    8     15.98      0.00
    3    1    8     -5.68      0.00
    4    1    8      8.04      0.00
    5    1    8      4.63      0.00
    6    1    8     12.21      0.00
    7    1    8     -3.73      0.00
    8    1    8     -1.88      0.00
    9    1    8     -1.37      0.00
   10    1    8     -0.36      0.00
   11    1    8      2.60      0.00
   12    1    8     -1.65      0.00
   13    1    8      0.46      0.00
   14    1    8     -0.31      0.00
  -20    2    8     -1.44      0.00
  -19    2    8     -3.78      0.00
  -18    2    8     -2.19      0.00
  -17    2    8      2.36      0.00
  -16    2    8      2.01      0.00
  -15    2    8      2.26      0.00
  -14    2    8     -2.64      0.00
  -13    2    8      0.82      0.00
  -12    2    8      3.58      0.00
  -11    2    8     -0.25      0.00
  -10    2    8      0.61      0.00
   -9    2    8     -0.10      0.00
   -8    2    8      1.51      0.00
   -7    2    8    -10.16      0.00
   -6    2    8     30.21      0.00
   -5    2    8    -27.27      0.00
   -4    2    8      4.54      0.00
   -3    2    8     11.30      0.00
   -2    2    8     -6.45      0.00
   -1    2    8     -7.05      0.00
    0    2    8     19.21      0.00
    1    2    8    -15.33      0.00
    2    2    8     -0.99      0.00
    3    2    8     26.21      0.00
    4    2    8     -4.81      0.00
    5    2    8    -13.67      0.00
    6    2    8      0.91      0.00
    7    2    8     -4.67      0.00
    8    2    8     -3.22      0.00
    9    2    8      0.59      0.00
   10    2    8      1.22      0.00
   11    2    8      2.18      0.00
   12    2    8     -1.14      0.00
   13    2    8     -0.03      0.00
  -20    3    8     -0.18      0.00
  -19    3    8      0.25      0.00
  -18    3    8      1.49      0.00
  -17    3    8      1.00      0.00
  -16    3    8      2.46      0.00
  -15    3    8      1.26      0.00
  -14    3    8     -0.12      0.00
  -13    3    8      0.12      0.00
  -12    3    8      3.28      0.00
  -11    3    8      9.38      0.00
  -10    3    8      0.24      0.00
   -9    3    8     -2.90      0.00
   -8    3    8    -12.21      0.00
   -7    3    8     -6.64      0.00
   -6    3    8     -0.58      0.00
   -5    3    8     -1.02      0.00
   -4    3    8     -7.58      0.00
   -3    3    8     -1.32      0.00
   -2    3    8     -3.21      0.00
   -1    3    8     -4.08      0.00
    0    3    8     12.30      0.00
    1    3    8      5.89      0.00
    2    3    8     -0.24      0.00
    3    3    8     15.08      0.00
    4    3    8     11.42      0.00
    5    3    8     -4.79      0.00
    6    3    8      0.13      0.00
    7    3    8     -1.13      0.00
    8    3    8     -4.00      0.00
    9    3    8      5.92      0.00
   10    3    8      1.29      0.00
   11    3    8     -4.05      0.00
   12    3    8      3.52      0.00
   13    3    8      5.52      0.00
  -21    4    8     -4.01      0.00
  -20    4    8     -2.70      0.00
  -19    4    8      2.25      0.00
  -18    4    8      9.87      0.00
  -17    4    8     -4.18      0.00
  -16    4    8     -3.45      0.00
  -15    4    8      0.90      0.00
  -14    4    8     -1.70      0.00
  -13    4    8     11.57      0.00
  -12    4    8      2.00      0.00
  -11    4    8     -2.86      0.00
  -10    4    8     -0.94      0.00
   -9    4    8      7.20      0.00
   -8    4    8      9.08      0.00
   -7    4    8    -16.26      0.00
   -6    4    8     12.79      0.00
   -5    4    8      3.48      0.00
   -4    4    8     -8.23      0.00
   -3    4    8     10.73      0.00
   -2    4    8     -7.43      0.00
   -1    4    8      9.15      0.00
    0    4    8     12.99      0.00
    1    4    8     14.96      0.00
    2    4    8     -9.24      0.00
    3    4    8      4.14      0.00
    4    4    8    -11.23      0.00
    5    4    8     -0.32      0.00
    6    4    8      2.27      0.00
    7    4    8     -4.74      0.00
    8    4    8     -5.51      0.00
    9    4    8      0.94      0.00
   10    4    8      2.87      0.00
   11    4    8     -1.66      0.00
   12    4    8      0.57      0.00
  -21    5    8      0.69      0.00
  -20    5    8     -1.07      0.00
  -19    5    8      0.22      0.00
  -18    5    8      0.60      0.00
  -17    5    8     -4.60      0.00
  -16    5    8      5.45      0.00
  -15    5    8      3.93      0.00
  -14    5    8      1.72      0.00
  -13    5    8     -0.61      0.00
  -12    5    8      7.35      0.00
  -11    5    8      3.54      0.00
  -10    5    8    -20.37      0.00
   -9    5    8      7.32      0.00
   -8    5    8      1.03      0.00
   -7    5    8     -9.52      0.00
   -6    5    8     -4.50      0.00
   -5    5    8     -1.83      0.00
   -4    5    8    -18.24      0.00
   -3    5    8     18.79      0.00
   -2    5    8      9.93      0.00
   -1    5    8    -11.37      0.00
    0    5    8      1.22      0.00
    1    5    8     13.20      0.00
    2    5    8     -1.68      0.00
    3    5    8     11.09      0.00
    4    5    8     -3.22      0.00
    5    5    8     -3.18      0.00
    6    5    8      1.42      0.00
    7    5    8     -0.05      0.00
    8    5    8     -2.47      0.00
    9    5    8     -1.00      0.00
   10    5    8      1.07      0.00
   11    5    8      2.61      0.00
   12    5    8      0.39      0.00
  -21    6    8      0.11      0.00
  -20    6    8      4.55      0.00
  -19    6    8     -4.83      0.00
  -18    6    8     -0.81      0.00
  -17    6    8     -1.22      0.00
  -16    6    8      0.73      0.00
  -15    6    8      5.37      0.00
  -14    6    8     -2.63      0.00
  -13    6    8     -2.74      0.00
  -12    6    8      6.37      0.00
  -11    6    8      1.54      0.00
  -10    6    8     -1.13      0.00
   -9    6    8     -3.71      0.00
   -8    6    8     -2.28      0.00
   -7    6    8     -5.74      0.00
   -6    6    8     15.06      0.00
   -5    6    8     17.91      0.00
   -4    6    8    -20.03      0.00
   -3    6    8     -3.07      0.00
   -2    6    8      9.25      0.00
   -1    6    8     10.99      0.00
    0    6    8      1.79      0.00
    1    6    8     13.70      0.00
    2    6    8     -9.46      0.00
    3    6    8     -3.28      0.00
    4    6    8      1.11      0.00
    5    6    8     -3.24      0.00
    6    6    8     -9.06      0.00
    7    6    8      2.41      0.00
    8    6    8      4.37      0.00
    9    6    8     -0.95      0.00
   10    6    8      2.52      0.00
   11    6    8     -2.95      0.00
  -21    7    8      2.37      0.00
  -20    7    8     -0.65      0.00
  -19    7    8     -4.44      0.00
  -18    7    8      4.26      0.00
  -17    7    8     -4.69      0.00
  -16    7    8      2.60      0.00
  -15    7    8     -0.64      0.00
  -14    7    8      8.80      0.00
  -13    7    8      0.30      0.00
  -12    7    8      1.39      0.00
  -11    7    8     -7.75      0.00
  -10    7    8     -9.60      0.00
   -9    7    8      1.92      0.00
   -8    7    8      5.39      0.00
   -7    7    8    -12.19      0.00
   -6    7    8     -2.02      0.00
   -5    7    8     -1.44      0.00
   -4    7    8     -7.60      0.00
   -3    7    8      8.01      0.00
   -2    7    8      6.98      0.00
   -1    7    8    -10.51      0.00
    0    7    8      6.51      0.00
    1    7    8      3.72      0.00
    2    7    8    -11.11      0.00
    3    7    8      3.53      0.00
    4    7    8      0.39      0.00
    5    7    8     -6.90      0.00
    6    7    8      2.89      0.00
    7    7    8     -1.94      0.00
    8    7    8     -3.69      0.00
    9    7    8     -0.43      0.00
   10    7    8      3.70      0.00
  -21    8    8     -0.06      0.00
  -20    8    8      0.68      0.00
  -19    8    8     -6.02      0.00
  -18    8    8      2.09      0.00
  -17    8    8      1.64      0.00
  -16    8    8      0.81      0.00
  -15    8    8     -2.83      0.00
  -14    8    8      0.92      0.00
  -13    8    8     -7.60      0.00
  -12    8    8      6.09      0.00
  -11    8    8      1.97      0.00
  -10    8    8      1.15      0.00
   -9    8    8    -10.22      0.00
   -8    8    8     10.92      0.00
   -7    8    8      3.45      0.00
   -6    8    8     -1.11      0.00
   -5    8    8     -4.61      0.00
   -4    8    8     -0.98      0.00
   -3    8    8     -0.12      0.00
   -2    8    8     10.27      0.00
   -1    8    8     -6.24      0.00
    0    8    8     -1.78      0.00
    1    8    8      9.59      0.00
    2    8    8     -1.18      0.00
    3    8    8     -4.92      0.00
    4    8    8     -2.02      0.00
    5    8    8     -2.97      0.00
    6    8    8     -0.13      0.00
    7    8    8     -2.05      0.00
    8    8    8     -1.43      0.00
    9    8    8     -3.31      0.00
   10    8    8      5.21      0.00
  -22    9    8     -2.05      0.00
  -21    9    8     -1.40      0.00
  -20    9    8      2.34      0.00
  -19    9    8     -6.14      0.00
  -18    9    8      4.59      0.00
  -17    9    8      0.74      0.00
  -16    9    8      2.18      0.00
  -15    9    8     -0.95      0.00
  -14    9    8      7.18      0.00
  -13    9    8     -4.98      0.00
  -12    9    8     -0.94      0.00
  -11    9    8     -5.88      0.00
  -10    9    8     -1.96      0.00
   -9    9    8     -2.22      0.00
   -8    9    8      5.86      0.00
   -7    9    8    -10.10      0.00
   -6    9    8      4.37      0.00
   -5    9    8     -2.75      0.00
   -4    9    8     -2.12      0.00
   -3    9    8     -8.64      0.00
   -2    9    8     13.46      0.00
   -1    9    8      1.99      0.00
    0    9    8     -4.33      0.00
    1    9    8     -6.01      0.00
    2    9    8     -3.07      0.00
    3    9    8     -3.10      0.00
    4    9    8      4.04      0.00
    5    9    8     -2.14      0.00
    6    9    8     -1.91      0.00
    7    9    8      1.47      0.00
    8    9    8     -1.82      0.00
    9    9    8     -4.24      0.00
  -22   10    8      0.24      0.00
  -21   10    8     -1.92      0.00
  -20   10    8     -0.16      0.00
  -19   10    8     -4.12      0.00
  -18   10    8      0.54      0.00
  -17   10    8     -0.26      0.00
  -16   10    8      1.69      0.00
  -15   10    8     -4.60      0.00
  -14   10    8      5.53      0.00
  -13   10    8     -4.43      0.00
  -12   10    8      1.74      0.00
  -11   10    8      0.44      0.00
  -10   10    8      1.53      0.00
   -9   10    8      0.34      0.00
   -8   10    8     10.43      0.00
   -7   10    8     -7.84      0.00
   -6   10    8     -5.88      0.00
   -5   10    8      7.02      0.00
   -4   10    8      9.00      0.00
   -3   10    8     -8.10      0.00
   -2   10    8      3.29      0.00
   -1   10    8     -1.78      0.00
    0   10    8      1.91      0.00
    1   10    8      4.99      0.00
    2   10    8     -3.55      0.00
    3   10    8     -1.87      0.00
    4   10    8      3.43      0.00
    5   10    8     -2.98      0.00
    6   10    8     -0.40      0.00
    7   10    8     -4.28      0.00
    8   10    8      1.55      0.00
  -22   11    8      0.92      0.00
  -21   11    8     -1.93      0.00
  -20   11    8      2.42      0.00
  -19   11    8      0.21      0.00
  -18   11    8      2.50      0.00
  -17   11    8     -0.93      0.00
  -16   11    8      3.49      0.00
  -15   11    8     -0.29      0.00
  -14   11    8      0.87      0.00
  -13   11    8     -3.28      0.00
  -12   11    8      0.53      0.00
  -11   11    8     -0.13      0.00
  -10   11    8      0.17      0.00
   -9   11    8     -6.93      0.00
   -8   11    8      6.89      0.00
   -7   11    8     -1.27      0.00
   -6   11    8     -3.73      0.00
   -5   11    8      0.09      0.00
   -4   11    8      3.22      0.00
   -3   11    8     -2.16      0.00
   -2   11    8      1.02      0.00
   -1   11    8     -2.17      0.00
    0   11    8     -4.97      0.00
    1   11    8      1.10      0.00
    2   11    8      2.70      0.00
    3   11    8     -4.91      0.00
    4   11    8      0.39      0.00
    5   11    8     -0.80      0.00
    6   11    8     -3.89      0.00
    7   11    8      1.41      0.00
  -21   12    8     -4.96      0.00
  -20   12    8     -0.26      0.00
  -19   12    8      1.63      0.00
  -18   12    8     -1.64      0.00
  -17   12    8      2.66      0.00
  -16   12    8     -0.67      0.00
  -15   12    8     -4.66      0.00
  -14   12    8      4.15      0.00
  -13   12    8     -0.58      0.00
  -12   12    8      0.82      0.00
  -11   12    8      0.57      0.00
  -10   12    8     -0.33      0.00
   -9   12    8      5.79      0.00
   -8   12    8     -1.57      0.00
   -7   12    8      4.63      0.00
   -6   12    8     -4.46      0.00
   -5   12    8      4.73      0.00
   -4   12    8     -3.37      0.00
   -3   12    8     -2.57      0.00
   -2   12    8      3.24      0.00
   -1   12    8      7.10      0.00
    0   12    8     -5.76      0.00
    1   12    8     -2.76      0.00
    2   12    8      1.04      0.00
    3   12    8      6.51      0.00
    4   12    8      4.03      0.00
    5   12    8     -3.06      0.00
    6   12    8     -3.10      0.00
  -21   13    8      0.87      0.00
  -20   13    8      0.18      0.00
  -19   13    8      0.53      0.00
  -18   13    8     -0.68      0.00
  -17   13    8      1.31      0.00
  -16   13    8      2.17      0.00
  -15   13    8     -1.82      0.00
  -14   13    8      0.34      0.00
  -13   13    8     -1.45      0.00
  -12   13    8      1.57      0.00
  -11   13    8     -0.80      0.00
  -10   13    8      4.97      0.00
   -9   13    8     -4.25      0.00
   -8   13    8     -2.21      0.00
   -7   13    8      7.48      0.00
   -6   13    8     -6.92      0.00
   -5   13    8      0.45      0.00
   -4   13    8     -0.29      0.00
   -3   13    8      1.08      0.00
   -2   13    8     -1.59      0.00
   -1   13    8      1.77      0.00
    0   13    8     -0.05      0.00
    1   13    8      5.46      0.00
    2   13    8      2.25      0.00
    3   13    8     -7.46      0.00
    4   13    8     -1.65      0.00
    5   13    8      2.43      0.00
  -21   14    8     -2.05      0.00
  -20   14    8      1.46      0.00
  -19   14    8      1.13      0.00
  -18   14    8     -1.67      0.00
  -17   14    8      1.85      0.00
  -16   14    8      1.22      0.00
  -15   14    8     -4.17      0.00
  -14   14    8      0.65      0.00
  -13   14    8      1.00      0.00
  -12   14    8     -3.78      0.00
  -11   14    8      4.34      0.00
  -10   14    8      2.65      0.00
   -9   14    8      0.89      0.00
   -8   14    8     -5.47      0.00
   -7   14    8      7.91      0.00
   -6   14    8     -9.25      0.00
   -5   14    8     -1.50      0.00
   -4   14    8     -0.12      0.00
   -3   14    8      1.18      0.00
   -2   14    8     -4.67      0.00
   -1   14    8      3.03      0.00
    0   14    8     -4.19      0.00
    1   14    8      4.24      0.00
    2   14    8      5.65      0.00
    3   14    8     -0.11      0.00
    4   14    8     -1.98      0.00
  -21   15    8      1.87      0.00
  -20   15    8      0.15      0.00
  -19   15    8     -0.67      0.00
  -18   15    8     -0.01      0.00
  -17   15    8      1.82      0.00
  -16   15    8      0.10      0.00
  -15   15    8     -2.48      0.00
  -14   15    8      3.29      0.00
  -13   15    8     -1.34      0.00
  -12   15    8      0.06      0.00
  -11   15    8      1.26      0.00
  -10   15    8      2.15      0.00
   -9   15    8     -0.31      0.00
   -8   15    8     -0.89      0.00
   -7   15    8      3.78      0.00
   -6   15    8     -3.26      0.00
   -5   15    8      3.19      0.00
   -4   15    8      2.74      0.00
   -3   15    8      1.82      0.00
   -2   15    8      3.35      0.00
   -1   15    8      3.61      0.00
    0   15    8      1.96      0.00
    1   15    8     -2.41      0.00
    2   15    8     -1.57      0.00
    3   15    8     -2.18      0.00
  -20   16    8     -1.08      0.00
  -19   16    8      0.49      0.00
  -18   16    8      1.71      0.00
  -17   16    8      1.66      0.00
  -16   16    8     -1.34      0.00
  -15   16    8     -1.77      0.00
  -14   16    8     -1.77      0.00
  -13   16    8      1.03      0.00
  -12   16    8      2.90      0.00
  -11   16    8      1.34      0.00
  -10   16    8      2.85      0.00
   -9   16    8      0.43      0.00
   -8   16    8     -5.24      0.00
   -7   16    8     -1.48      0.00
   -6   16    8      0.71      0.00
   -5   16    8     -0.05      0.00
   -4   16    8     -2.57      0.00
   -3   16    8      1.61      0.00
   -2   16    8     -4.84      0.00
   -1   16    8      4.09      0.00
    0   16    8      1.25      0.00
    1   16    8      0.85      0.00
    2   16    8      0.16      0.00
  -20   17    8     -0.42      0.00
  -19   17    8      0.44      0.00
  -18   17    8     -0.58      0.00
  -17   17    8      0.43      0.00
  -16   17    8     -0.03      0.00
  -15   17    8      0.77      0.00
  -14   17    8      0.18      0.00
  -13   17    8      1.75      0.00
  -12   17    8      0.76      0.00
  -11   17    8      1.27      0.00
  -10   17    8      2.97      0.00
   -9   17    8      1.66      0.00
   -8   17    8      0.72      0.00
   -7   17    8     -2.00      0.00
   -6   17    8      2.78      0.00
   -5   17    8      1.85      0.00
   -4   17    8      3.50      0.00
   -3   17    8      3.02      0.00
   -2   17    8      0.04      0.00
   -1   17    8      0.69      0.00
    0   17    8     -0.57      0.00
  -19   18    8      0.26      0.00
  -18   18    8      0.07      0.00
  -17   18    8      4.61      0.00
  -16   18    8     -2.12      0.00
  -15   18    8     -0.69      0.00
  -14   18    8     -3.26      0.00
  -13   18    8     -0.16      0.00
  -12   18    8      7.74      0.00
  -11   18    8      5.32      0.00
  -10   18    8      0.66      0.00
   -9   18    8     -1.27      0.00
   -8   18    8     -1.49      0.00
   -7   18    8      3.64      0.00
   -6   18    8      2.87      0.00
   -5   18    8     -3.38      0.00
   -4   18    8     -1.58      0.00
   -3   18    8      1.01      0.00
   -2   18    8     -1.51      0.00
   -1   18    8      0.80      0.00
  -18   19    8     -0.49      0.00
  -17   19    8      1.24      0.00
  -16   19    8     -1.63      0.00
  -15   19    8      3.41      0.00
  -14   19    8      0.64      0.00
  -13   19    8      2.72      0.00
  -12   19    8      2.87      0.00
  -11   19    8      0.34      0.00
  -10   19    8     -0.82      0.00
   -9   19    8      2.87      0.00
   -8   19    8      1.93      0.00
   -7   19    8     -1.15      0.00
   -6   19    8      1.46      0.00
   -5   19    8      1.62      0.00
   -4   19    8      0.95      0.00
   -3   19    8      4.14      0.00
  -17   20    8      0.82      0.00
  -16   20    8      1.29      0.00
  -15   20    8     -2.45      0.00
  -14   20    8      2.72      0.00
  -13   20    8      5.04      0.00
  -12   20    8      1.51      0.00
  -11   20    8     -0.86      0.00
  -10   20    8     -0.38      0.00
   -9   20    8      3.91      0.00
   -8   20    8     -0.28      0.00
   -7   20    8     -2.13      0.00
   -6   20    8     -0.27      0.00
   -5   20    8      0.09      0.00
  -15   21    8      1.42      0.00
  -14   21    8      3.62      0.00
  -13   21    8      2.41      0.00
  -12   21    8      2.27      0.00
  -11   21    8      0.19      0.00
  -10   21    8      1.29      0.00
   -9   21    8      1.85      0.00
   -8   21    8      0.49      0.00
    4  -21    9     -3.41      0.00
    5  -21    9     -2.94      0.00
    6  -21    9     -0.84      0.00
    7  -21    9     -1.20      0.00
    8  -21    9      2.02      0.00
    1  -20    9     -4.26      0.00
    2  -20    9     -0.61      0.00
    3  -20    9      1.61      0.00
    4  -20    9      1.79      0.00
    5  -20    9      6.68      0.00
    6  -20    9      5.81      0.00
    7  -20    9      1.12      0.00
    8  -20    9     -1.49      0.00
    9  -20    9     -4.53      0.00
   10  -20    9      0.80      0.00
   11  -20    9      5.28      0.00
   -2  -19    9     -0.58      0.00
   -1  -19    9     -0.63      0.00
    0  -19    9      0.99      0.00
    1  -19    9      2.17      0.00
    2  -19    9     -1.31      0.00
    3  -19    9      0.01      0.00
    4  -19    9     -5.60      0.00
    5  -19    9     -3.34      0.00
    6  -19    9      1.87      0.00
    7  -19    9      2.12      0.00
    8  -19    9     -4.25      0.00
    9  -19    9      0.76      0.00
   10  -19    9      1.12      0.00
   11  -19    9     -1.88      0.00
   12  -19    9      1.23      0.00
   13  -19    9     -1.11      0.00
   -4  -18    9      1.97      0.00
   -3  -18    9      0.47      0.00
   -2  -18    9      2.70      0.00
   -1  -18    9      2.84      0.00
    0  -18    9      1.25      0.00
    1  -18    9     -3.43      0.00
    2  -18    9      2.98      0.00
    3  -18    9      5.19      0.00
    4  -18    9      2.80      0.00
    5  -18    9      4.11      0.00
    6  -18    9      3.42      0.00
    7  -18    9     -2.90      0.00
    8  -18    9     -1.33      0.00
    9  -18    9      5.15      0.00
   10  -18    9     -0.59      0.00
   11  -18    9     -2.65      0.00
   12  -18    9     -2.89      0.00
   13  -18    9      2.99      0.00
   14  -18    9     -3.41      0.00
   -5  -17    9     -1.14      0.00
   -4  -17    9     -2.37      0.00
   -3  -17    9     -2.70      0.00
   -2  -17    9     -1.14      0.00
   -1  -17    9     -1.35      0.00
    0  -17    9      2.13      0.00
    1  -17    9      1.34      0.00
    2  -17    9     -1.71      0.00
    3  -17    9     -0.31      0.00
    4  -17    9     -4.13      0.00
    5  -17    9      4.56      0.00
    6  -17    9     -1.59      0.00
    7  -17    9      2.11      0.00
    8  -17    9     -5.77      0.00
    9  -17    9     -1.64      0.00
   10  -17    9      4.61      0.00
   11  -17    9      1.35      0.00
   12  -17    9     -2.24      0.00
   13  -17    9      2.02      0.00
   14  -17    9     -1.37      0.00
   -6  -16    9      3.88      0.00
   -5  -16    9     -0.79      0.00
   -4  -16    9      1.26      0.00
   -3  -16    9      3.96      0.00
   -2  -16    9     -1.53      0.00
   -1  -16    9      2.47      0.00
    0  -16    9     -1.18      0.00
    1  -16    9      5.95      0.00
    2  -16    9     -2.29      0.00
    3  -16    9      7.35      0.00
    4  -16    9     -0.40      0.00
    5  -16    9     -1.70      0.00
    6  -16    9      2.05      0.00
    7  -16    9      2.68      0.00
    8  -16    9     -1.42      0.00
    9  -16    9      1.50      0.00
   10  -16    9     -2.55      0.00
   11  -16    9     -3.51      0.00
   12  -16    9      0.26      0.00
   13  -16    9      3.52      0.00
   14  -16    9     -1.50      0.00
   15  -16    9     -1.92      0.00
   -8  -15    9      1.28      0.00
   -7  -15    9     -0.13      0.00
   -6  -15    9     -0.29      0.00
   -5  -15    9     -2.92      0.00
   -4  -15    9     -3.77      0.00
   -3  -15    9     -2.77      0.00
   -2  -15    9      5.20      0.00
   -1  -15    9     -1.48      0.00
    0  -15    9     -1.70      0.00
    1  -15    9      1.85      0.00
    2  -15    9     -4.77      0.00
    3  -15    9      3.27      0.00
    4  -15    9     -5.63      0.00
    5  -15    9      3.43      0.00
    6  -15    9      1.39      0.00
    7  -15    9      0.85      0.00
    8  -15    9      1.90      0.00
    9  -15    9      2.90      0.00
   10  -15    9      1.82      0.00
   11  -15    9     -0.98      0.00
   12  -15    9     -0.34      0.00
   13  -15    9     -0.20      0.00
   14  -15    9      1.93      0.00
   15  -15    9     -3.35      0.00
   -9  -14    9      2.07      0.00
   -8  -14    9      3.29      0.00
   -7  -14    9     -4.14      0.00
   -6  -14    9     -2.85      0.00
   -5  -14    9      2.83      0.00
   -4  -14    9      2.02      0.00
   -3  -14    9      2.37      0.00
   -2  -14    9     -2.47      0.00
   -1  -14    9      2.90      0.00
    0  -14    9     -3.50      0.00
    1  -14    9      8.56      0.00
    2  -14    9     -3.81      0.00
    3  -14    9     -0.88      0.00
    4  -14    9     -4.01      0.00
    5  -14    9      4.62      0.00
    6  -14    9     -1.49      0.00
    7  -14    9      5.84      0.00
    8  -14    9     -0.93      0.00
    9  -14    9     -3.10      0.00
   10  -14    9      2.19      0.00
   11  -14    9     -1.28      0.00
   12  -14    9     -0.14      0.00
   13  -14    9     -1.01      0.00
   14  -14    9      1.19      0.00
   15  -14    9     -0.72      0.00
   16  -14    9      4.90      0.00
  -10  -13    9      2.25      0.00
   -9  -13    9      3.52      0.00
   -8  -13    9     -2.49      0.00
   -7  -13    9      0.55      0.00
   -6  -13    9     -7.98      0.00
   -5  -13    9     -4.79      0.00
   -4  -13    9     -1.70      0.00
   -3  -13    9      0.84      0.00
   -2  -13    9     -3.98      0.00
   -1  -13    9     -3.80      0.00
    0  -13    9     -1.99      0.00
    1  -13    9      6.03      0.00
    2  -13    9     -3.11      0.00
    3  -13    9      3.03      0.00
    4  -13    9      0.17      0.00
    5  -13    9      1.53      0.00
    6  -13    9     -4.22      0.00
    7  -13    9      3.37      0.00
    8  -13    9      2.50      0.00
    9  -13    9      1.71      0.00
   10  -13    9      3.24      0.00
   11  -13    9     -2.17      0.00
   12  -13    9     -1.07      0.00
   13  -13    9     -4.49      0.00
   14  -13    9      1.78      0.00
   15  -13    9     -1.19      0.00
   16  -13    9      1.25      0.00
  -11  -12    9     -4.98      0.00
  -10  -12    9     -0.27      0.00
   -9  -12    9     -2.97      0.00
   -8  -12    9     -0.39      0.00
   -7  -12    9      7.95      0.00
   -6  -12    9      1.32      0.00
   -5  -12    9      1.60      0.00
   -4  -12    9     -1.90      0.00
   -3  -12    9     -2.16      0.00
   -2  -12    9      5.15      0.00
   -1  -12    9      0.25      0.00
    0  -12    9     -4.76      0.00
    1  -12    9      2.02      0.00
    2  -12    9     -5.94      0.00
    3  -12    9      1.80      0.00
    4  -12    9     -2.22      0.00
    5  -12    9      2.83      0.00
    6  -12    9     -0.44      0.00
    7  -12    9      5.17      0.00
    8  -12    9     -1.59      0.00
    9  -12    9     -5.05      0.00
   10  -12    9      0.18      0.00
   11  -12    9     -2.06      0.00
   12  -12    9     -0.26      0.00
   13  -12    9     -2.32      0.00
   14  -12    9      7.25      0.00
   15  -12    9      1.99      0.00
   16  -12    9      1.18      0.00
  -12  -11    9      3.36      0.00
  -11  -11    9      9.61      0.00
  -10  -11    9     -3.50      0.00
   -9  -11    9      0.30      0.00
   -8  -11    9     -6.13      0.00
   -7  -11    9     -0.68      0.00
   -6  -11    9     -4.75      0.00
   -5  -11    9     -1.97      0.00
   -4  -11    9     -7.71      0.00
   -3  -11    9     -0.78      0.00
   -2  -11    9      1.68      0.00
   -1  -11    9     -1.20      0.00
    0  -11    9      4.37      0.00
    1  -11    9      3.27      0.00
    2  -11    9     -1.18      0.00
    3  -11    9     -0.11      0.00
    4  -11    9     -0.15      0.00
    5  -11    9      1.04      0.00
    6  -11    9     -0.25      0.00
    7  -11    9      1.83      0.00
    8  -11    9      0.06      0.00
    9  -11    9     -3.29      0.00
   10  -11    9      5.52      0.00
   11  -11    9     -1.49      0.00
   12  -11    9      1.34      0.00
   13  -11    9     -2.34      0.00
   14  -11    9      1.38      0.00
   15  -11    9     -4.25      0.00
   16  -11    9      0.71      0.00
  -12  -10    9     -4.99      0.00
  -11  -10    9     -4.89      0.00
  -10  -10    9     -1.08      0.00
   -9  -10    9     14.27      0.00
   -8  -10    9      9.74      0.00
   -7  -10    9     -3.08      0.00
   -6  -10    9     -3.36      0.00
   -5  -10    9     -1.73      0.00
   -4  -10    9     12.47      0.00
   -3  -10    9     -1.19      0.00
   -2  -10    9      9.22      0.00
   -1  -10    9      1.25      0.00
    0  -10    9     -8.46      0.00
    1  -10    9     -3.83      0.00
    2  -10    9      6.03      0.00
    3  -10    9     -6.71      0.00
    4  -10    9     -3.21      0.00
    5  -10    9     -1.37      0.00
    6  -10    9      1.68      0.00
    7  -10    9     -3.76      0.00
    8  -10    9      1.42      0.00
    9  -10    9     -5.63      0.00
   10  -10    9      2.20      0.00
   11  -10    9     -6.65      0.00
   12  -10    9      1.43      0.00
   13  -10    9     -1.34      0.00
   14  -10    9      4.99      0.00
   15  -10    9     -2.94      0.00
   16  -10    9     -1.73      0.00
  -13   -9    9     -2.09      0.00
  -12   -9    9     -1.97      0.00
  -11   -9    9      7.55      0.00
  -10   -9    9     -6.80      0.00
   -9   -9    9     -0.52      0.00
   -8   -9    9      0.94      0.00
   -7   -9    9      2.72      0.00
   -6   -9    9     -7.78      0.00
   -5   -9    9     -6.05      0.00
   -4   -9    9      5.14      0.00
   -3   -9    9    -18.07      0.00
   -2   -9    9     13.99      0.00
   -1   -9    9      6.87      0.00
    0   -9    9      2.93      0.00
    1   -9    9     -9.46      0.00
    2   -9    9      9.62      0.00
    3   -9    9     -1.75      0.00
    4   -9    9     10.16      0.00
    5   -9    9     -0.74      0.00
    6   -9    9      3.05      0.00
    7   -9    9     -3.86      0.00
    8   -9    9     10.58      0.00
    9   -9    9     -6.48      0.00
   10   -9    9      3.00      0.00
   11   -9    9      0.91      0.00
   12   -9    9      5.10      0.00
   13   -9    9     -5.56      0.00
   14   -9    9     -1.14      0.00
   15   -9    9     -1.50      0.00
   16   -9    9      0.96      0.00
  -14   -8    9     -1.65      0.00
  -13   -8    9      0.83      0.00
  -12   -8    9     -4.68      0.00
  -11   -8    9      2.19      0.00
  -10   -8    9      9.45      0.00
   -9   -8    9      1.25      0.00
   -8   -8    9     -2.74      0.00
   -7   -8    9      5.79      0.00
   -6   -8    9      7.95      0.00
   -5   -8    9      6.27      0.00
   -4   -8    9     18.12      0.00
   -3   -8    9     -4.92      0.00
   -2   -8    9      7.40      0.00
   -1   -8    9     -3.25      0.00
    0   -8    9      1.27      0.00
    1   -8    9    -16.08      0.00
    2   -8    9      6.84      0.00
    3   -8    9    -18.62      0.00
    4   -8    9      7.26      0.00
    5   -8    9     -1.58      0.00
    6   -8    9      0.17      0.00
    7   -8    9    -15.93      0.00
    8   -8    9     11.21      0.00
    9   -8    9     -3.81      0.00
   10   -8    9      2.43      0.00
   11   -8    9     -4.21      0.00
   12   -8    9      2.41      0.00
   13   -8    9     -2.10      0.00
   14   -8    9      1.60      0.00
   15   -8    9     -0.18      0.00
   16   -8    9     -1.31      0.00
  -15   -7    9      0.05      0.00
  -14   -7    9     -7.18      0.00
  -13   -7    9      4.70      0.00
  -12   -7    9     -1.34      0.00
  -11   -7    9      0.32      0.00
  -10   -7    9     -1.75      0.00
   -9   -7    9      3.45      0.00
   -8   -7    9      2.13      0.00
   -7   -7    9     -9.15      0.00
   -6   -7    9     -9.55      0.00
   -5   -7    9    -13.40      0.00
   -4   -7    9     10.73      0.00
   -3   -7    9     -3.01      0.00
   -2   -7    9      0.22      0.00
   -1   -7    9     -3.10      0.00
    0   -7    9      4.76      0.00
    1   -7    9     -4.21      0.00
    2   -7    9     21.42      0.00
    3   -7    9     -9.22      0.00
    4   -7    9      4.37      0.00
    5   -7    9     -6.31      0.00
    6   -7    9      8.27      0.00
    7   -7    9     -1.33      0.00
    8   -7    9     10.52      0.00
    9   -7    9     -8.52      0.00
   10   -7    9      5.41      0.00
   11   -7    9      2.95      0.00
   12   -7    9      1.72      0.00
   13   -7    9     -3.81      0.00
   14   -7    9      2.69      0.00
   15   -7    9      1.24      0.00
   16   -7    9     -2.50      0.00
  -15   -6    9     -0.01      0.00
  -14   -6    9     -2.28      0.00
  -13   -6    9     -2.27      0.00
  -12   -6    9      0.64      0.00
  -11   -6    9      9.30      0.00
  -10   -6    9      4.68      0.00
   -9   -6    9      1.62      0.00
   -8   -6    9      1.61      0.00
   -7   -6    9     16.63      0.00
   -6   -6    9      8.44      0.00
   -5   -6    9      3.48      0.00
   -4   -6    9      0.00      0.00
   -3   -6    9      1.48      0.00
   -2   -6    9      4.83      0.00
   -1   -6    9     -4.39      0.00
    0   -6    9      4.43      0.00
    1   -6    9    -26.27      0.00
    2   -6    9      0.45      0.00
    3   -6    9     -8.80      0.00
    4   -6    9      9.95      0.00
    5   -6    9    -10.94      0.00
    6   -6    9      5.53      0.00
    7   -6    9    -13.00      0.00
    8   -6    9      8.74      0.00
    9   -6    9     -3.27      0.00
   10   -6    9      2.23      0.00
   11   -6    9     -2.34      0.00
   12   -6    9      1.44      0.00
   13   -6    9     -4.76      0.00
   14   -6    9      1.44      0.00
   15   -6    9     -3.40      0.00
   16   -6    9     -1.75      0.00
  -16   -5    9     -1.38      0.00
  -15   -5    9      2.17      0.00
  -14   -5    9     -3.36      0.00
  -13   -5    9      0.09      0.00
  -12   -5    9     -2.38      0.00
  -11   -5    9     -5.81      0.00
  -10   -5    9      3.75      0.00
   -9   -5    9      6.51      0.00
   -8   -5    9    -12.50      0.00
   -7   -5    9     -2.41      0.00
   -6   -5    9    -17.02      0.00
   -5   -5    9     -0.21      0.00
   -4   -5    9      0.70      0.00
   -3   -5    9      4.42      0.00
   -2   -5    9    -18.04      0.00
   -1   -5    9     10.37      0.00
    0   -5    9      2.74      0.00
    1   -5    9    -11.68      0.00
    2   -5    9     19.67      0.00
    3   -5    9     -0.73      0.00
    4   -5    9     -3.08      0.00
    5   -5    9      1.42      0.00
    6   -5    9     17.84      0.00
    7   -5    9     -5.65      0.00
    8   -5    9      1.86      0.00
    9   -5    9      0.16      0.00
   10   -5    9      1.57      0.00
   11   -5    9     -4.62      0.00
   12   -5    9      0.96      0.00
   13   -5    9     -2.69      0.00
   14   -5    9      0.03      0.00
   15   -5    9     -2.47      0.00
  -17   -4    9     -0.33      0.00
  -16   -4    9     -3.64      0.00
  -15   -4    9      1.09      0.00
  -14   -4    9      1.50      0.00
  -13   -4    9      2.82      0.00
  -12   -4    9      5.55      0.00
  -11   -4    9      8.07      0.00
  -10   -4    9     -8.05      0.00
   -9   -4    9      5.38      0.00
   -8   -4    9      0.67      0.00
   -7   -4    9      8.36      0.00
   -6   -4    9      0.79      0.00
   -5   -4    9      6.20      0.00
   -4   -4    9     -4.20      0.00
   -3   -4    9     10.49      0.00
   -2   -4    9    -18.34      0.00
   -1   -4    9     -3.30      0.00
    0   -4    9     -2.47      0.00
    1   -4    9    -26.84      0.00
    2   -4    9      5.08      0.00
    3   -4    9     -3.29      0.00
    4   -4    9      2.96      0.00
    5   -4    9    -11.16      0.00
    6   -4    9     12.29      0.00
    7   -4    9     -9.45      0.00
    8   -4    9      7.09      0.00
    9   -4    9      1.93      0.00
   10   -4    9     -0.23      0.00
   11   -4    9     -3.38      0.00
   12   -4    9      1.83      0.00
   13   -4    9     -1.73      0.00
   14   -4    9     -0.94      0.00
   15   -4    9     -4.52      0.00
  -17   -3    9     -1.52      0.00
  -16   -3    9      3.89      0.00
  -15   -3    9      1.78      0.00
  -14   -3    9     -5.03      0.00
  -13   -3    9     -4.59      0.00
  -12   -3    9     -2.19      0.00
  -11   -3    9      5.98      0.00
  -10   -3    9      0.35      0.00
   -9   -3    9      0.75      0.00
   -8   -3    9    -12.97      0.00
   -7   -3    9      7.10      0.00
   -6   -3    9    -21.20      0.00
   -5   -3    9     -5.47      0.00
   -4   -3    9    -10.20      0.00
   -3   -3    9     22.47      0.00
   -2   -3    9      0.12      0.00
   -1   -3    9      3.86      0.00
    0   -3    9     -4.40      0.00
    1   -3    9      0.35      0.00
    2   -3    9     20.30      0.00
    3   -3    9      0.40      0.00
    4   -3    9      1.68      0.00
    5   -3    9     -0.36      0.00
    6   -3    9      9.51      0.00
    7   -3    9     -7.44      0.00
    8   -3    9     -1.70      0.00
    9   -3    9     -0.51      0.00
   10   -3    9     -1.45      0.00
   11   -3    9     -7.04      0.00
   12   -3    9      4.61      0.00
   13   -3    9     -0.81      0.00
   14   -3    9     -0.49      0.00
   15   -3    9     -1.49      0.00
  -18   -2    9     -2.99      0.00
  -17   -2    9     -3.71      0.00
  -16   -2    9     -5.87      0.00
  -15   -2    9      2.98      0.00
  -14   -2    9      3.78      0.00
  -13   -2    9      3.61      0.00
  -12   -2    9      1.30      0.00
  -11   -2    9     -0.93      0.00
  -10   -2    9     -2.47      0.00
   -9   -2    9      3.29      0.00
   -8   -2    9     -7.09      0.00
   -7   -2    9     -4.10      0.00
   -6   -2    9     15.61      0.00
   -5   -2    9      4.89      0.00
   -4   -2    9     -7.17      0.00
   -3   -2    9     -7.66      0.00
   -2   -2    9    -30.04      0.00
   -1   -2    9     -6.59      0.00
    0   -2    9     15.27      0.00
    1   -2    9    -22.74      0.00
    2   -2    9     -0.98      0.00
    3   -2    9      4.18      0.00
    4   -2    9      9.52      0.00
    5   -2    9    -14.09      0.00
    6   -2    9      8.59      0.00
    7   -2    9     -5.75      0.00
    8   -2    9      2.42      0.00
    9   -2    9      0.81      0.00
   10   -2    9      2.64      0.00
   11   -2    9     -1.03      0.00
   12   -2    9      2.10      0.00
   13   -2    9     -2.78      0.00
   14   -2    9      1.40      0.00
  -18   -1    9     -2.52      0.00
  -17   -1    9      0.86      0.00
  -16   -1    9      0.46      0.00
  -15   -1    9     -2.61      0.00
  -14   -1    9     -1.34      0.00
  -13   -1    9      1.53      0.00
  -12   -1    9      1.80      0.00
  -11   -1    9     -5.81      0.00
  -10   -1    9     -4.94      0.00
   -9   -1    9     -3.25      0.00
   -8   -1    9     -0.50      0.00
   -7   -1    9     -6.62      0.00
   -6   -1    9     -1.49      0.00
   -5   -1    9    -15.63      0.00
   -4   -1    9      1.85      0.00
   -3   -1    9     22.42      0.00
   -2   -1    9      7.31      0.00
   -1   -1    9    -19.28      0.00
    0   -1    9     27.93      0.00
    1   -1    9      8.89      0.00
    2   -1    9     -2.35      0.00
    3   -1    9     -4.13      0.00
    4   -1    9     13.88      0.00
    5   -1    9     -5.99      0.00
    6   -1    9      5.15      0.00
    7   -1    9     -5.17      0.00
    8   -1    9     -5.46      0.00
    9   -1    9      0.65      0.00
   10   -1    9      5.13      0.00
   11   -1    9     -1.37      0.00
   12   -1    9      0.60      0.00
   13   -1    9     -2.02      0.00
   14   -1    9     -0.86      0.00
  -19    0    9     -1.15      0.00
  -18    0    9     -7.81      0.00
  -17    0    9      0.25      0.00
  -16    0    9      5.83      0.00
  -15    0    9      2.43      0.00
  -14    0    9     -3.31      0.00
  -13    0    9     -3.94      0.00
  -12    0    9      7.33      0.00
  -11    0    9     -4.64      0.00
  -10    0    9      8.26      0.00
   -9    0    9     -4.10      0.00
   -8    0    9     -2.76      0.00
   -7    0    9    -13.29      0.00
   -6    0    9     31.42      0.00
   -5    0    9    -12.93      0.00
   -4    0    9     -5.07      0.00
   -3    0    9     -8.83      0.00
   -2    0    9      5.52      0.00
   -1    0    9    -28.97      0.00
    0    0    9      5.12      0.00
    1    0    9    -17.72      0.00
    2    0    9     13.49      0.00
    3    0    9      2.84      0.00
    4    0    9      6.55      0.00
    5    0    9    -22.60      0.00
    6    0    9      2.79      0.00
    7    0    9      4.06      0.00
    8    0    9      3.17      0.00
    9    0    9     -0.27      0.00
   10    0    9      4.79      0.00
   11    0    9      1.79      0.00
   12    0    9     -0.76      0.00
   13    0    9      0.90      0.00
   14    0    9     -1.63      0.00
  -20    1    9     -6.36      0.00
  -19    1    9     -4.48      0.00
  -18    1    9      0.41      0.00
  -17    1    9      4.35      0.00
  -16    1    9     -2.24      0.00
  -15    1    9      5.03      0.00
  -14    1    9      5.56      0.00
  -13    1    9     -8.20      0.00
  -12    1    9      3.44      0.00
  -11    1    9     -5.51      0.00
  -10    1    9     -0.18      0.00
   -9    1    9     -8.22      0.00
   -8    1    9     19.53      0.00
   -7    1    9    -29.50      0.00
   -6    1    9     23.21      0.00
   -5    1    9     -9.26      0.00
   -4    1    9      4.46      0.00
   -3    1    9     -8.44      0.00
   -2    1    9     20.87      0.00
   -1    1    9     -9.10      0.00
    0    1    9     40.96      0.00
    1    1    9     -7.43      0.00
    2    1    9    -11.31      0.00
    3    1    9     -6.05      0.00
    4    1    9     16.72      0.00
    5    1    9    -12.44      0.00
    6    1    9     -0.64      0.00
    7    1    9     -3.10      0.00
    8    1    9     -2.74      0.00
    9    1    9      2.38      0.00
   10    1    9      2.96      0.00
   11    1    9     -2.23      0.00
   12    1    9     -2.51      0.00
   13    1    9      2.65      0.00
  -20    2    9     -5.15      0.00
  -19    2    9      0.85      0.00
  -18    2    9      2.84      0.00
  -17    2    9     -0.16      0.00
  -16    2    9     -0.94      0.00
  -15    2    9      0.07      0.00
  -14    2    9      1.84      0.00
  -13    2    9     -2.60      0.00
  -12    2    9      8.30      0.00
  -11    2    9     -7.10      0.00
  -10    2    9      5.11      0.00
   -9    2    9     -6.62      0.00
   -8    2    9     22.25      0.00
   -7    2    9    -14.49      0.00
   -6    2    9     10.11      0.00
   -5    2    9    -18.37      0.00
   -4    2    9     19.48      0.00
   -3    2    9    -16.12      0.00
   -2    2    9     14.75      0.00
   -1    2    9    -25.56      0.00
    0    2    9      6.47      0.00
    1    2    9     -1.17      0.00
    2    2    9     17.35      0.00
    3    2    9    -21.40      0.00
    4    2    9      1.61      0.00
    5    2    9     -4.81      0.00
    6    2    9      7.05      0.00
    7    2    9      2.06      0.00
    8    2    9     -0.09      0.00
    9    2    9      0.28      0.00
   10    2    9      3.70      0.00
   11    2    9     -1.03      0.00
   12    2    9     -3.34      0.00
   13    2    9      4.50      0.00
  -20    3    9     -4.67      0.00
  -19    3    9      2.44      0.00
  -18    3    9      5.44      0.00
  -17    3    9      2.45      0.00
  -16    3    9     -2.40      0.00
  -15    3    9     -0.91      0.00
  -14    3    9     -3.17      0.00
  -13    3    9     -1.60      0.00
  -12    3    9      7.96      0.00
  -11    3    9     -2.31      0.00
  -10    3    9     -4.46      0.00
   -9    3    9    -12.89      0.00
   -8    3    9     22.99      0.00
   -7    3    9    -25.27      0.00
   -6    3    9     24.16      0.00
   -5    3    9     -6.26      0.00
   -4    3    9     -0.77      0.00
   -3    3    9     -3.69      0.00
   -2    3    9     34.28      0.00
   -1    3    9    -14.99      0.00
    0    3    9     14.18      0.00
    1    3    9     -0.39      0.00
    2    3    9      1.81      0.00
    3    3    9     -2.44      0.00
    4    3    9      1.68      0.00
    5    3    9    -10.15      0.00
    6    3    9      1.19      0.00
    7    3    9      1.72      0.00
    8    3    9      2.36      0.00
    9    3    9     -0.75      0.00
   10    3    9     -2.50      0.00
   11    3    9      1.45      0.00
   12    3    9      1.17      0.00
  -20    4    9     -1.29      0.00
  -19    4    9      0.65      0.00
  -18    4    9     -2.45      0.00
  -17    4    9     -3.66      0.00
  -16    4    9      1.51      0.00
  -15    4    9      1.54      0.00
  -14    4    9      7.86      0.00
  -13    4    9     -6.54      0.00
  -12    4    9     -1.52      0.00
  -11    4    9      3.81      0.00
  -10    4    9      5.26      0.00
   -9    4    9     -8.52      0.00
   -8    4    9     14.46      0.00
   -7    4    9    -18.58      0.00
   -6    4    9     11.37      0.00
   -5    4    9     -2.79      0.00
   -4    4    9      2.40      0.00
   -3    4    9    -13.00      0.00
   -2    4    9     26.84      0.00
   -1    4    9    -15.84      0.00
    0    4    9      0.21      0.00
    1    4    9     -2.40      0.00
    2    4    9     -6.53      0.00
    3    4    9    -11.25      0.00
    4    4    9     14.82      0.00
    5    4    9     -1.27      0.00
    6    4    9     -3.65      0.00
    7    4    9      0.75      0.00
    8    4    9      3.70      0.00
    9    4    9      0.73      0.00
   10    4    9      2.35      0.00
   11    4    9      3.57      0.00
   12    4    9     -2.79      0.00
  -21    5    9      0.07      0.00
  -20    5    9      2.54      0.00
  -19    5    9     -4.65      0.00
  -18    5    9      1.83      0.00
  -17    5    9      5.69      0.00
  -16    5    9     -2.86      0.00
  -15    5    9      0.32      0.00
  -14    5    9     -7.04      0.00
  -13    5    9      1.88      0.00
  -12    5    9     -4.39      0.00
  -11    5    9     -1.87      0.00
  -10    5    9      0.52      0.00
   -9    5    9     -1.18      0.00
   -8    5    9      7.66      0.00
   -7    5    9     -7.52      0.00
   -6    5    9      0.60      0.00
   -5    5    9      6.42      0.00
   -4    5    9      9.94      0.00
   -3    5    9     -4.25      0.00
   -2    5    9      8.22      0.00
   -1    5    9      1.14      0.00
    0    5    9      3.35      0.00
    1    5    9     10.99      0.00
    2    5    9      1.75      0.00
    3    5    9     -9.60      0.00
    4    5    9      1.28      0.00
    5    5    9      0.18      0.00
    6    5    9     -4.79      0.00
    7    5    9     -0.73      0.00
    8    5    9      1.23      0.00
    9    5    9     -2.87      0.00
   10    5    9      5.18      0.00
   11    5    9      0.54      0.00
  -21    6    9     -0.75      0.00
  -20    6    9     -0.38      0.00
  -19    6    9     -6.02      0.00
  -18    6    9      0.98      0.00
  -17    6    9      1.34      0.00
  -16    6    9     -1.30      0.00
  -15    6    9     -3.12      0.00
  -14    6    9      0.08      0.00
  -13    6    9      4.24      0.00
  -12    6    9     -2.89      0.00
  -11    6    9      0.89      0.00
  -10    6    9     -3.06      0.00
   -9    6    9    -12.03      0.00
   -8    6    9     15.15      0.00
   -7    6    9      6.92      0.00
   -6    6    9     -3.13      0.00
   -5    6    9     -5.03      0.00
   -4    6    9     -4.41      0.00
   -3    6    9     -3.76      0.00
   -2    6    9     19.05      0.00
   -1    6    9     -3.70      0.00
    0    6    9    -11.33      0.00
    1    6    9     -0.34      0.00
    2    6    9     -5.75      0.00
    3    6    9      3.46      0.00
    4    6    9      5.31      0.00
    5    6    9     -8.16      0.00
    6    6    9      2.09      0.00
    7    6    9      3.98      0.00
    8    6    9      0.82      0.00
    9    6    9     -1.70      0.00
   10    6    9      1.48      0.00
  -21    7    9     -1.70      0.00
  -20    7    9      5.69      0.00
  -19    7    9      0.65      0.00
  -18    7    9     -1.43      0.00
  -17    7    9      1.74      0.00
  -16    7    9     -2.19      0.00
  -15    7    9      2.59      0.00
  -14    7    9     -0.86      0.00
  -13    7    9      0.36      0.00
  -12    7    9    -10.94      0.00
  -11    7    9      8.40      0.00
  -10    7    9      6.66      0.00
   -9    7    9     -4.41      0.00
   -8    7    9      3.00      0.00
   -7    7    9      2.39      0.00
   -6    7    9    -10.00      0.00
   -5    7    9     10.83      0.00
   -4    7    9      8.69      0.00
   -3    7    9     -6.51      0.00
   -2    7    9     -1.97      0.00
   -1    7    9     12.48      0.00
    0    7    9     -5.81      0.00
    1    7    9      1.68      0.00
    2    7    9      1.84      0.00
    3    7    9     -4.87      0.00
    4    7    9     -4.00      0.00
    5    7    9      1.90      0.00
    6    7    9     -4.08      0.00
    7    7    9     -4.66      0.00
    8    7    9      5.41      0.00
    9    7    9     -0.71      0.00
   10    7    9      2.03      0.00
  -21    8    9     -2.24      0.00
  -20    8    9     -0.28      0.00
  -19    8    9      0.66      0.00
  -18    8    9     -0.08      0.00
  -17    8    9     -0.92      0.00
  -16    8    9     -2.30      0.00
  -15    8    9     -0.56      0.00
  -14    8    9      1.98      0.00
  -13    8    9      6.56      0.00
  -12    8    9     -2.75      0.00
  -11    8    9      0.11      0.00
  -10    8    9     -2.38      0.00
   -9    8    9     -2.88      0.00
   -8    8    9     10.66      0.00
   -7    8    9     -4.13      0.00
   -6    8    9    -11.31      0.00
   -5    8    9      4.03      0.00
   -4    8    9     10.61      0.00
   -3    8    9     -7.14      0.00
   -2    8    9      0.30      0.00
   -1    8    9      3.38      0.00
    0    8    9     -3.61      0.00
    1    8    9      3.32      0.00
    2    8    9     -2.72      0.00
    3    8    9     -3.00      0.00
    4    8    9      1.63      0.00
    5    8    9      0.86      0.00
    6    8    9     -1.04      0.00
    7    8    9     -1.59      0.00
    8    8    9      5.25      0.00
    9    8    9      1.83      0.00
  -22    9    9      4.28      0.00
  -21    9    9      0.50      0.00
  -20    9    9      2.37      0.00
  -19    9    9      0.05      0.00
  -18    9    9      0.23      0.00
  -17    9    9     -3.04      0.00
  -16    9    9      1.82      0.00
  -15    9    9     -0.27      0.00
  -14    9    9      1.22      0.00
  -13    9    9      0.44      0.00
  -12    9    9     -2.68      0.00
  -11    9    9      3.72      0.00
  -10    9    9      9.90      0.00
   -9    9    9     -6.53      0.00
   -8    9    9      2.84      0.00
   -7    9    9      3.53      0.00
   -6    9    9     -7.27      0.00
   -5    9    9     -3.25      0.00
   -4    9    9      5.97      0.00
   -3    9    9     -0.15      0.00
   -2    9    9      4.79      0.00
   -1    9    9     -0.99      0.00
    0    9    9     -9.29      0.00
    1    9    9      0.38      0.00
    2    9    9      3.95      0.00
    3    9    9     -2.39      0.00
    4    9    9     -0.62      0.00
    5    9    9     -5.24      0.00
    6    9    9     -0.96      0.00
    7    9    9     -5.62      0.00
    8    9    9      2.67      0.00
  -22   10    9      1.72      0.00
  -21   10    9     -2.08      0.00
  -20   10    9     -0.63      0.00
  -19   10    9     -1.76      0.00
  -18   10    9      1.39      0.00
  -17   10    9     -3.04      0.00
  -16   10    9      2.69      0.00
  -15   10    9      0.38      0.00
  -14   10    9      2.24      0.00
  -13   10    9     -1.09      0.00
  -12   10    9     -1.42      0.00
  -11   10    9     -5.67      0.00
  -10   10    9      6.89      0.00
   -9   10    9     -7.39      0.00
   -8   10    9      1.76      0.00
   -7   10    9     -3.92      0.00
   -6   10    9      9.48      0.00
   -5   10    9     -6.68      0.00
   -4   10    9      2.54      0.00
   -3   10    9     -7.16      0.00
   -2   10    9      1.46      0.00
   -1   10    9      6.60      0.00
    0   10    9     -0.22      0.00
    1   10    9     -2.00      0.00
    2   10    9      2.85      0.00
    3   10    9     -0.19      0.00
    4   10    9      0.00      0.00
    5   10    9      1.03      0.00
    6   10    9     -2.25      0.00
    7   10    9     -0.99      0.00
  -22   11    9      2.21      0.00
  -21   11    9     -4.55      0.00
  -20   11    9      1.47      0.00
  -19   11    9     -1.84      0.00
  -18   11    9     -0.49      0.00
  -17   11    9     -0.75      0.00
  -16   11    9      4.33      0.00
  -15   11    9     -5.91      0.00
  -14   11    9      2.83      0.00
  -13   11    9      2.01      0.00
  -12   11    9      1.65      0.00
  -11   11    9     -1.80      0.00
  -10   11    9      3.36      0.00
   -9   11    9     -4.79      0.00
   -8   11    9      5.18      0.00
   -7   11    9     -1.49      0.00
   -6   11    9     -0.43      0.00
   -5   11    9     -6.15      0.00
   -4   11    9      7.11      0.00
   -3   11    9     -7.66      0.00
   -2   11    9      1.19      0.00
   -1   11    9      0.95      0.00
    0   11    9      2.49      0.00
    1   11    9     -1.43      0.00
    2   11    9      0.50      0.00
    3   11    9     -4.48      0.00
    4   11    9      0.80      0.00
    5   11    9     -3.76      0.00
    6   11    9      2.06      0.00
    7   11    9     -4.10      0.00
  -21   12    9     -1.55      0.00
  -20   12    9      2.57      0.00
  -19   12    9     -3.86      0.00
  -18   12    9      1.24      0.00
  -17   12    9     -1.97      0.00
  -16   12    9      2.93      0.00
  -15   12    9     -1.72      0.00
  -14   12    9      2.73      0.00
  -13   12    9     -3.74      0.00
  -12   12    9      1.25      0.00
  -11   12    9     -5.26      0.00
  -10   12    9      8.63      0.00
   -9   12    9     -9.49      0.00
   -8   12    9      1.64      0.00
   -7   12    9     -0.73      0.00
   -6   12    9      1.88      0.00
   -5   12    9    -10.88      0.00
   -4   12    9      5.75      0.00
   -3   12    9      2.30      0.00
   -2   12    9      2.88      0.00
   -1   12    9     -0.46      0.00
    0   12    9     -3.15      0.00
    1   12    9      1.21      0.00
    2   12    9      7.83      0.00
    3   12    9     -1.41      0.00
    4   12    9     -5.89      0.00
    5   12    9     -1.25      0.00
    6   12    9      1.13      0.00
  -21   13    9     -5.94      0.00
  -20   13    9     -0.87      0.00
  -19   13    9     -0.90      0.00
  -18   13    9      1.37      0.00
  -17   13    9     -0.48      0.00
  -16   13    9      3.02      0.00
  -15   13    9     -3.32      0.00
  -14   13    9      1.92      0.00
  -13   13    9      1.56      0.00
  -12   13    9      2.46      0.00
  -11   13    9     -0.13      0.00
  -10   13    9      4.20      0.00
   -9   13    9     -0.31      0.00
   -8   13    9     -1.21      0.00
   -7   13    9      0.38      0.00
   -6   13    9     -0.59      0.00
   -5   13    9     -4.26      0.00
   -4   13    9      7.72      0.00
   -3   13    9     -1.05      0.00
   -2   13    9      1.80      0.00
   -1   13    9      3.89      0.00
    0   13    9      5.07      0.00
    1   13    9     -7.32      0.00
    2   13    9     -2.78      0.00
    3   13    9     -2.55      0.00
    4   13    9      2.35      0.00
    5   13    9     -2.66      0.00
  -21   14    9      0.71      0.00
  -20   14    9     -0.68      0.00
  -19   14    9     -1.60      0.00
  -18   14    9      4.00      0.00
  -17   14    9     -3.48      0.00
  -16   14    9      0.77      0.00
  -15   14    9     -3.50      0.00
  -14   14    9      2.36      0.00
  -13   14    9     -2.94      0.00
  -12   14    9      6.08      0.00
  -11   14    9     -1.25      0.00
  -10   14    9      0.73      0.00
   -9   14    9     -0.35      0.00
   -8   14    9     -3.36      0.00
   -7   14    9     -0.71      0.00
   -6   14    9     -0.52      0.00
   -5   14    9      1.65      0.00
   -4   14    9      3.24      0.00
   -3   14    9     -0.55      0.00
   -2   14    9     -0.65      0.00
   -1   14    9      0.63      0.00
    0   14    9      4.36      0.00
    1   14    9      1.99      0.00
    2   14    9     -2.47      0.00
    3   14    9     -3.35      0.00
    4   14    9     -1.40      0.00
  -21   15    9     -2.03      0.00
  -20   15    9     -2.30      0.00
  -19   15    9      1.57      0.00
  -18   15    9      3.66      0.00
  -17   15    9     -0.92      0.00
  -16   15    9      1.36      0.00
  -15   15    9     -1.23      0.00
  -14   15    9      1.41      0.00
  -13   15    9     -0.44      0.00
  -12   15    9      7.92      0.00
  -11   15    9     -0.97      0.00
  -10   15    9      1.69      0.00
   -9   15    9      2.75      0.00
   -8   15    9     -5.03      0.00
   -7   15    9     -0.64      0.00
   -6   15    9      5.29      0.00
   -5   15    9      1.41      0.00
   -4   15    9     -0.45      0.00
   -3   15    9      2.00      0.00
   -2   15    9     -1.92      0.00
   -1   15    9     -2.54      0.00
    0   15    9      0.39      0.00
    1   15    9     -5.03      0.00
    2   15    9      2.47      0.00
  -20   16    9      1.37      0.00
  -19   16    9     -0.50      0.00
  -18   16    9      1.72      0.00
  -17   16    9     -4.33      0.00
  -16   16    9      1.19      0.00
  -15   16    9     -0.95      0.00
  -14   16    9      2.25      0.00
  -13   16    9      1.67      0.00
  -12   16    9      2.47      0.00
  -11   16    9     -2.38      0.00
  -10   16    9     -0.17      0.00
   -9   16    9     -0.03      0.00
   -8   16    9     -3.63      0.00
   -7   16    9      1.25      0.00
   -6   16    9      2.23      0.00
   -5   16    9      0.71      0.00
   -4   16    9      3.37      0.00
   -3   16    9      2.50      0.00
   -2   16    9      0.13      0.00
   -1   16    9      1.10      0.00
    0   16    9     -0.60      0.00
    1   16    9     -2.54      0.00
  -20   17    9      0.69      0.00
  -19   17    9      0.47      0.00
  -18   17    9     -0.53      0.00
  -17   17    9      0.93      0.00
  -16   17    9      2.38      0.00
  -15   17    9     -0.86      0.00
  -14   17    9      3.17      0.00
  -13   17    9     -0.38      0.00
  -12   17    9      5.88      0.00
  -11   17    9     -1.78      0.00
  -10   17    9      0.33      0.00
   -9   17    9     -0.80      0.00
   -8   17    9     -2.27      0.00
   -7   17    9     -1.43      0.00
   -6   17    9      2.15      0.00
   -5   17    9     -0.25      0.00
   -4   17    9     -1.29      0.00
   -3   17    9      0.82      0.00
   -2   17    9      0.56      0.00
   -1   17    9     -3.18      0.00
    0   17    9      1.33      0.00
  -19   18    9     -0.05      0.00
  -18   18    9      0.98      0.00
  -17   18    9     -3.22      0.00
  -16   18    9     -1.84      0.00
  -15   18    9      0.15      0.00
  -14   18    9      2.27      0.00
  -13   18    9      3.06      0.00
  -12   18    9      3.59      0.00
  -11   18    9     -4.45      0.00
  -10   18    9     -3.55      0.00
   -9   18    9      1.71      0.00
   -8   18    9      5.51      0.00
   -7   18    9      0.35      0.00
   -6   18    9     -1.79      0.00
   -5   18    9      2.41      0.00
   -4   18    9      0.57      0.00
   -3   18    9      2.28      0.00
   -2   18    9     -0.43      0.00
  -18   19    9     -1.55      0.00
  -17   19    9     -0.16      0.00
  -16   19    9      4.25      0.00
  -15   19    9      0.40      0.00
  -14   19    9      0.27      0.00
  -13   19    9     -0.32      0.00
  -12   19    9      1.53      0.00
  -11   19    9     -2.31      0.00
  -10   19    9      2.03      0.00
   -9   19    9     -0.80      0.00
   -8   19    9      0.49      0.00
   -7   19    9     -0.40      0.00
   -6   19    9      1.62      0.00
   -5   19    9      0.93      0.00
   -4   19    9      2.09      0.00
  -17   20    9      1.41      0.00
  -16   20    9     -2.25      0.00
  -15   20    9      2.72      0.00
  -14   20    9      3.84      0.00
  -13   20    9     -2.08      0.00
  -12   20    9     -1.76      0.00
  -11   20    9      1.40      0.00
  -10   20    9      0.96      0.00
   -9   20    9     -1.31      0.00
   -8   20    9     -0.63      0.00
   -7   20    9      2.33      0.00
   -6   20    9      1.20      0.00
  -14   21    9      0.93      0.00
  -13   21    9     -1.12      0.00
  -12   21    9     -0.86      0.00
  -11   21    9      1.80      0.00
  -10   21    9      0.25      0.00
   -9   21    9     -1.52      0.00
    6  -21   10      2.71      0.00
    1  -20   10      0.94      0.00
    2  -20   10     -0.51      0.00
    3  -20   10      5.26      0.00
    4  -20   10     -0.63      0.00
    5  -20   10     -1.19      0.00
    6  -20   10     -3.05      0.00
    7  -20   10      2.20      0.00
    8  -20   10     -7.41      0.00
    9  -20   10      1.43      0.00
   10  -20   10      3.70      0.00
   11  -20   10     -4.11      0.00
   -1  -19   10      0.09      0.00
    0  -19   10      5.81      0.00
    1  -19   10     -2.89      0.00
    2  -19   10     -2.24      0.00
    3  -19   10      0.91      0.00
    4  -19   10      2.66      0.00
    5  -19   10      4.22      0.00
    6  -19   10      2.51      0.00
    7  -19   10     -0.79      0.00
    8  -19   10     -2.93      0.00
    9  -19   10      1.32      0.00
   10  -19   10     -0.78      0.00
   11  -19   10     -0.01      0.00
   12  -19   10     -4.40      0.00
   -3  -18   10      1.24      0.00
   -2  -18   10      0.64      0.00
   -1  -18   10     -1.75      0.00
    0  -18   10     -1.56      0.00
    1  -18   10      5.63      0.00
    2  -18   10     -2.51      0.00
    3  -18   10     -1.01      0.00
    4  -18   10     -4.03      0.00
    5  -18   10     -2.81      0.00
    6  -18   10     -7.77      0.00
    7  -18   10      1.36      0.00
    8  -18   10      1.47      0.00
    9  -18   10     -5.39      0.00
   10  -18   10     -2.96      0.00
   11  -18   10     -0.41      0.00
   12  -18   10     -2.13      0.00
   13  -18   10      0.69      0.00
   -5  -17   10     -4.44      0.00
   -4  -17   10     -1.58      0.00
   -3  -17   10      4.48      0.00
   -2  -17   10      3.74      0.00
   -1  -17   10      1.95      0.00
    0  -17   10      1.92      0.00
    1  -17   10      1.87      0.00
    2  -17   10     -2.27      0.00
    3  -17   10      2.64      0.00
    4  -17   10      8.25      0.00
    5  -17   10     -1.84      0.00
    6  -17   10     -0.42      0.00
    7  -17   10     -1.50      0.00
    8  -17   10     -2.91      0.00
    9  -17   10      1.56      0.00
   10  -17   10      1.07      0.00
   11  -17   10     -0.08      0.00
   12  -17   10     -4.39      0.00
   13  -17   10      4.04      0.00
   14  -17   10     -1.16      0.00
   -6  -16   10     -3.20      0.00
   -5  -16   10     -1.51      0.00
   -4  -16   10      0.00      0.00
   -3  -16   10     -1.99      0.00
   -2  -16   10     -3.17      0.00
   -1  -16   10     -2.21      0.00
    0  -16   10     -1.55      0.00
    1  -16   10      0.96      0.00
    2  -16   10     -8.66      0.00
    3  -16   10     -3.06      0.00
    4  -16   10     -6.06      0.00
    5  -16   10      0.89      0.00
    6  -16   10     -0.25      0.00
    7  -16   10     -1.47      0.00
    8  -16   10      0.97      0.00
    9  -16   10     -4.85      0.00
   10  -16   10      1.04      0.00
   11  -16   10      5.58      0.00
   12  -16   10     -0.50      0.00
   13  -16   10      0.25      0.00
   14  -16   10     -1.62      0.00
   -8  -15   10      0.40      0.00
   -7  -15   10     -5.49      0.00
   -6  -15   10     -4.09      0.00
   -5  -15   10     -1.69      0.00
   -4  -15   10     -0.48      0.00
   -3  -15   10      7.62      0.00
   -2  -15   10      0.56      0.00
   -1  -15   10     -1.89      0.00
    0  -15   10     -3.83      0.00
    1  -15   10      3.29      0.00
    2  -15   10      0.02      0.00
    3  -15   10      0.93      0.00
    4  -15   10      6.49      0.00
    5  -15   10      1.57      0.00
    6  -15   10     -1.25      0.00
    7  -15   10      3.00      0.00
    8  -15   10      1.52      0.00
    9  -15   10     -4.39      0.00
   10  -15   10     -3.41      0.00
   11  -15   10      2.96      0.00
   12  -15   10     -1.64      0.00
   13  -15   10      3.60      0.00
   14  -15   10     -1.37      0.00
   15  -15   10     -1.65      0.00
   -9  -14   10      2.11      0.00
   -8  -14   10     -3.51      0.00
   -7  -14   10     -2.28      0.00
   -6  -14   10      1.47      0.00
   -5  -14   10      1.65      0.00
   -4  -14   10     -7.33      0.00
   -3  -14   10     -0.58      0.00
   -2  -14   10     -3.67      0.00
   -1  -14   10      0.22      0.00
    0  -14   10     -7.97      0.00
    1  -14   10      1.13      0.00
    2  -14   10     -9.87      0.00
    3  -14   10      2.53      0.00
    4  -14   10      0.07      0.00
    5  -14   10      1.60      0.00
    6  -14   10     -1.11      0.00
    7  -14   10     -0.50      0.00
    8  -14   10      0.10      0.00
    9  -14   10      1.65      0.00
   10  -14   10      2.74      0.00
   11  -14   10      1.69      0.00
   12  -14   10     -1.19      0.00
   13  -14   10     -2.26      0.00
   14  -14   10      3.08      0.00
   15  -14   10      0.68      0.00
  -10  -13   10      4.39      0.00
   -9  -13   10     -8.28      0.00
   -8  -13   10     -1.26      0.00
   -7  -13   10     -5.33      0.00
   -6  -13   10     -5.20      0.00
   -5  -13   10      2.93      0.00
   -4  -13   10      3.57      0.00
   -3  -13   10     -3.01      0.00
   -2  -13   10     -0.73      0.00
   -1  -13   10      6.41      0.00
    0  -13   10     -2.35      0.00
    1  -13   10      2.40      0.00
    2  -13   10      0.87      0.00
    3  -13   10      4.83      0.00
    4  -13   10     -0.05      0.00
    5  -13   10      0.51      0.00
    6  -13   10      2.87      0.00
    7  -13   10      2.21      0.00
    8  -13   10     -2.40      0.00
    9  -13   10     -4.19      0.00
   10  -13   10     -1.29      0.00
   11  -13   10      1.07      0.00
   12  -13   10     -1.09      0.00
   13  -13   10     -1.72      0.00
   14  -13   10      3.44      0.00
   15  -13   10     -0.70      0.00
  -11  -12   10      6.06      0.00
  -10  -12   10      3.42      0.00
   -9  -12   10      2.50      0.00
   -8  -12   10      4.83      0.00
   -7  -12   10      6.41      0.00
   -6  -12   10     -7.68      0.00
   -5  -12   10     -0.10      0.00
   -4  -12   10     -4.31      0.00
   -3  -12   10      3.38      0.00
   -2  -12   10     -6.26      0.00
   -1  -12   10      6.78      0.00
    0  -12   10     -7.79      0.00
    1  -12   10      3.44      0.00
    2  -12   10     -2.20      0.00
    3  -12   10      4.37      0.00
    4  -12   10     -7.68      0.00
    5  -12   10      3.89      0.00
    6  -12   10     -4.70      0.00
    7  -12   10      0.93      0.00
    8  -12   10     -0.22      0.00
    9  -12   10      0.50      0.00
   10  -12   10      0.73      0.00
   11  -12   10      2.07      0.00
   12  -12   10      1.53      0.00
   13  -12   10     -1.85      0.00
   14  -12   10      0.01      0.00
   15  -12   10     -3.21      0.00
  -12  -11   10      7.58      0.00
  -11  -11   10    -10.68      0.00
  -10  -11   10     -3.86      0.00
   -9  -11   10     -5.83      0.00
   -8  -11   10     -0.05      0.00
   -7  -11   10      0.44      0.00
   -6  -11   10     -0.63      0.00
   -5  -11   10     -0.85      0.00
   -4  -11   10      7.15      0.00
   -3  -11   10      3.97      0.00
   -2  -11   10     -5.75      0.00
   -1  -11   10     13.69      0.00
    0  -11   10     -8.06      0.00
    1  -11   10      1.63      0.00
    2  -11   10     -0.23      0.00
    3  -11   10      6.69      0.00
    4  -11   10     -4.93      0.00
    5  -11   10      5.93      0.00
    6  -11   10     -3.74      0.00
    7  -11   10     -2.45      0.00
    8  -11   10      0.48      0.00
    9  -11   10      0.00      0.00
   10  -11   10     -1.51      0.00
   11  -11   10     -0.89      0.00
   12  -11   10      2.99      0.00
   13  -11   10     -5.02      0.00
   14  -11   10      1.06      0.00
   15  -11   10      1.48      0.00
   16  -11   10      2.14      0.00
  -13  -10   10      1.03      0.00
  -12  -10   10      2.45      0.00
  -11  -10   10     10.52      0.00
  -10  -10   10     10.17      0.00
   -9  -10   10      5.12      0.00
   -8  -10   10    -10.78      0.00
   -7  -10   10      3.00      0.00
   -6  -10   10     -3.62      0.00
   -5  -10   10      3.86      0.00
   -4  -10   10      7.39      0.00
   -3  -10   10     -0.47      0.00
   -2  -10   10     -6.68      0.00
   -1  -10   10      3.76      0.00
    0  -10   10     -2.91      0.00
    1  -10   10      5.43      0.00
    2  -10   10     -7.95      0.00
    3  -10   10      5.05      0.00
    4  -10   10     -9.16      0.00
    5  -10   10      6.72      0.00
    6  -10   10     -7.32      0.00
    7  -10   10     -0.40      0.00
    8  -10   10      2.51      0.00
    9  -10   10     -0.03      0.00
   10  -10   10     -3.09      0.00
   11  -10   10      1.67      0.00
   12  -10   10      4.21      0.00
   13  -10   10     -3.20      0.00
   14  -10   10     -1.83      0.00
   15  -10   10     -0.08      0.00
   16  -10   10      1.51      0.00
  -13   -9   10     -5.10      0.00
  -12   -9   10      0.87      0.00
  -11   -9   10    -11.50      0.00
  -10   -9   10     -0.31      0.00
   -9   -9   10      0.14      0.00
   -8   -9   10     -1.05      0.00
   -7   -9   10     -2.75      0.00
   -6   -9   10      0.84      0.00
   -5   -9   10      3.69      0.00
   -4   -9   10      2.83      0.00
   -3   -9   10     12.30      0.00
   -2   -9   10     -1.29      0.00
   -1   -9   10      4.90      0.00
    0   -9   10     -7.54      0.00
    1   -9   10     -1.56      0.00
    2   -9   10     -0.87      0.00
    3   -9   10      4.24      0.00
    4   -9   10     -7.99      0.00
    5   -9   10      6.38      0.00
    6   -9   10      0.13      0.00
    7   -9   10     -4.36      0.00
    8   -9   10     -0.31      0.00
    9   -9   10     -3.71      0.00
   10   -9   10      0.09      0.00
   11   -9   10     -4.61      0.00
   12   -9   10      0.48      0.00
   13   -9   10     -3.41      0.00
   14   -9   10      4.00      0.00
   15   -9   10      2.39      0.00
   16   -9   10     -3.43      0.00
  -14   -8   10      0.42      0.00
  -13   -8   10      2.77      0.00
  -12   -8   10      2.20      0.00
  -11   -8   10      8.63      0.00
  -10   -8   10      0.30      0.00
   -9   -8   10     -2.21      0.00
   -8   -8   10      3.65      0.00
   -7   -8   10      4.21      0.00
   -6   -8   10      3.63      0.00
   -5   -8   10    -10.07      0.00
   -4   -8   10      4.23      0.00
   -3   -8   10     -5.33      0.00
   -2   -8   10     -4.99      0.00
   -1   -8   10     -0.30      0.00
    0   -8   10      1.14      0.00
    1   -8   10     -1.61      0.00
    2   -8   10     -4.60      0.00
    3   -8   10      7.72      0.00
    4   -8   10     -8.01      0.00
    5   -8   10     -2.43      0.00
    6   -8   10      1.03      0.00
    7   -8   10      2.78      0.00
    8   -8   10      4.32      0.00
    9   -8   10     -4.15      0.00
   10   -8   10     -1.27      0.00
   11   -8   10     -0.72      0.00
   12   -8   10      4.34      0.00
   13   -8   10     -2.17      0.00
   14   -8   10      2.76      0.00
   15   -8   10      0.73      0.00
  -15   -7   10     -2.89      0.00
  -14   -7   10      2.84      0.00
  -13   -7   10     -3.10      0.00
  -12   -7   10     -5.65      0.00
  -11   -7   10     -4.19      0.00
  -10   -7   10      1.93      0.00
   -9   -7   10     -0.74      0.00
   -8   -7   10     -9.72      0.00
   -7   -7   10      0.18      0.00
   -6   -7   10      9.19      0.00
   -5   -7   10      4.38      0.00
   -4   -7   10     16.89      0.00
   -3   -7   10      0.37      0.00
   -2   -7   10     -2.58      0.00
   -1   -7   10     -7.43      0.00
    0   -7   10     15.93      0.00
    1   -7   10     -7.83      0.00
    2   -7   10     -3.39      0.00
    3   -7   10     -5.57      0.00
    4   -7   10     -3.16      0.00
    5   -7   10     -4.27      0.00
    6   -7   10     10.36      0.00
    7   -7   10    -10.28      0.00
    8   -7   10     -0.89      0.00
    9   -7   10      0.18      0.00
   10   -7   10      2.15      0.00
   11   -7   10     -8.16      0.00
   12   -7   10      2.80      0.00
   13   -7   10     -1.00      0.00
   14   -7   10      1.15      0.00
   15   -7   10     -1.60      0.00
  -15   -6   10      3.53      0.00
  -14   -6   10     -1.03      0.00
  -13   -6   10      3.95      0.00
  -12   -6   10      9.49      0.00
  -11   -6   10     -0.30      0.00
  -10   -6   10      0.77      0.00
   -9   -6   10      7.96      0.00
   -8   -6   10      5.02      0.00
   -7   -6   10     -6.80      0.00
   -6   -6   10     -0.62      0.00
   -5   -6   10    -20.68      0.00
   -4   -6   10      4.55      0.00
   -3   -6   10      1.62      0.00
   -2   -6   10     -5.83      0.00
   -1   -6   10    -11.16      0.00
    0   -6   10     -2.13      0.00
    1   -6   10     -9.39      0.00
    2   -6   10     16.21      0.00
    3   -6   10     10.50      0.00
    4   -6   10     -5.36      0.00
    5   -6   10     -9.97      0.00
    6   -6   10      8.38      0.00
    7   -6   10     -6.08      0.00
    8   -6   10     -0.59      0.00
    9   -6   10     -1.59      0.00
   10   -6   10      2.71      0.00
   11   -6   10     -3.20      0.00
   12   -6   10      3.62      0.00
   13   -6   10     -1.54      0.00
   14   -6   10      0.44      0.00
   15   -6   10     -1.64      0.00
  -16   -5   10     -2.40      0.00
  -15   -5   10      0.14      0.00
  -14   -5   10     -2.30      0.00
  -13   -5   10     -2.43      0.00
  -12   -5   10     -2.80      0.00
  -11   -5   10      5.12      0.00
  -10   -5   10     -1.58      0.00
   -9   -5   10     -5.90      0.00
   -8   -5   10     -3.28      0.00
   -7   -5   10      3.57      0.00
   -6   -5   10     15.32      0.00
   -5   -5   10      8.00      0.00
   -4   -5   10      4.34      0.00
   -3   -5   10     -3.12      0.00
   -2   -5   10     15.63      0.00
   -1   -5   10    -13.63      0.00
    0   -5   10     17.06      0.00
    1   -5   10    -10.69      0.00
    2   -5   10      1.36      0.00
    3   -5   10     -7.00      0.00
    4   -5   10     13.84      0.00
    5   -5   10     -8.37      0.00
    6   -5   10      4.81      0.00
    7   -5   10    -12.71      0.00
    8   -5   10      1.48      0.00
    9   -5   10     -1.83      0.00
   10   -5   10      1.38      0.00
   11   -5   10     -5.26      0.00
   12   -5   10      4.50      0.00
   13   -5   10     -2.75      0.00
   14   -5   10     -0.30      0.00
   15   -5   10     -3.11      0.00
  -17   -4   10      0.95      0.00
  -16   -4   10     -0.72      0.00
  -15   -4   10      6.54      0.00
  -14   -4   10      1.52      0.00
  -13   -4   10      1.67      0.00
  -12   -4   10      2.02      0.00
  -11   -4   10     -1.86      0.00
  -10   -4   10     -1.48      0.00
   -9   -4   10     10.18      0.00
   -8   -4   10     -5.39      0.00
   -7   -4   10     -2.91      0.00
   -6   -4   10     -6.62      0.00
   -5   -4   10     -8.95      0.00
   -4   -4   10    -12.50      0.00
   -3   -4   10      2.67      0.00
   -2   -4   10     -6.63      0.00
   -1   -4   10    -14.31      0.00
    0   -4   10      6.72      0.00
    1   -4   10      2.54      0.00
    2   -4   10      7.93      0.00
    3   -4   10     -2.85      0.00
    4   -4   10      8.78      0.00
    5   -4   10     -8.00      0.00
    6   -4   10     11.13      0.00
    7   -4   10     -3.45      0.00
    8   -4   10      1.53      0.00
    9   -4   10     -3.31      0.00
   10   -4   10      6.28      0.00
   11   -4   10     -4.22      0.00
   12   -4   10      4.05      0.00
   13   -4   10     -1.75      0.00
   14   -4   10     -0.40      0.00
   15   -4   10      2.04      0.00
  -17   -3   10      4.00      0.00
  -16   -3   10     -1.02      0.00
  -15   -3   10     -2.51      0.00
  -14   -3   10     -1.12      0.00
  -13   -3   10      0.74      0.00
  -12   -3   10      1.44      0.00
  -11   -3   10      5.51      0.00
  -10   -3   10    -10.73      0.00
   -9   -3   10      5.45      0.00
   -8   -3   10     -6.69      0.00
   -7   -3   10     -1.59      0.00
   -6   -3   10      3.39      0.00
   -5   -3   10     19.18      0.00
   -4   -3   10     -0.22      0.00
   -3   -3   10     14.79      0.00
   -2   -3   10      3.57      0.00
   -1   -3   10    -19.74      0.00
    0   -3   10     25.64      0.00
    1   -3   10      0.90      0.00
    2   -3   10     -6.26      0.00
    3   -3   10    -10.41      0.00
    4   -3   10     11.14      0.00
    5   -3   10    -22.09      0.00
    6   -3   10      1.44      0.00
    7   -3   10     -1.83      0.00
    8   -3   10      3.11      0.00
    9   -3   10     -3.23      0.00
   10   -3   10      7.38      0.00
   11   -3   10     -0.52      0.00
   12   -3   10      3.83      0.00
   13   -3   10     -2.91      0.00
   14   -3   10      1.34      0.00
  -18   -2   10     -3.67      0.00
  -17   -2   10      3.54      0.00
  -16   -2   10      0.19      0.00
  -15   -2   10      6.25      0.00
  -14   -2   10      1.20      0.00
  -13   -2   10      0.07      0.00
  -12   -2   10     -5.03      0.00
  -11   -2   10      3.90      0.00
  -10   -2   10     -5.30      0.00
   -9   -2   10      4.60      0.00
   -8   -2   10    -10.71      0.00
   -7   -2   10     11.64      0.00
   -6   -2   10    -13.33      0.00
   -5   -2   10      4.22      0.00
   -4   -2   10    -35.40      0.00
   -3   -2   10      5.93      0.00
   -2   -2   10      6.04      0.00
   -1   -2   10     -1.61      0.00
    0   -2   10      5.23      0.00
    1   -2   10      7.15      0.00
    2   -2   10      5.17      0.00
    3   -2   10     -3.99      0.00
    4   -2   10     12.92      0.00
    5   -2   10    -11.19      0.00
    6   -2   10      4.17      0.00
    7   -2   10     -0.43      0.00
    8   -2   10      3.63      0.00
    9   -2   10     -2.35      0.00
   10   -2   10      9.10      0.00
   11   -2   10     -1.65      0.00
   12   -2   10     -0.70      0.00
   13   -2   10     -0.07      0.00
   14   -2   10      0.65      0.00
  -18   -1   10      1.02      0.00
  -17   -1   10     -0.29      0.00
  -16   -1   10     -3.52      0.00
  -15   -1   10     -0.99      0.00
  -14   -1   10      3.15      0.00
  -13   -1   10     -0.97      0.00
  -12   -1   10     -6.09      0.00
  -11   -1   10      2.51      0.00
  -10   -1   10     -9.85      0.00
   -9   -1   10     12.00      0.00
   -8   -1   10     -8.90      0.00
   -7   -1   10     -2.27      0.00
   -6   -1   10      0.07      0.00
   -5   -1   10     30.30      0.00
   -4   -1   10      2.53      0.00
   -3   -1   10      6.03      0.00
   -2   -1   10     -0.34      0.00
   -1   -1   10     -0.97      0.00
    0   -1   10      9.76      0.00
    1   -1   10    -11.62      0.00
    2   -1   10     -6.07      0.00
    3   -1   10     -8.52      0.00
    4   -1   10      7.43      0.00
    5   -1   10    -16.89      0.00
    6   -1   10     -2.74      0.00
    7   -1   10     -0.72      0.00
    8   -1   10      5.30      0.00
    9   -1   10     -1.02      0.00
   10   -1   10      6.95      0.00
   11   -1   10     -2.37      0.00
   12   -1   10     -0.44      0.00
   13   -1   10     -0.27      0.00
  -19    0   10      2.83      0.00
  -18    0   10      3.73      0.00
  -17    0   10      7.81      0.00
  -16    0   10     -3.61      0.00
  -15    0   10     -4.54      0.00
  -14    0   10      1.24      0.00
  -13    0   10      1.53      0.00
  -12    0   10     -1.35      0.00
  -11    0   10      5.51      0.00
  -10    0   10    -11.93      0.00
   -9    0   10     -1.15      0.00
   -8    0   10      2.51      0.00
   -7    0   10     12.89      0.00
   -6    0   10    -17.50      0.00
   -5    0   10     11.71      0.00
   -4    0   10    -15.18      0.00
   -3    0   10      8.87      0.00
   -2    0   10      9.08      0.00
   -1    0   10    -13.13      0.00
    0    0   10      0.73      0.00
    1    0   10     18.84      0.00
    2    0   10      3.05      0.00
    3    0   10    -20.91      0.00
    4    0   10      6.65      0.00
    5    0   10     -0.45      0.00
    6    0   10      6.93      0.00
    7    0   10      2.72      0.00
    8    0   10      1.04      0.00
    9    0   10     -1.14      0.00
   10    0   10      4.40      0.00
   11    0   10     -1.30      0.00
   12    0   10     -0.30      0.00
   13    0   10     -0.04      0.00
  -20    1   10     -4.00      0.00
  -19    1   10      4.16      0.00
  -18    1   10      6.44      0.00
  -17    1   10     -2.49      0.00
  -16    1   10      4.41      0.00
  -15    1   10     -0.98      0.00
  -14    1   10     -4.43      0.00
  -13    1   10     -5.44      0.00
  -12    1   10      0.27      0.00
  -11    1   10      0.33      0.00
  -10    1   10     -4.16      0.00
   -9    1   10      3.60      0.00
   -8    1   10      3.36      0.00
   -7    1   10      2.02      0.00
   -6    1   10     10.14      0.00
   -5    1   10      4.15      0.00
   -4    1   10      0.35      0.00
   -3    1   10     -0.60      0.00
   -2    1   10     20.08      0.00
   -1    1   10      0.12      0.00
    0    1   10    -16.77      0.00
    1    1   10    -16.93      0.00
    2    1   10      7.95      0.00
    3    1   10    -15.06      0.00
    4    1   10     -0.14      0.00
    5    1   10     -8.92      0.00
    6    1   10     -2.66      0.00
    7    1   10      2.74      0.00
    8    1   10      9.81      0.00
    9    1   10     -4.45      0.00
   10    1   10      0.25      0.00
   11    1   10     -1.27      0.00
   12    1   10     -0.85      0.00
   13    1   10      0.80      0.00
  -20    2   10     -0.54      0.00
  -19    2   10     -0.30      0.00
  -18    2   10     -1.11      0.00
  -17    2   10     -1.14      0.00
  -16    2   10     -1.29      0.00
  -15    2   10     -2.63      0.00
  -14    2   10      2.47      0.00
  -13    2   10     -4.40      0.00
  -12    2   10     -5.51      0.00
  -11    2   10      0.77      0.00
  -10    2   10     -0.53      0.00
   -9    2   10     -0.56      0.00
   -8    2   10     11.12      0.00
   -7    2   10     -8.13      0.00
   -6    2   10     -3.11      0.00
   -5    2   10     18.80      0.00
   -4    2   10      3.66      0.00
   -3    2   10    -24.57      0.00
   -2    2   10     15.47      0.00
   -1    2   10     -7.59      0.00
    0    2   10      5.21      0.00
    1    2   10      3.95      0.00
    2    2   10     -6.44      0.00
    3    2   10    -17.97      0.00
    4    2   10     14.58      0.00
    5    2   10      3.15      0.00
    6    2   10     -1.92      0.00
    7    2   10      0.57      0.00
    8    2   10      5.21      0.00
    9    2   10     -0.40      0.00
   10    2   10     -1.19      0.00
   11    2   10      0.10      0.00
   12    2   10     -1.05      0.00
  -20    3   10      3.05      0.00
  -19    3   10      1.20      0.00
  -18    3   10      0.38      0.00
  -17    3   10     -1.90      0.00
  -16    3   10     -2.12      0.00
  -15    3   10     -4.05      0.00
  -14    3   10      4.99      0.00
  -13    3   10     -2.67      0.00
  -12    3   10     -1.96      0.00
  -11    3   10     -9.12      0.00
  -10    3   10     11.20      0.00
   -9    3   10    -12.94      0.00
   -8    3   10     22.31      0.00
   -7    3   10     -0.47      0.00
   -6    3   10      8.38      0.00
   -5    3   10    -16.80      0.00
   -4    3   10     23.22      0.00
   -3    3   10    -13.87      0.00
   -2    3   10     10.87      0.00
   -1    3   10    -12.24      0.00
    0    3   10     -4.67      0.00
    1    3   10    -13.47      0.00
    2    3   10     14.33      0.00
    3    3   10    -19.92      0.00
    4    3   10      0.09      0.00
    5    3   10      0.60      0.00
    6    3   10      1.59      0.00
    7    3   10      1.12      0.00
    8    3   10      7.07      0.00
    9    3   10     -6.00      0.00
   10    3   10      0.11      0.00
   11    3   10      3.25      0.00
   12    3   10     -5.31      0.00
  -21    4   10      1.71      0.00
  -20    4   10      2.38      0.00
  -19    4   10     -5.36      0.00
  -18    4   10     -3.54      0.00
  -17    4   10      4.49      0.00
  -16    4   10     -0.37      0.00
  -15    4   10     -1.27      0.00
  -14    4   10     -4.62      0.00
  -13    4   10     -8.39      0.00
  -12    4   10      0.56      0.00
  -11    4   10      1.11      0.00
  -10    4   10      4.24      0.00
   -9    4   10    -11.27      0.00
   -8    4   10      8.61      0.00
   -7    4   10     -4.07      0.00
   -6    4   10     11.20      0.00
   -5    4   10    -17.24      0.00
   -4    4   10     17.07      0.00
   -3    4   10    -19.61      0.00
   -2    4   10      8.35      0.00
   -1    4   10     -6.94      0.00
    0    4   10      1.63      0.00
    1    4   10    -18.33      0.00
    2    4   10     11.68      0.00
    3    4   10      0.20      0.00
    4    4   10      6.56      0.00
    5    4   10     -3.16      0.00
    6    4   10      2.53      0.00
    7    4   10      1.10      0.00
    8    4   10      3.80      0.00
    9    4   10     -1.66      0.00
   10    4   10     -0.69      0.00
   11    4   10      0.44      0.00
  -21    5   10     -2.04      0.00
  -20    5   10     -1.59      0.00
  -19    5   10      1.63      0.00
  -18    5   10      0.83      0.00
  -17    5   10      1.98      0.00
  -16    5   10     -2.40      0.00
  -15    5   10     -6.72      0.00
  -14    5   10      2.38      0.00
  -13    5   10      0.24      0.00
  -12    5   10     -2.32      0.00
  -11    5   10     -4.59      0.00
  -10    5   10     25.13      0.00
   -9    5   10    -18.50      0.00
   -8    5   10     18.65      0.00
   -7    5   10     -6.81      0.00
   -6    5   10      9.53      0.00
   -5    5   10    -14.72      0.00
   -4    5   10     21.85      0.00
   -3    5   10    -27.28      0.00
   -2    5   10     16.19      0.00
   -1    5   10      0.29      0.00
    0    5   10      4.00      0.00
    1    5   10    -11.87      0.00
    2    5   10      3.14      0.00
    3    5   10     -8.81      0.00
    4    5   10      7.68      0.00
    5    5   10     -0.21      0.00
    6    5   10      1.46      0.00
    7    5   10     -1.21      0.00
    8    5   10      2.43      0.00
    9    5   10      0.65      0.00
   10    5   10     -2.09      0.00
   11    5   10     -1.22      0.00
  -21    6   10     -3.38      0.00
  -20    6   10      1.06      0.00
  -19    6   10      2.59      0.00
  -18    6   10     -1.08      0.00
  -17    6   10      1.08      0.00
  -16    6   10     -0.54      0.00
  -15    6   10     -2.70      0.00
  -14    6   10      0.89      0.00
  -13    6   10     -0.14      0.00
  -12    6   10     -6.11      0.00
  -11    6   10     -2.76      0.00
  -10    6   10     12.62      0.00
   -9    6   10     -6.12      0.00
   -8    6   10     13.84      0.00
   -7    6   10    -11.64      0.00
   -6    6   10     -3.00      0.00
   -5    6   10    -15.90      0.00
   -4    6   10     24.56      0.00
   -3    6   10     -2.85      0.00
   -2    6   10     -1.00      0.00
   -1    6   10     -7.86      0.00
    0    6   10      0.70      0.00
    1    6   10     -7.45      0.00
    2    6   10     18.64      0.00
    3    6   10     -2.95      0.00
    4    6   10     -5.05      0.00
    5    6   10      5.24      0.00
    6    6   10      5.83      0.00
    7    6   10     -4.15      0.00
    8    6   10      2.02      0.00
    9    6   10      0.79      0.00
   10    6   10     -0.17      0.00
  -21    7   10     -1.05      0.00
  -20    7   10     -1.70      0.00
  -19    7   10      2.24      0.00
  -18    7   10     -3.82      0.00
  -17    7   10      1.65      0.00
  -16    7   10     -0.07      0.00
  -15    7   10      1.11      0.00
  -14    7   10     -5.37      0.00
  -13    7   10      2.87      0.00
  -12    7   10      3.44      0.00
  -11    7   10      1.97      0.00
  -10    7   10      8.97      0.00
   -9    7   10     -8.84      0.00
   -8    7   10      5.04      0.00
   -7    7   10     -4.37      0.00
   -6    7   10     10.38      0.00
   -5    7   10     -9.10      0.00
   -4    7   10     12.13      0.00
   -3    7   10    -10.19      0.00
   -2    7   10     10.69      0.00
   -1    7   10      4.61      0.00
    0    7   10      0.36      0.00
    1    7   10     -2.11      0.00
    2    7   10      3.93      0.00
    3    7   10     -0.69      0.00
    4    7   10      2.40      0.00
    5    7   10     -1.19      0.00
    6    7   10     -0.01      0.00
    7    7   10      1.75      0.00
    8    7   10      4.87      0.00
    9    7   10      0.58      0.00
  -21    8   10     -0.43      0.00
  -20    8   10      4.09      0.00
  -19    8   10      5.72      0.00
  -18    8   10     -1.08      0.00
  -17    8   10     -2.15      0.00
  -16    8   10     -0.72      0.00
  -15    8   10      2.80      0.00
  -14    8   10     -1.24      0.00
  -13    8   10      3.40      0.00
  -12    8   10     -2.91      0.00
  -11    8   10     -7.33      0.00
  -10    8   10      9.71      0.00
   -9    8   10     -2.46      0.00
   -8    8   10     -7.07      0.00
   -7    8   10     -1.63      0.00
   -6    8   10      3.96      0.00
   -5    8   10     -0.72      0.00
   -4    8   10      5.68      0.00
   -3    8   10     -0.96      0.00
   -2    8   10     -2.25      0.00
   -1    8   10      4.04      0.00
    0    8   10      2.26      0.00
    1    8   10     -5.33      0.00
    2    8   10      2.63      0.00
    3    8   10      1.44      0.00
    4    8   10      1.04      0.00
    5    8   10      2.88      0.00
    6    8   10      1.36      0.00
    7    8   10      0.11      0.00
    8    8   10      3.56      0.00
  -22    9   10      1.62      0.00
  -21    9   10     -1.05      0.00
  -20    9   10     -3.23      0.00
  -19    9   10      1.10      0.00
  -18    9   10     -0.70      0.00
  -17    9   10      0.08      0.00
  -16    9   10     -2.50      0.00
  -15    9   10      1.84      0.00
  -14    9   10     -5.17      0.00
  -13    9   10      4.97      0.00
  -12    9   10      4.03      0.00
  -11    9   10     -0.91      0.00
  -10    9   10      0.95      0.00
   -9    9   10     -3.49      0.00
   -8    9   10     -0.34      0.00
   -7    9   10      2.02      0.00
   -6    9   10      4.11      0.00
   -5    9   10     -3.95      0.00
   -4    9   10      7.72      0.00
   -3    9   10      3.52      0.00
   -2    9   10     -6.05      0.00
   -1    9   10      0.03      0.00
    0    9   10      3.27      0.00
    1    9   10      6.20      0.00
    2    9   10      0.94      0.00
    3    9   10      0.87      0.00
    4    9   10     -5.88      0.00
    5    9   10      0.73      0.00
    6    9   10      3.97      0.00
    7    9   10     -1.64      0.00
    8    9   10      4.32      0.00
  -22   10   10      1.68      0.00
  -21   10   10      1.15      0.00
  -20   10   10      1.13      0.00
  -19   10   10      2.23      0.00
  -18   10   10      0.51      0.00
  -17   10   10      0.75      0.00
  -16   10   10     -0.11      0.00
  -15   10   10     -0.20      0.00
  -14   10   10     -4.78      0.00
  -13   10   10      1.49      0.00
  -12   10   10     -1.97      0.00
  -11   10   10     -0.61      0.00
  -10   10   10      2.04      0.00
   -9   10   10     -5.91      0.00
   -8   10   10     -5.41      0.00
   -7   10   10      6.81      0.00
   -6   10   10     -1.51      0.00
   -5   10   10     -8.78      0.00
   -4   10   10      3.37      0.00
   -3   10   10      3.08      0.00
   -2   10   10      0.14      0.00
   -1   10   10      1.06      0.00
    0   10   10     -2.81      0.00
    1   10   10     -3.39      0.00
    2   10   10     -0.38      0.00
    3   10   10      1.30      0.00
    4   10   10     -1.44      0.00
    5   10   10     -1.45      0.00
    6   10   10      6.26      0.00
    7   10   10      2.97      0.00
  -22   11   10     -2.37      0.00
  -21   11   10      1.91      0.00
  -20   11   10      0.14      0.00
  -19   11   10     -4.44      0.00
  -18   11   10      1.47      0.00
  -17   11   10     -1.10      0.00
  -16   11   10     -2.07      0.00
  -15   11   10      1.82      0.00
  -14   11   10      1.20      0.00
  -13   11   10     -1.10      0.00
  -12   11   10      0.87      0.00
  -11   11   10     -5.81      0.00
  -10   11   10      3.77      0.00
   -9   11   10      1.73      0.00
   -8   11   10     -2.21      0.00
   -7   11   10     -4.77      0.00
   -6   11   10      6.38      0.00
   -5   11   10     -4.81      0.00
   -4   11   10      0.72      0.00
   -3   11   10      2.66      0.00
   -2   11   10     -2.07      0.00
   -1   11   10      3.95      0.00
    0   11   10      0.65      0.00
    1   11   10     -1.59      0.00
    2   11   10     -0.05      0.00
    3   11   10      4.76      0.00
    4   11   10     -2.57      0.00
    5   11   10     -1.94      0.00
    6   11   10      3.03      0.00
  -21   12   10      1.00      0.00
  -20   12   10     -0.73      0.00
  -19   12   10     -2.63      0.00
  -18   12   10      3.31      0.00
  -17   12   10     -1.98      0.00
  -16   12   10      0.28      0.00
  -15   12   10      1.61      0.00
  -14   12   10     -3.82      0.00
  -13   12   10      1.15      0.00
  -12   12   10      1.21      0.00
  -11   12   10     -3.66      0.00
  -10   12   10     -1.43      0.00
   -9   12   10     -0.71      0.00
   -8   12   10      0.68      0.00
   -7   12   10     -7.18      0.00
   -6   12   10      4.70      0.00
   -5   12   10     -2.84      0.00
   -4   12   10      7.19      0.00
   -3   12   10     -0.80      0.00
   -2   12   10     -3.50      0.00
   -1   12   10     -5.71      0.00
    0   12   10      4.83      0.00
    1   12   10     -1.15      0.00
    2   12   10     -3.46      0.00
    3   12   10     -3.34      0.00
    4   12   10      1.70      0.00
    5   12   10     -1.25      0.00
  -21   13   10     -0.11      0.00
  -20   13   10      0.98      0.00
  -19   13   10     -2.67      0.00
  -18   13   10      3.44      0.00
  -17   13   10     -4.02      0.00
  -16   13   10      1.15      0.00
  -15   13   10      0.40      0.00
  -14   13   10      1.36      0.00
  -13   13   10     -1.23      0.00
  -12   13   10      2.82      0.00
  -11   13   10     -5.19      0.00
  -10   13   10      0.58      0.00
   -9   13   10     -1.98      0.00
   -8   13   10     -0.06      0.00
   -7   13   10     -6.29      0.00
   -6   13   10      6.64      0.00
   -5   13   10     -0.76      0.00
   -4   13   10      0.05      0.00
   -3   13   10     -1.78      0.00
   -2   13   10     -0.20      0.00
   -1   13   10     -1.26      0.00
    0   13   10     -2.96      0.00
    1   13   10     -1.14      0.00
    2   13   10      0.26      0.00
    3   13   10      2.84      0.00
    4   13   10     -0.04      0.00
  -21   14   10     -2.99      0.00
  -20   14   10     -1.25      0.00
  -19   14   10      2.54      0.00
  -18   14   10      1.69      0.00
  -17   14   10     -1.96      0.00
  -16   14   10      1.13      0.00
  -15   14   10      0.96      0.00
  -14   14   10     -2.13      0.00
  -13   14   10      0.26      0.00
  -12   14   10      2.90      0.00
  -11   14   10     -4.44      0.00
  -10   14   10     -0.16      0.00
   -9   14   10      0.63      0.00
   -8   14   10      1.25      0.00
   -7   14   10     -3.16      0.00
   -6   14   10      9.07      0.00
   -5   14   10     -1.92      0.00
   -4   14   10      0.69      0.00
   -3   14   10     -3.53      0.00
   -2   14   10      2.17      0.00
   -1   14   10     -3.65      0.00
    0   14   10      5.99      0.00
    1   14   10     -6.46      0.00
    2   14   10     -2.33      0.00
    3   14   10     -2.06      0.00
  -20   15   10      3.26      0.00
  -19   15   10     -2.10      0.00
  -18   15   10      2.00      0.00
  -17   15   10     -4.85      0.00
  -16   15   10      1.48      0.00
  -15   15   10      0.79      0.00
  -14   15   10      1.34      0.00
  -13   15   10     -1.10      0.00
  -12   15   10      0.98      0.00
  -11   15   10     -3.72      0.00
  -10   15   10     -1.63      0.00
   -9   15   10     -0.64      0.00
   -8   15   10      0.01      0.00
   -7   15   10     -1.03      0.00
   -6   15   10      0.52      0.00
   -5   15   10     -7.21      0.00
   -4   15   10     -0.20      0.00
   -3   15   10     -2.15      0.00
   -2   15   10     -1.35      0.00
   -1   15   10     -1.91      0.00
    0   15   10     -0.02      0.00
    1   15   10      2.71      0.00
    2   15   10     -0.42      0.00
  -20   16   10      1.24      0.00
  -19   16   10      0.67      0.00
  -18   16   10      0.21      0.00
  -17   16   10     -0.46      0.00
  -16   16   10      3.01      0.00
  -15   16   10     -0.56      0.00
  -14   16   10      0.51      0.00
  -13   16   10     -3.72      0.00
  -12   16   10     -2.01      0.00
  -11   16   10      0.78      0.00
  -10   16   10     -2.66      0.00
   -9   16   10      0.26      0.00
   -8   16   10      2.21      0.00
   -7   16   10     -0.32      0.00
   -6   16   10      1.03      0.00
   -5   16   10     -0.63      0.00
   -4   16   10      0.78      0.00
   -3   16   10     -3.96      0.00
   -2   16   10      4.77      0.00
   -1   16   10     -6.45      0.00
    0   16   10     -0.48      0.00
  -20   17   10      2.56      0.00
  -19   17   10     -2.42      0.00
  -18   17   10      2.20      0.00
  -17   17   10     -3.98      0.00
  -16   17   10     -0.23      0.00
  -15   17   10     -1.94      0.00
  -14   17   10      2.82      0.00
  -13   17   10     -1.72      0.00
  -12   17   10      0.99      0.00
  -11   17   10     -3.53      0.00
  -10   17   10     -1.80      0.00
   -9   17   10     -3.38      0.00
   -8   17   10      0.38      0.00
   -7   17   10      0.06      0.00
   -6   17   10     -2.78      0.00
   -5   17   10     -1.83      0.00
   -4   17   10      0.42      0.00
   -3   17   10      0.64      0.00
   -2   17   10     -1.30      0.00
   -1   17   10     -0.19      0.00
  -19   18   10      0.14      0.00
  -18   18   10     -1.01      0.00
  -17   18   10     -2.79      0.00
  -16   18   10      3.07      0.00
  -15   18   10      0.92      0.00
  -14   18   10     -1.52      0.00
  -13   18   10     -1.70      0.00
  -12   18   10     -3.18      0.00
  -11   18   10     -4.18      0.00
  -10   18   10      1.94      0.00
   -9   18   10     -1.86      0.00
   -8   18   10     -2.14      0.00
   -7   18   10     -3.24      0.00
   -6   18   10     -0.33      0.00
   -5   18   10     -1.65      0.00
   -4   18   10      1.85      0.00
   -3   18   10     -2.96      0.00
  -18   19   10     -0.21      0.00
  -17   19   10     -0.20      0.00
  -16   19   10     -1.00      0.00
  -15   19   10     -4.81      0.00
  -14   19   10      1.86      0.00
  -13   19   10     -4.61      0.00
  -12   19   10      0.04      0.00
  -11   19   10     -0.10      0.00
  -10   19   10      0.16      0.00
   -9   19   10     -3.90      0.00
   -8   19   10     -0.60      0.00
   -7   19   10      2.14      0.00
   -6   19   10     -1.11      0.00
   -5   19   10      1.39      0.00
  -16   20   10      0.49      0.00
  -15   20   10      1.74      0.00
  -14   20   10     -2.40      0.00
  -13   20   10     -4.55      0.00
  -12   20   10      0.24      0.00
  -11   20   10     -3.52      0.00
  -10   20   10     -1.89      0.00
   -9   20   10     -3.20      0.00
   -8   20   10      1.46      0.00
   -7   20   10      0.98      0.00
    2  -20   11      0.32      0.00
    3  -20   11     -2.80      0.00
    4  -20   11     -2.29      0.00
    5  -20   11     -2.10      0.00
    6  -20   11     -3.84      0.00
    7  -20   11     -3.03      0.00
    8  -20   11      0.48      0.00
    9  -20   11      2.75      0.00
   -1  -19   11     -0.69      0.00
    0  -19   11     -4.99      0.00
    1  -19   11      3.51      0.00
    2  -19   11      0.31      0.00
    3  -19   11      2.34      0.00
    4  -19   11      3.03      0.00
    5  -19   11      1.62      0.00
    6  -19   11     -7.33      0.00
    7  -19   11      2.03      0.00
    8  -19   11      4.87      0.00
    9  -19   11      2.12      0.00
   10  -19   11     -1.84      0.00
   11  -19   11      3.89      0.00
   -3  -18   11      1.04      0.00
   -2  -18   11      2.91      0.00
   -1  -18   11     -3.29      0.00
    0  -18   11      1.13      0.00
    1  -18   11     -0.53      0.00
    2  -18   11     -6.44      0.00
    3  -18   11     -7.66      0.00
    4  -18   11     -1.06      0.00
    5  -18   11     -2.87      0.00
    6  -18   11     -2.53      0.00
    7  -18   11      2.72      0.00
    8  -18   11     -2.64      0.00
    9  -18   11      0.64      0.00
   10  -18   11      0.11      0.00
   11  -18   11      4.81      0.00
   12  -18   11     -1.07      0.00
   -5  -17   11      4.15      0.00
   -4  -17   11      4.83      0.00
   -3  -17   11      1.03      0.00
   -2  -17   11     -0.64      0.00
   -1  -17   11      1.08      0.00
    0  -17   11     -3.08      0.00
    1  -17   11      1.49      0.00
    2  -17   11      3.67      0.00
    3  -17   11     -0.25      0.00
    4  -17   11     -2.51      0.00
    5  -17   11     -0.11      0.00
    6  -17   11     -0.36      0.00
    7  -17   11      0.96      0.00
    8  -17   11      7.55      0.00
    9  -17   11      2.88      0.00
   10  -17   11     -3.99      0.00
   11  -17   11      1.51      0.00
   12  -17   11      1.96      0.00
   13  -17   11     -0.73      0.00
   -6  -16   11     -4.45      0.00
   -5  -16   11      3.18      0.00
   -4  -16   11     -1.20      0.00
   -3  -16   11     -2.91      0.00
   -2  -16   11      3.50      0.00
   -1  -16   11      0.04      0.00
    0  -16   11     -4.34      0.00
    1  -16   11     -8.88      0.00
    2  -16   11      1.22      0.00
    3  -16   11     -4.26      0.00
    4  -16   11      4.74      0.00
    5  -16   11      0.57      0.00
    6  -16   11     -3.71      0.00
    7  -16   11      0.95      0.00
    8  -16   11     -0.37      0.00
    9  -16   11      4.81      0.00
   10  -16   11     -0.54      0.00
   11  -16   11      1.90      0.00
   12  -16   11     -4.21      0.00
   13  -16   11     -0.18      0.00
   14  -16   11      0.42      0.00
   -8  -15   11     -2.51      0.00
   -7  -15   11      3.78      0.00
   -6  -15   11      4.04      0.00
   -5  -15   11      6.55      0.00
   -4  -15   11      1.98      0.00
   -3  -15   11      0.32      0.00
   -2  -15   11     -6.46      0.00
   -1  -15   11      1.10      0.00
    0  -15   11     -0.44      0.00
    1  -15   11      0.14      0.00
    2  -15   11      1.74      0.00
    3  -15   11      1.06      0.00
    4  -15   11     -0.92      0.00
    5  -15   11      0.62      0.00
    6  -15   11      2.73      0.00
    7  -15   11      0.47      0.00
    8  -15   11     -1.70      0.00
    9  -15   11     -1.26      0.00
   10  -15   11     -0.16      0.00
   11  -15   11      5.08      0.00
   12  -15   11      1.49      0.00
   13  -15   11     -0.72      0.00
   14  -15   11     -1.62      0.00
   -9  -14   11     -3.38      0.00
   -8  -14   11     -4.51      0.00
   -7  -14   11      1.42      0.00
   -6  -14   11     -1.82      0.00
   -5  -14   11     -5.17      0.00
   -4  -14   11      3.62      0.00
   -3  -14   11      0.62      0.00
   -2  -14   11      2.61      0.00
   -1  -14   11     -1.23      0.00
    0  -14   11     -1.69      0.00
    1  -14   11     -6.91      0.00
    2  -14   11      7.18      0.00
    3  -14   11     -2.83      0.00
    4  -14   11      2.30      0.00
    5  -14   11     -1.99      0.00
    6  -14   11      0.58      0.00
    7  -14   11      1.03      0.00
    8  -14   11      1.04      0.00
    9  -14   11      1.82      0.00
   10  -14   11     -5.59      0.00
   11  -14   11      2.67      0.00
   12  -14   11     -2.50      0.00
   13  -14   11      3.45      0.00
   14  -14   11     -0.26      0.00
  -10  -13   11     -3.09      0.00
   -9  -13   11      1.85      0.00
   -8  -13   11      3.32      0.00
   -7  -13   11      3.69      0.00
   -6  -13   11      5.14      0.00
   -5  -13   11      8.39      0.00
   -4  -13   11     -5.77      0.00
   -3  -13   11      0.50      0.00
   -2  -13   11     -3.05      0.00
   -1  -13   11      5.08      0.00
    0  -13   11     -5.09      0.00
    1  -13   11      1.25      0.00
    2  -13   11      1.88      0.00
    3  -13   11      1.09      0.00
    4  -13   11     -3.33      0.00
    5  -13   11      4.80      0.00
    6  -13   11      0.08      0.00
    7  -13   11     -5.96      0.00
    8  -13   11     -0.47      0.00
    9  -13   11      2.53      0.00
   10  -13   11     -0.70      0.00
   11  -13   11      2.20      0.00
   12  -13   11      1.68      0.00
   13  -13   11      2.89      0.00
   14  -13   11     -0.92      0.00
   15  -13   11      1.44      0.00
  -11  -12   11     -1.91      0.00
  -10  -12   11     -0.52      0.00
   -9  -12   11     -2.51      0.00
   -8  -12   11     -0.06      0.00
   -7  -12   11     -8.50      0.00
   -6  -12   11     -4.76      0.00
   -5  -12   11     -0.06      0.00
   -4  -12   11      6.57      0.00
   -3  -12   11     -0.60      0.00
   -2  -12   11     -2.47      0.00
   -1  -12   11      2.31      0.00
    0  -12   11     -1.10      0.00
    1  -12   11     -1.16      0.00
    2  -12   11      1.74      0.00
    3  -12   11     -0.10      0.00
    4  -12   11      3.73      0.00
    5  -12   11      0.45      0.00
    6  -12   11      2.34      0.00
    7  -12   11     -0.96      0.00
    8  -12   11      1.37      0.00
    9  -12   11      3.39      0.00
   10  -12   11     -1.83      0.00
   11  -12   11      1.46      0.00
   12  -12   11      0.64      0.00
   13  -12   11     -3.07      0.00
   14  -12   11     -2.34      0.00
   15  -12   11      0.20      0.00
  -12  -11   11     -7.59      0.00
  -11  -11   11     -3.88      0.00
  -10  -11   11      4.91      0.00
   -9  -11   11      3.95      0.00
   -8  -11   11     -2.06      0.00
   -7  -11   11      7.76      0.00
   -6  -11   11      0.60      0.00
   -5  -11   11      1.67      0.00
   -4  -11   11     -0.81      0.00
   -3  -11   11      0.48      0.00
   -2  -11   11     -8.90      0.00
   -1  -11   11     -0.13      0.00
    0  -11   11     -1.05      0.00
    1  -11   11      4.40      0.00
    2  -11   11     -4.74      0.00
    3  -11   11      5.32      0.00
    4  -11   11     -3.21      0.00
    5  -11   11      1.34      0.00
    6  -11   11     -4.34      0.00
    7  -11   11     -0.77      0.00
    8  -11   11      0.12      0.00
    9  -11   11      2.67      0.00
   10  -11   11     -1.19      0.00
   11  -11   11      1.72      0.00
   12  -11   11      0.95      0.00
   13  -11   11      2.56      0.00
   14  -11   11      1.07      0.00
   15  -11   11      1.44      0.00
  -12  -10   11      8.21      0.00
  -11  -10   11     -6.14      0.00
  -10  -10   11     -1.34      0.00
   -9  -10   11     -9.63      0.00
   -8  -10   11     -7.68      0.00
   -7  -10   11     -4.59      0.00
   -6  -10   11      0.44      0.00
   -5  -10   11      2.00      0.00
   -4  -10   11     -9.36      0.00
   -3  -10   11      8.43      0.00
   -2  -10   11    -13.88      0.00
   -1  -10   11      5.76      0.00
    0  -10   11      1.97      0.00
    1  -10   11      3.49      0.00
    2  -10   11     -2.73      0.00
    3  -10   11      8.57      0.00
    4  -10   11     -2.49      0.00
    5  -10   11      2.99      0.00
    6  -10   11      2.83      0.00
    7  -10   11      1.90      0.00
    8  -10   11     -3.06      0.00
    9  -10   11      3.46      0.00
   10  -10   11      2.85      0.00
   11  -10   11     -1.46      0.00
   12  -10   11     -1.09      0.00
   13  -10   11     -1.91      0.00
   14  -10   11      1.63      0.00
   15  -10   11      2.01      0.00
  -13   -9   11     -1.10      0.00
  -12   -9   11     -2.95      0.00
  -11   -9   11      1.38      0.00
  -10   -9   11      4.58      0.00
   -9   -9   11      5.07      0.00
   -8   -9   11     -6.24      0.00
   -7   -9   11      1.13      0.00
   -6   -9   11      4.86      0.00
   -5   -9   11     -1.57      0.00
   -4   -9   11     -4.28      0.00
   -3   -9   11     10.90      0.00
   -2   -9   11    -13.06      0.00
   -1   -9   11     -4.11      0.00
    0   -9   11     -5.28      0.00
    1   -9   11     14.46      0.00
    2   -9   11    -11.57      0.00
    3   -9   11     11.81      0.00
    4   -9   11    -11.00      0.00
    5   -9   11     -0.33      0.00
    6   -9   11     -7.00      0.00
    7   -9   11      0.87      0.00
    8   -9   11     -4.65      0.00
    9   -9   11      3.06      0.00
   10   -9   11     -2.49      0.00
   11   -9   11     -1.80      0.00
   12   -9   11      2.98      0.00
   13   -9   11      2.59      0.00
   14   -9   11      1.41      0.00
   15   -9   11     -1.59      0.00
  -14   -8   11      2.72      0.00
  -13   -8   11     -5.02      0.00
  -12   -8   11      1.98      0.00
  -11   -8   11     -6.90      0.00
  -10   -8   11     -7.14      0.00
   -9   -8   11      2.40      0.00
   -8   -8   11     -4.52      0.00
   -7   -8   11     -8.28      0.00
   -6   -8   11     -8.04      0.00
   -5   -8   11      1.59      0.00
   -4   -8   11    -15.29      0.00
   -3   -8   11     13.10      0.00
   -2   -8   11     -5.95      0.00
   -1   -8   11      3.11      0.00
    0   -8   11     -3.59      0.00
    1   -8   11     12.12      0.00
    2   -8   11     -6.30      0.00
    3   -8   11     12.71      0.00
    4   -8   11     -5.80      0.00
    5   -8   11      5.72      0.00
    6   -8   11      4.33      0.00
    7   -8   11      0.52      0.00
    8   -8   11     -6.21      0.00
    9   -8   11      2.73      0.00
   10   -8   11      4.60      0.00
   11   -8   11     -5.44      0.00
   12   -8   11      0.50      0.00
   13   -8   11     -0.79      0.00
   14   -8   11     -0.23      0.00
   15   -8   11     -0.97      0.00
  -15   -7   11      3.82      0.00
  -14   -7   11      2.41      0.00
  -13   -7   11     -3.29      0.00
  -12   -7   11      4.17      0.00
  -11   -7   11      4.77      0.00
  -10   -7   11     -4.43      0.00
   -9   -7   11     -1.81      0.00
   -8   -7   11      3.73      0.00
   -7   -7   11      4.64      0.00
   -6   -7   11      9.09      0.00
   -5   -7   11      6.14      0.00
   -4   -7   11    -10.87      0.00
   -3   -7   11      0.91      0.00
   -2   -7   11     -4.14      0.00
   -1   -7   11     13.01      0.00
    0   -7   11     -9.46      0.00
    1   -7   11      6.37      0.00
    2   -7   11    -17.47      0.00
    3   -7   11     13.81      0.00
    4   -7   11     -8.11      0.00
    5   -7   11     -1.00      0.00
    6   -7   11     -7.53      0.00
    7   -7   11      0.17      0.00
    8   -7   11     -0.89      0.00
    9   -7   11      1.25      0.00
   10   -7   11     -0.61      0.00
   11   -7   11     -2.95      0.00
   12   -7   11      3.92      0.00
   13   -7   11     -1.25      0.00
   14   -7   11      0.57      0.00
   15   -7   11      0.22      0.00
  -15   -6   11     -2.19      0.00
  -14   -6   11      1.09      0.00
  -13   -6   11      0.70      0.00
  -12   -6   11     -4.51      0.00
  -11   -6   11     -2.37      0.00
  -10   -6   11      1.64      0.00
   -9   -6   11     -3.88      0.00
   -8   -6   11    -14.02      0.00
   -7   -6   11     -7.25      0.00
   -6   -6   11     -3.10      0.00
   -5   -6   11      7.10      0.00
   -4   -6   11      1.21      0.00
   -3   -6   11     -4.84      0.00
   -2   -6   11      2.33      0.00
   -1   -6   11     -3.50      0.00
    0   -6   11      6.75      0.00
    1   -6   11     26.48      0.00
    2   -6   11     -9.44      0.00
    3   -6   11     -3.11      0.00
    4   -6   11     -0.34      0.00
    5   -6   11      3.71      0.00
    6   -6   11     -0.49      0.00
    7   -6   11      0.47      0.00
    8   -6   11     -0.40      0.00
    9   -6   11      0.19      0.00
   10   -6   11      5.22      0.00
   11   -6   11     -5.83      0.00
   12   -6   11      1.24      0.00
   13   -6   11     -0.55      0.00
   14   -6   11      1.83      0.00
   15   -6   11      1.93      0.00
  -16   -5   11     -0.36      0.00
  -15   -5   11      3.33      0.00
  -14   -5   11      2.25      0.00
  -13   -5   11      3.94      0.00
  -12   -5   11      3.68      0.00
  -11   -5   11      0.86      0.00
  -10   -5   11     -4.52      0.00
   -9   -5   11      5.42      0.00
   -8   -5   11     12.98      0.00
   -7   -5   11      0.35      0.00
   -6   -5   11     11.59      0.00
   -5   -5   11     -7.94      0.00
   -4   -5   11     -6.88      0.00
   -3   -5   11      6.56      0.00
   -2   -5   11      4.74      0.00
   -1   -5   11     -5.27      0.00
    0   -5   11     -2.20      0.00
    1   -5   11      5.23      0.00
    2   -5   11     -6.07      0.00
    3   -5   11      4.01      0.00
    4   -5   11     -1.68      0.00
    5   -5   11    -13.23      0.00
    6   -5   11     -5.24      0.00
    7   -5   11      4.72      0.00
    8   -5   11     -0.57      0.00
    9   -5   11     -3.93      0.00
   10   -5   11      4.29      0.00
   11   -5   11     -0.59      0.00
   12   -5   11     -0.32      0.00
   13   -5   11     -0.54      0.00
   14   -5   11      0.46      0.00
  -17   -4   11      1.74      0.00
  -16   -4   11      2.29      0.00
  -15   -4   11     -1.67      0.00
  -14   -4   11      0.66      0.00
  -13   -4   11     -3.13      0.00
  -12   -4   11     -4.72      0.00
  -11   -4   11      1.70      0.00
  -10   -4   11      1.36      0.00
   -9   -4   11     -1.08      0.00
   -8   -4   11     -4.45      0.00
   -7   -4   11     -7.76      0.00
   -6   -4   11      4.02      0.00
   -5   -4   11      4.05      0.00
   -4   -4   11      9.92      0.00
   -3   -4   11    -10.38      0.00
   -2   -4   11     19.12      0.00
   -1   -4   11     -3.88      0.00
    0   -4   11     14.42      0.00
    1   -4   11      8.43      0.00
    2   -4   11     -9.55      0.00
    3   -4   11     -2.33      0.00
    4   -4   11     11.14      0.00
    5   -4   11      0.05      0.00
    6   -4   11     -1.70      0.00
    7   -4   11      3.75      0.00
    8   -4   11      1.98      0.00
    9   -4   11     -4.57      0.00
   10   -4   11      2.17      0.00
   11   -4   11     -1.36      0.00
   12   -4   11      0.68      0.00
   13   -4   11     -1.23      0.00
   14   -4   11      3.05      0.00
  -17   -3   11      6.84      0.00
  -16   -3   11     -3.17      0.00
  -15   -3   11      5.49      0.00
  -14   -3   11      2.78      0.00
  -13   -3   11      4.01      0.00
  -12   -3   11     -0.12      0.00
  -11   -3   11     -1.09      0.00
  -10   -3   11      3.55      0.00
   -9   -3   11     -0.90      0.00
   -8   -3   11      6.10      0.00
   -7   -3   11      3.18      0.00
   -6   -3   11      5.67      0.00
   -5   -3   11      0.79      0.00
   -4   -3   11     -4.24      0.00
   -3   -3   11    -13.36      0.00
   -2   -3   11      7.85      0.00
   -1   -3   11     -4.15      0.00
    0   -3   11     -4.13      0.00
    1   -3   11     -6.44      0.00
    2   -3   11     -1.56      0.00
    3   -3   11    -15.04      0.00
    4   -3   11      0.73      0.00
    5   -3   11     -3.05      0.00
    6   -3   11      3.99      0.00
    7   -3   11      1.02      0.00
    8   -3   11      0.99      0.00
    9   -3   11     -2.44      0.00
   10   -3   11      3.94      0.00
   11   -3   11      0.94      0.00
   12   -3   11     -0.89      0.00
   13   -3   11      1.84      0.00
   14   -3   11      0.10      0.00
  -18   -2   11      4.29      0.00
  -17   -2   11      4.30      0.00
  -16   -2   11      3.36      0.00
  -15   -2   11     -2.46      0.00
  -14   -2   11     -0.12      0.00
  -13   -2   11     -0.63      0.00
  -12   -2   11     -2.10      0.00
  -11   -2   11      9.08      0.00
  -10   -2   11     -6.78      0.00
   -9   -2   11      1.65      0.00
   -8   -2   11      6.38      0.00
   -7   -2   11     -8.25      0.00
   -6   -2   11     -6.95      0.00
   -5   -2   11      3.45      0.00
   -4   -2   11     16.50      0.00
   -3   -2   11      0.02      0.00
   -2   -2   11     26.15      0.00
   -1   -2   11      1.42      0.00
    0   -2   11      3.97      0.00
    1   -2   11     -0.60      0.00
    2   -2   11      5.32      0.00
    3   -2   11    -10.06      0.00
    4   -2   11      6.82      0.00
    5   -2   11     -1.40      0.00
    6   -2   11      0.25      0.00
    7   -2   11      1.09      0.00
    8   -2   11      4.78      0.00
    9   -2   11     -4.52      0.00
   10   -2   11     -2.23      0.00
   11   -2   11     -3.46      0.00
   12   -2   11      0.13      0.00
   13   -2   11      1.19      0.00
  -18   -1   11     -1.40      0.00
  -17   -1   11      5.37      0.00
  -16   -1   11     -0.18      0.00
  -15   -1   11      3.42      0.00
  -14   -1   11     -2.15      0.00
  -13   -1   11      2.60      0.00
  -12   -1   11     -1.78      0.00
  -11   -1   11      7.71      0.00
  -10   -1   11      2.35      0.00
   -9   -1   11      0.13      0.00
   -8   -1   11     -5.80      0.00
   -7   -1   11     19.47      0.00
   -6   -1   11    -11.35      0.00
   -5   -1   11     11.92      0.00
   -4   -1   11    -14.23      0.00
   -3   -1   11    -19.79      0.00
   -2   -1   11      7.02      0.00
   -1   -1   11     -3.97      0.00
    0   -1   11    -22.76      0.00
    1   -1   11     -4.23      0.00
    2   -1   11     14.63      0.00
    3   -1   11    -16.19      0.00
    4   -1   11      4.01      0.00
    5   -1   11      3.18      0.00
    6   -1   11      1.92      0.00
    7   -1   11     -1.74      0.00
    8   -1   11      4.19      0.00
    9   -1   11     -3.08      0.00
   10   -1   11     -1.54      0.00
   11   -1   11     -1.21      0.00
   12   -1   11     -0.35      0.00
   13   -1   11     -0.58      0.00
  -19    0   11      6.14      0.00
  -18    0   11      5.34      0.00
  -17    0   11     -2.95      0.00
  -16    0   11     -1.28      0.00
  -15    0   11     -0.13      0.00
  -14    0   11     -1.30      0.00
  -13    0   11      2.69      0.00
  -12    0   11     -5.05      0.00
  -11    0   11      4.09      0.00
  -10    0   11     -9.18      0.00
   -9    0   11      5.92      0.00
   -8    0   11     -2.53      0.00
   -7    0   11     -1.56      0.00
   -6    0   11    -12.09      0.00
   -5    0   11     12.19      0.00
   -4    0   11     10.70      0.00
   -3    0   11      3.28      0.00
   -2    0   11     -0.46      0.00
   -1    0   11     11.18      0.00
    0    0   11      6.20      0.00
    1    0   11     -8.18      0.00
    2    0   11      4.89      0.00
    3    0   11     -6.82      0.00
    4    0   11      9.79      0.00
    5    0   11      1.72      0.00
    6    0   11     -0.85      0.00
    7    0   11     -6.51      0.00
    8    0   11      6.80      0.00
    9    0   11     -3.77      0.00
   10    0   11     -2.39      0.00
   11    0   11     -0.11      0.00
   12    0   11     -0.60      0.00
   13    0   11     -1.97      0.00
  -20    1   11      2.55      0.00
  -19    1   11      3.71      0.00
  -18    1   11     -2.11      0.00
  -17    1   11      4.51      0.00
  -16    1   11     -1.58      0.00
  -15    1   11     -4.00      0.00
  -14    1   11     -0.93      0.00
  -13    1   11      7.94      0.00
  -12    1   11     -6.37      0.00
  -11    1   11      8.83      0.00
  -10    1   11     -6.83      0.00
   -9    1   11      5.37      0.00
   -8    1   11    -14.94      0.00
   -7    1   11     27.33      0.00
   -6    1   11    -29.80      0.00
   -5    1   11      7.18      0.00
   -4    1   11     -1.51      0.00
   -3    1   11     -5.26      0.00
   -2    1   11    -12.01      0.00
   -1    1   11     -8.74      0.00
    0    1   11    -13.56      0.00
    1    1   11      4.72      0.00
    2    1   11     10.24      0.00
    3    1   11     -8.25      0.00
    4    1   11      1.74      0.00
    5    1   11      2.25      0.00
    6    1   11      1.89      0.00
    7    1   11     -0.61      0.00
    8    1   11     -0.19      0.00
    9    1   11     -3.99      0.00
   10    1   11     -0.10      0.00
   11    1   11      1.84      0.00
   12    1   11      1.15      0.00
  -20    2   11      2.18      0.00
  -19    2   11     -0.03      0.00
  -18    2   11      1.85      0.00
  -17    2   11      0.17      0.00
  -16    2   11     -2.25      0.00
  -15    2   11      0.81      0.00
  -14    2   11     -2.72      0.00
  -13    2   11      3.09      0.00
  -12    2   11     -4.48      0.00
  -11    2   11      4.73      0.00
  -10    2   11     -1.01      0.00
   -9    2   11     -3.86      0.00
   -8    2   11    -17.24      0.00
   -7    2   11     12.95      0.00
   -6    2   11     -1.08      0.00
   -5    2   11     -0.23      0.00
   -4    2   11    -11.60      0.00
   -3    2   11      6.34      0.00
   -2    2   11      0.33      0.00
   -1    2   11     17.57      0.00
    0    2   11      1.24      0.00
    1    2   11    -20.33      0.00
    2    2   11     10.55      0.00
    3    2   11      4.59      0.00
    4    2   11     -0.16      0.00
    5    2   11     -4.45      0.00
    6    2   11      0.73      0.00
    7    2   11     -3.66      0.00
    8    2   11      4.93      0.00
    9    2   11     -3.83      0.00
   10    2   11     -2.13      0.00
   11    2   11     -1.06      0.00
   12    2   11      1.44      0.00
  -20    3   11      4.87      0.00
  -19    3   11     -2.15      0.00
  -18    3   11     -3.81      0.00
  -17    3   11      0.05      0.00
  -16    3   11      0.69      0.00
  -15    3   11      2.59      0.00
  -14    3   11      0.81      0.00
  -13    3   11      1.36      0.00
  -12    3   11    -10.07      0.00
  -11    3   11      7.68      0.00
  -10    3   11     -6.90      0.00
   -9    3   11     12.78      0.00
   -8    3   11     -8.72      0.00
   -7    3   11      6.16      0.00
   -6    3   11    -17.28      0.00
   -5    3   11      3.91      0.00
   -4    3   11      4.33      0.00
   -3    3   11    -11.33      0.00
   -2    3   11    -15.67      0.00
   -1    3   11      1.81      0.00
    0    3   11      1.47      0.00
    1    3   11     -4.30      0.00
    2    3   11      2.17      0.00
    3    3   11     -5.99      0.00
    4    3   11      2.17      0.00
    5    3   11      2.33      0.00
    6    3   11      4.20      0.00
    7    3   11     -3.29      0.00
    8    3   11     -0.92      0.00
    9    3   11      0.71      0.00
   10    3   11      0.99      0.00
   11    3   11     -2.51      0.00
  -21    4   11      1.33      0.00
  -20    4   11     -0.06      0.00
  -19    4   11      2.74      0.00
  -18    4   11      0.56      0.00
  -17    4   11      4.03      0.00
  -16    4   11     -1.83      0.00
  -15    4   11     -2.51      0.00
  -14    4   11     -4.68      0.00
  -13    4   11      9.59      0.00
  -12    4   11      2.92      0.00
  -11    4   11    -10.70      0.00
  -10    4   11      4.17      0.00
   -9    4   11     -4.37      0.00
   -8    4   11     -5.47      0.00
   -7    4   11      8.87      0.00
   -6    4   11     -6.79      0.00
   -5    4   11    -12.97      0.00
   -4    4   11     10.74      0.00
   -3    4   11      2.04      0.00
   -2    4   11     -0.16      0.00
   -1    4   11      5.49      0.00
    0    4   11      1.81      0.00
    1    4   11     -7.17      0.00
    2    4   11     16.47      0.00
    3    4   11     -6.11      0.00
    4    4   11     -7.39      0.00
    5    4   11      1.99      0.00
    6    4   11      5.07      0.00
    7    4   11     -3.97      0.00
    8    4   11      1.27      0.00
    9    4   11     -0.13      0.00
   10    4   11     -1.62      0.00
  -21    5   11     -1.93      0.00
  -20    5   11      1.61      0.00
  -19    5   11      2.81      0.00
  -18    5   11     -3.82      0.00
  -17    5   11     -1.26      0.00
  -16    5   11      2.09      0.00
  -15    5   11      3.50      0.00
  -14    5   11      4.07      0.00
  -13    5   11     -3.06      0.00
  -12    5   11      0.75      0.00
  -11    5   11      1.81      0.00
  -10    5   11      2.61      0.00
   -9    5   11     -3.31      0.00
   -8    5   11      0.66      0.00
   -7    5   11    -10.48      0.00
   -6    5   11     10.28      0.00
   -5    5   11    -15.06      0.00
   -4    5   11      2.42      0.00
   -3    5   11      2.85      0.00
   -2    5   11      0.64      0.00
   -1    5   11     -9.08      0.00
    0    5   11      5.28      0.00
    1    5   11    -18.28      0.00
    2    5   11      7.36      0.00
    3    5   11      3.91      0.00
    4    5   11      0.97      0.00
    5    5   11     -1.85      0.00
    6    5   11      5.96      0.00
    7    5   11     -2.41      0.00
    8    5   11      2.80      0.00
    9    5   11      1.59      0.00
   10    5   11     -1.11      0.00
  -21    6   11      2.66      0.00
  -20    6   11     -2.22      0.00
  -19    6   11      5.69      0.00
  -18    6   11     -2.07      0.00
  -17    6   11      1.24      0.00
  -16    6   11     -0.85      0.00
  -15    6   11      3.08      0.00
  -14    6   11     -1.70      0.00
  -13    6   11     -0.08      0.00
  -12    6   11      7.27      0.00
  -11    6   11     -5.33      0.00
  -10    6   11      8.17      0.00
   -9    6   11     -3.71      0.00
   -8    6   11     -4.87      0.00
   -7    6   11    -18.18      0.00
   -6    6   11     16.09      0.00
   -5    6   11     -7.22      0.00
   -4    6   11     16.56      0.00
   -3    6   11     -7.86      0.00
   -2    6   11     -2.62      0.00
   -1    6   11     -5.02      0.00
    0    6   11     18.29      0.00
    1    6   11     -1.95      0.00
    2    6   11      1.66      0.00
    3    6   11     -7.94      0.00
    4    6   11      3.59      0.00
    5    6   11      2.90      0.00
    6    6   11     -0.12      0.00
    7    6   11     -1.30      0.00
    8    6   11      0.59      0.00
    9    6   11     -0.34      0.00
  -21    7   11     -3.05      0.00
  -20    7   11     -2.50      0.00
  -19    7   11      2.10      0.00
  -18    7   11      2.62      0.00
  -17    7   11      2.31      0.00
  -16    7   11      1.43      0.00
  -15    7   11     -1.78      0.00
  -14    7   11      0.17      0.00
  -13    7   11     -1.62      0.00
  -12    7   11      8.59      0.00
  -11    7   11    -16.43      0.00
  -10    7   11      5.73      0.00
   -9    7   11     -7.20      0.00
   -8    7   11      5.10      0.00
   -7    7   11     -7.79      0.00
   -6    7   11     15.73      0.00
   -5    7   11    -16.16      0.00
   -4    7   11      7.33      0.00
   -3    7   11      5.89      0.00
   -2    7   11      4.09      0.00
   -1    7   11    -14.47      0.00
    0    7   11      8.86      0.00
    1    7   11     -9.49      0.00
    2    7   11      5.50      0.00
    3    7   11      2.83      0.00
    4    7   11      0.42      0.00
    5    7   11      2.45      0.00
    6    7   11      8.82      0.00
    7    7   11      1.54      0.00
    8    7   11     -1.52      0.00
    9    7   11     -2.88      0.00
  -21    8   11      2.13      0.00
  -20    8   11     -2.58      0.00
  -19    8   11     -1.11      0.00
  -18    8   11      0.19      0.00
  -17    8   11      3.22      0.00
  -16    8   11      1.11      0.00
  -15    8   11      1.30      0.00
  -14    8   11     -2.32      0.00
  -13    8   11     -3.25      0.00
  -12    8   11      4.94      0.00
  -11    8   11     -3.54      0.00
  -10    8   11      6.30      0.00
   -9    8   11     -9.75      0.00
   -8    8   11      1.38      0.00
   -7    8   11     -7.68      0.00
   -6    8   11     15.87      0.00
   -5    8   11    -10.75      0.00
   -4    8   11      4.91      0.00
   -3    8   11     -2.31      0.00
   -2    8   11      7.57      0.00
   -1    8   11     -6.10      0.00
    0    8   11      5.50      0.00
    1    8   11     -3.55      0.00
    2    8   11      2.37      0.00
    3    8   11      2.97      0.00
    4    8   11      0.21      0.00
    5    8   11     -5.88      0.00
    6    8   11      2.41      0.00
    7    8   11      1.08      0.00
    8    8   11     -0.91      0.00
  -22    9   11     -3.36      0.00
  -21    9   11     -0.53      0.00
  -20    9   11     -0.75      0.00
  -19    9   11      3.02      0.00
  -18    9   11      0.28      0.00
  -17    9   11      4.04      0.00
  -16    9   11     -1.27      0.00
  -15    9   11      1.05      0.00
  -14    9   11     -0.63      0.00
  -13    9   11     -0.49      0.00
  -12    9   11      1.55      0.00
  -11    9   11     -9.72      0.00
  -10    9   11      1.55      0.00
   -9    9   11     -0.52      0.00
   -8    9   11      2.47      0.00
   -7    9   11     -5.28      0.00
   -6    9   11      9.28      0.00
   -5    9   11     -2.30      0.00
   -4    9   11      5.03      0.00
   -3    9   11     -3.20      0.00
   -2    9   11     -0.86      0.00
   -1    9   11     -2.63      0.00
    0    9   11      7.34      0.00
    1    9   11     -3.04      0.00
    2    9   11     -1.82      0.00
    3    9   11      1.95      0.00
    4    9   11      3.04      0.00
    5    9   11      2.50      0.00
    6    9   11      1.61      0.00
    7    9   11      3.01      0.00
  -22   10   11     -1.34      0.00
  -21   10   11      2.14      0.00
  -20   10   11      0.91      0.00
  -19   10   11      1.00      0.00
  -18   10   11      0.35      0.00
  -17   10   11      1.44      0.00
  -16   10   11     -3.69      0.00
  -15   10   11      0.60      0.00
  -14   10   11     -0.68      0.00
  -13   10   11     -2.36      0.00
  -12   10   11      6.81      0.00
  -11   10   11     -0.74      0.00
  -10   10   11     -3.80      0.00
   -9   10   11      3.42      0.00
   -8   10   11      3.49      0.00
   -7   10   11     -8.15      0.00
   -6   10   11      2.67      0.00
   -5   10   11      0.63      0.00
   -4   10   11      3.01      0.00
   -3   10   11      1.62      0.00
   -2   10   11      1.37      0.00
   -1   10   11     -5.04      0.00
    0   10   11      0.32      0.00
    1   10   11     -0.31      0.00
    2   10   11     -0.85      0.00
    3   10   11      1.99      0.00
    4   10   11     -1.28      0.00
    5   10   11     -1.29      0.00
    6   10   11      1.48      0.00
  -22   11   11      1.68      0.00
  -21   11   11      3.13      0.00
  -20   11   11     -1.08      0.00
  -19   11   11      4.09      0.00
  -18   11   11      0.70      0.00
  -17   11   11      0.37      0.00
  -16   11   11     -2.18      0.00
  -15   11   11      4.19      0.00
  -14   11   11     -4.26      0.00
  -13   11   11     -0.49      0.00
  -12   11   11     -0.81      0.00
  -11   11   11     -0.49      0.00
  -10   11   11     -1.34      0.00
   -9   11   11      0.08      0.00
   -8   11   11     -1.68      0.00
   -7   11   11     -0.64      0.00
   -6   11   11      4.71      0.00
   -5   11   11      0.76      0.00
   -4   11   11     -0.52      0.00
   -3   11   11     -1.41      0.00
   -2   11   11      0.54      0.00
   -1   11   11     -3.20      0.00
    0   11   11      0.22      0.00
    1   11   11      1.38      0.00
    2   11   11     -1.31      0.00
    3   11   11      0.52      0.00
    4   11   11      1.52      0.00
    5   11   11     -0.31      0.00
  -21   12   11      0.51      0.00
  -20   12   11      0.62      0.00
  -19   12   11      2.16      0.00
  -18   12   11      0.77      0.00
  -17   12   11     -1.47      0.00
  -16   12   11     -0.82      0.00
  -15   12   11      0.90      0.00
  -14   12   11     -0.07      0.00
  -13   12   11      1.26      0.00
  -12   12   11     -0.13      0.00
  -11   12   11     -1.76      0.00
  -10   12   11     -0.06      0.00
   -9   12   11      1.71      0.00
   -8   12   11     -0.19      0.00
   -7   12   11     -3.74      0.00
   -6   12   11      4.94      0.00
   -5   12   11      1.29      0.00
   -4   12   11     -3.36      0.00
   -3   12   11     -3.28      0.00
   -2   12   11     -3.47      0.00
   -1   12   11      0.22      0.00
    0   12   11      1.28      0.00
    1   12   11     -0.21      0.00
    2   12   11     -5.22      0.00
    3   12   11      1.25      0.00
    4   12   11      1.06      0.00
  -21   13   11      1.51      0.00
  -20   13   11      0.36      0.00
  -19   13   11      1.02      0.00
  -18   13   11     -1.83      0.00
  -17   13   11      0.96      0.00
  -16   13   11     -1.19      0.00
  -15   13   11      4.00      0.00
  -14   13   11     -2.28      0.00
  -13   13   11     -1.43      0.00
  -12   13   11     -2.91      0.00
  -11   13   11     -0.80      0.00
  -10   13   11     -3.00      0.00
   -9   13   11     -1.61      0.00
   -8   13   11      3.20      0.00
   -7   13   11     -1.55      0.00
   -6   13   11      2.63      0.00
   -5   13   11     -3.36      0.00
   -4   13   11     -2.18      0.00
   -3   13   11     -0.46      0.00
   -2   13   11      1.67      0.00
   -1   13   11     -7.92      0.00
    0   13   11      0.91      0.00
    1   13   11      3.78      0.00
    2   13   11     -0.02      0.00
    3   13   11     -2.04      0.00
  -21   14   11     -0.22      0.00
  -20   14   11      7.11      0.00
  -19   14   11     -2.44      0.00
  -18   14   11     -2.28      0.00
  -17   14   11      0.78      0.00
  -16   14   11     -2.17      0.00
  -15   14   11      1.84      0.00
  -14   14   11      1.35      0.00
  -13   14   11     -1.22      0.00
  -12   14   11     -1.84      0.00
  -11   14   11     -1.05      0.00
  -10   14   11      0.65      0.00
   -9   14   11     -2.52      0.00
   -8   14   11      5.25      0.00
   -7   14   11     -3.83      0.00
   -6   14   11     -1.05      0.00
   -5   14   11     -7.58      0.00
   -4   14   11     -3.48      0.00
   -3   14   11     -0.17      0.00
   -2   14   11      3.15      0.00
   -1   14   11      0.32      0.00
    0   14   11     -6.23      0.00
    1   14   11      0.17      0.00
    2   14   11     -0.26      0.00
  -20   15   11     -1.20      0.00
  -19   15   11      0.02      0.00
  -18   15   11     -1.77      0.00
  -17   15   11      1.36      0.00
  -16   15   11     -0.29      0.00
  -15   15   11      1.08      0.00
  -14   15   11     -3.40      0.00
  -13   15   11     -0.73      0.00
  -12   15   11     -4.54      0.00
  -11   15   11      1.24      0.00
  -10   15   11     -2.59      0.00
   -9   15   11     -0.17      0.00
   -8   15   11      2.41      0.00
   -7   15   11     -1.47      0.00
   -6   15   11     -1.34      0.00
   -5   15   11     -0.98      0.00
   -4   15   11      2.53      0.00
   -3   15   11     -5.09      0.00
   -2   15   11      6.16      0.00
   -1   15   11     -1.53      0.00
    0   15   11      1.12      0.00
    1   15   11     -1.14      0.00
  -20   16   11      1.34      0.00
  -19   16   11     -1.58      0.00
  -18   16   11      0.80      0.00
  -17   16   11      1.41      0.00
  -16   16   11     -2.14      0.00
  -15   16   11     -0.98      0.00
  -14   16   11     -0.58      0.00
  -13   16   11     -2.84      0.00
  -12   16   11      3.56      0.00
  -11   16   11     -1.10      0.00
  -10   16   11     -0.96      0.00
   -9   16   11     -2.54      0.00
   -8   16   11      0.96      0.00
   -7   16   11     -2.56      0.00
   -6   16   11     -0.11      0.00
   -5   16   11     -4.60      0.00
   -4   16   11     -0.90      0.00
   -3   16   11     -1.75      0.00
   -2   16   11     -1.84      0.00
   -1   16   11     -2.28      0.00
    0   16   11      0.06      0.00
  -19   17   11     -0.19      0.00
  -18   17   11     -0.25      0.00
  -17   17   11     -1.43      0.00
  -16   17   11     -2.26      0.00
  -15   17   11      3.89      0.00
  -14   17   11     -3.45      0.00
  -13   17   11      0.91      0.00
  -12   17   11     -6.06      0.00
  -11   17   11      1.91      0.00
  -10   17   11     -2.03      0.00
   -9   17   11      0.19      0.00
   -8   17   11      0.89      0.00
   -7   17   11      0.09      0.00
   -6   17   11      1.18      0.00
   -5   17   11     -0.68      0.00
   -4   17   11      3.72      0.00
   -3   17   11     -5.36      0.00
   -2   17   11      2.43      0.00
  -18   18   11      1.16      0.00
  -17   18   11      0.83      0.00
  -16   18   11      0.05      0.00
  -15   18   11     -3.49      0.00
  -14   18   11      2.93      0.00
  -13   18   11     -2.32      0.00
  -12   18   11     -1.69      0.00
  -11   18   11      0.91      0.00
  -10   18   11      1.09      0.00
   -9   18   11     -2.89      0.00
   -8   18   11     -2.02      0.00
   -7   18   11     -1.02      0.00
   -6   18   11     -1.04      0.00
   -5   18   11     -2.03      0.00
   -4   18   11     -0.94      0.00
   -3   18   11     -1.27      0.00
  -17   19   11     -0.46      0.00
  -16   19   11     -4.79      0.00
  -15   19   11      2.84      0.00
  -14   19   11     -2.83      0.00
  -13   19   11      0.92      0.00
  -12   19   11      2.04      0.00
  -11   19   11     -3.75      0.00
  -10   19   11     -1.90      0.00
   -9   19   11      1.34      0.00
   -8   19   11      0.14      0.00
   -7   19   11     -0.77      0.00
   -6   19   11      0.91      0.00
   -5   19   11     -4.19      0.00
  -15   20   11     -3.16      0.00
  -14   20   11     -0.86      0.00
  -13   20   11     -0.41      0.00
  -12   20   11      1.67      0.00
  -11   20   11     -3.11      0.00
  -10   20   11      1.57      0.00
   -9   20   11      3.22      0.00
   -8   20   11     -1.68      0.00
    4  -20   12      1.22      0.00
    5  -20   12      2.12      0.00
    6  -20   12     -1.99      0.00
    7  -20   12      0.26      0.00
    8  -20   12      1.80      0.00
    0  -19   12     -1.29      0.00
    1  -19   12      1.16      0.00
    2  -19   12     -0.21      0.00
    3  -19   12     -2.65      0.00
    4  -19   12     -4.78      0.00
    5  -19   12     -3.32      0.00
    6  -19   12      1.05      0.00
    7  -19   12      3.72      0.00
    8  -19   12      0.51      0.00
    9  -19   12      0.93      0.00
   10  -19   12     -1.04      0.00
   -3  -18   12     -1.25      0.00
   -2  -18   12     -4.40      0.00
   -1  -18   12      3.26      0.00
    0  -18   12     -1.91      0.00
    1  -18   12     -4.33      0.00
    2  -18   12      2.94      0.00
    3  -18   12      4.41      0.00
    4  -18   12     -0.63      0.00
    5  -18   12      3.94      0.00
    6  -18   12      2.41      0.00
    7  -18   12     -0.30      0.00
    8  -18   12      1.06      0.00
    9  -18   12      7.81      0.00
   10  -18   12     -2.72      0.00
   11  -18   12     -0.13      0.00
   -5  -17   12      4.86      0.00
   -4  -17   12     -0.66      0.00
   -3  -17   12     -6.61      0.00
   -2  -17   12      0.42      0.00
   -1  -17   12      1.02      0.00
    0  -17   12     -2.93      0.00
    1  -17   12     -2.04      0.00
    2  -17   12     -0.92      0.00
    3  -17   12     -4.77      0.00
    4  -17   12     -5.66      0.00
    5  -17   12      1.51      0.00
    6  -17   12     -0.40      0.00
    7  -17   12      4.63      0.00
    8  -17   12     -3.02      0.00
    9  -17   12      1.52      0.00
   10  -17   12     -1.59      0.00
   11  -17   12      0.14      0.00
   12  -17   12      0.92      0.00
   -6  -16   12      4.27      0.00
   -5  -16   12      0.20      0.00
   -4  -16   12      2.34      0.00
   -3  -16   12      0.96      0.00
   -2  -16   12     -0.49      0.00
   -1  -16   12     -0.32      0.00
    0  -16   12      0.22      0.00
    1  -16   12      1.95      0.00
    2  -16   12      9.06      0.00
    3  -16   12      6.23      0.00
    4  -16   12     -4.03      0.00
    5  -16   12      0.17      0.00
    6  -16   12      0.99      0.00
    7  -16   12      2.51      0.00
    8  -16   12     -2.52      0.00
    9  -16   12      3.96      0.00
   10  -16   12     -4.84      0.00
   11  -16   12     -1.54      0.00
   12  -16   12      1.65      0.00
   13  -16   12      2.53      0.00
   -7  -15   12      6.12      0.00
   -6  -15   12     -0.76      0.00
   -5  -15   12     -5.60      0.00
   -4  -15   12     -0.74      0.00
   -3  -15   12     -5.22      0.00
   -2  -15   12      0.62      0.00
   -1  -15   12      3.10      0.00
    0  -15   12      2.03      0.00
    1  -15   12     -8.97      0.00
    2  -15   12      1.15      0.00
    3  -15   12     -5.99      0.00
    4  -15   12     -3.68      0.00
    5  -15   12      1.11      0.00
    6  -15   12     -0.82      0.00
    7  -15   12      1.51      0.00
    8  -15   12     -3.54      0.00
    9  -15   12      5.22      0.00
   10  -15   12      1.52      0.00
   11  -15   12      0.51      0.00
   12  -15   12     -4.03      0.00
   13  -15   12      0.26      0.00
   -9  -14   12     -4.48      0.00
   -8  -14   12      3.78      0.00
   -7  -14   12      0.56      0.00
   -6  -14   12      2.52      0.00
   -5  -14   12      2.92      0.00
   -4  -14   12      5.54      0.00
   -3  -14   12      0.87      0.00
   -2  -14   12     -2.69      0.00
   -1  -14   12     -0.30      0.00
    0  -14   12      4.88      0.00
    1  -14   12      4.14      0.00
    2  -14   12      0.61      0.00
    3  -14   12      4.53      0.00
    4  -14   12     -3.68      0.00
    5  -14   12      2.46      0.00
    6  -14   12     -0.49      0.00
    7  -14   12      0.84      0.00
    8  -14   12     -4.85      0.00
    9  -14   12      0.47      0.00
   10  -14   12     -1.49      0.00
   11  -14   12      2.20      0.00
   12  -14   12      2.69      0.00
   13  -14   12      4.03      0.00
   14  -14   12     -3.99      0.00
  -10  -13   12      1.52      0.00
   -9  -13   12      4.98      0.00
   -8  -13   12     -3.84      0.00
   -7  -13   12     -0.33      0.00
   -6  -13   12      0.40      0.00
   -5  -13   12     -9.81      0.00
   -4  -13   12      0.48      0.00
   -3  -13   12      2.53      0.00
   -2  -13   12      2.39      0.00
   -1  -13   12     -8.06      0.00
    0  -13   12      3.90      0.00
    1  -13   12     -6.83      0.00
    2  -13   12     -3.11      0.00
    3  -13   12     -5.16      0.00
    4  -13   12      2.29      0.00
    5  -13   12      0.32      0.00
    6  -13   12     -4.47      0.00
    7  -13   12      5.11      0.00
    8  -13   12      1.54      0.00
    9  -13   12      5.01      0.00
   10  -13   12     -4.08      0.00
   11  -13   12     -0.34      0.00
   12  -13   12     -1.78      0.00
   13  -13   12      3.00      0.00
   14  -13   12      0.12      0.00
  -11  -12   12     -7.49      0.00
  -10  -12   12     -0.43      0.00
   -9  -12   12     -0.74      0.00
   -8  -12   12     -3.69      0.00
   -7  -12   12     -5.52      0.00
   -6  -12   12     10.53      0.00
   -5  -12   12      1.94      0.00
   -4  -12   12     -3.62      0.00
   -3  -12   12      0.92      0.00
   -2  -12   12     -0.31      0.00
   -1  -12   12     -4.61      0.00
    0  -12   12      7.50      0.00
    1  -12   12      3.23      0.00
    2  -12   12      0.73      0.00
    3  -12   12      3.79      0.00
    4  -12   12      0.21      0.00
    5  -12   12      1.45      0.00
    6  -12   12     -0.50      0.00
    7  -12   12      0.29      0.00
    8  -12   12     -3.85      0.00
    9  -12   12      0.35      0.00
   10  -12   12     -1.22      0.00
   11  -12   12      0.53      0.00
   12  -12   12     -3.21      0.00
   13  -12   12      5.32      0.00
   14  -12   12      1.44      0.00
  -12  -11   12      1.33      0.00
  -11  -11   12      7.44      0.00
  -10  -11   12      1.26      0.00
   -9  -11   12     -1.60      0.00
   -8  -11   12      1.04      0.00
   -7  -11   12     -7.28      0.00
   -6  -11   12     -4.34      0.00
   -5  -11   12     -2.94      0.00
   -4  -11   12     -3.57      0.00
   -3  -11   12      0.20      0.00
   -2  -11   12      0.52      0.00
   -1  -11   12     -4.90      0.00
    0  -11   12      3.40      0.00
    1  -11   12     -3.27      0.00
    2  -11   12      0.74      0.00
    3  -11   12     -2.31      0.00
    4  -11   12     -0.95      0.00
    5  -11   12     -5.66      0.00
    6  -11   12      3.50      0.00
    7  -11   12      5.06      0.00
    8  -11   12     -2.05      0.00
    9  -11   12      3.54      0.00
   10  -11   12      0.16      0.00
   11  -11   12      0.66      0.00
   12  -11   12     -1.44      0.00
   13  -11   12      2.64      0.00
   14  -11   12     -1.10      0.00
  -12  -10   12     -6.61      0.00
  -11  -10   12     -7.64      0.00
  -10  -10   12     -4.39      0.00
   -9  -10   12     -4.18      0.00
   -8  -10   12      1.94      0.00
   -7  -10   12      1.83      0.00
   -6  -10   12      8.15      0.00
   -5  -10   12     -4.12      0.00
   -4  -10   12     -2.15      0.00
   -3  -10   12     -1.52      0.00
   -2  -10   12      4.14      0.00
   -1  -10   12     -0.86      0.00
    0  -10   12     -1.35      0.00
    1  -10   12      6.12      0.00
    2  -10   12      1.25      0.00
    3  -10   12      3.07      0.00
    4  -10   12      2.56      0.00
    5  -10   12     -2.18      0.00
    6  -10   12     -3.33      0.00
    7  -10   12     -2.72      0.00
    8  -10   12     -3.63      0.00
    9  -10   12      2.43      0.00
   10  -10   12     -1.78      0.00
   11  -10   12     -1.18      0.00
   12  -10   12      0.62      0.00
   13  -10   12      4.65      0.00
   14  -10   12     -0.12      0.00
  -13   -9   12      0.62      0.00
  -12   -9   12      6.46      0.00
  -11   -9   12      6.71      0.00
  -10   -9   12     -1.72      0.00
   -9   -9   12     -5.39      0.00
   -8   -9   12     -1.91      0.00
   -7   -9   12     -5.47      0.00
   -6   -9   12     -4.00      0.00
   -5   -9   12      2.67      0.00
   -4   -9   12     -7.28      0.00
   -3   -9   12     -1.44      0.00
   -2   -9   12     -3.14      0.00
   -1   -9   12      0.02      0.00
    0   -9   12      4.45      0.00
    1   -9   12      1.40      0.00
    2   -9   12     -2.78      0.00
    3   -9   12     -2.87      0.00
    4   -9   12      0.73      0.00
    5   -9   12     -1.36      0.00
    6   -9   12      0.21      0.00
    7   -9   12      3.27      0.00
    8   -9   12     -3.17      0.00
    9   -9   12      1.90      0.00
   10   -9   12      4.41      0.00
   11   -9   12      4.48      0.00
   12   -9   12     -0.75      0.00
   13   -9   12      0.63      0.00
   14   -9   12     -1.44      0.00
  -14   -8   12     -0.06      0.00
  -13   -8   12     -5.18      0.00
  -12   -8   12     -2.72      0.00
  -11   -8   12     -1.50      0.00
  -10   -8   12     -2.47      0.00
   -9   -8   12      0.35      0.00
   -8   -8   12     -0.94      0.00
   -7   -8   12     -1.64      0.00
   -6   -8   12      4.29      0.00
   -5   -8   12      8.48      0.00
   -4   -8   12     -3.82      0.00
   -3   -8   12      5.55      0.00
   -2   -8   12     -3.25      0.00
   -1   -8   12      7.21      0.00
    0   -8   12     -5.68      0.00
    1   -8   12     12.23      0.00
    2   -8   12    -10.85      0.00
    3   -8   12      3.76      0.00
    4   -8   12      1.21      0.00
    5   -8   12      2.85      0.00
    6   -8   12     -8.49      0.00
    7   -8   12      1.89      0.00
    8   -8   12     -1.61      0.00
    9   -8   12     -0.38      0.00
   10   -8   12     -1.98      0.00
   11   -8   12     -0.08      0.00
   12   -8   12      0.38      0.00
   13   -8   12     -1.40      0.00
   14   -8   12     -0.08      0.00
  -15   -7   12     -1.66      0.00
  -14   -7   12     -2.26      0.00
  -13   -7   12      2.65      0.00
  -12   -7   12      2.71      0.00
  -11   -7   12     -1.62      0.00
  -10   -7   12     -0.72      0.00
   -9   -7   12      1.73      0.00
   -8   -7   12     -0.06      0.00
   -7   -7   12     -0.19      0.00
   -6   -7   12    -13.82      0.00
   -5   -7   12      1.32      0.00
   -4   -7   12    -18.26      0.00
   -3   -7   12      1.60      0.00
   -2   -7   12      3.17      0.00
   -1   -7   12      3.36      0.00
    0   -7   12    -13.53      0.00
    1   -7   12     15.04      0.00
    2   -7   12     -5.32      0.00
    3   -7   12      0.30      0.00
    4   -7   12     -5.50      0.00
    5   -7   12      4.77      0.00
    6   -7   12     -2.82      0.00
    7   -7   12     10.54      0.00
    8   -7   12      1.81      0.00
    9   -7   12     -2.12      0.00
   10   -7   12      4.23      0.00
   11   -7   12      2.02      0.00
   12   -7   12     -1.54      0.00
   13   -7   12     -1.52      0.00
   14   -7   12      2.33      0.00
  -15   -6   12     -1.63      0.00
  -14   -6   12      1.03      0.00
  -13   -6   12     -0.26      0.00
  -12   -6   12     -6.59      0.00
  -11   -6   12      2.97      0.00
  -10   -6   12     -6.98      0.00
   -9   -6   12    -10.44      0.00
   -8   -6   12      6.29      0.00
   -7   -6   12      8.56      0.00
   -6   -6   12      3.10      0.00
   -5   -6   12     15.41      0.00
   -4   -6   12    -13.72      0.00
   -3   -6   12      6.94      0.00
   -2   -6   12     -4.14      0.00
   -1   -6   12     20.48      0.00
    0   -6   12     -8.79      0.00
    1   -6   12      8.32      0.00
    2   -6   12    -18.88      0.00
    3   -6   12      8.70      0.00
    4   -6   12     -1.83      0.00
    5   -6   12      2.14      0.00
    6   -6   12     -8.53      0.00
    7   -6   12      7.56      0.00
    8   -6   12      2.38      0.00
    9   -6   12     -3.20      0.00
   10   -6   12     -1.48      0.00
   11   -6   12     -0.23      0.00
   12   -6   12      0.50      0.00
   13   -6   12     -0.56      0.00
   14   -6   12      0.46      0.00
  -16   -5   12      1.75      0.00
  -15   -5   12     -3.89      0.00
  -14   -5   12      4.18      0.00
  -13   -5   12      2.23      0.00
  -12   -5   12     -1.71      0.00
  -11   -5   12     -0.07      0.00
  -10   -5   12      2.99      0.00
   -9   -5   12      5.02      0.00
   -8   -5   12    -11.94      0.00
   -7   -5   12     -2.33      0.00
   -6   -5   12    -20.51      0.00
   -5   -5   12      0.14      0.00
   -4   -5   12      3.56      0.00
   -3   -5   12     -3.10      0.00
   -2   -5   12    -12.21      0.00
   -1   -5   12     10.93      0.00
    0   -5   12    -18.05      0.00
    1   -5   12     20.27      0.00
    2   -5   12     -8.53      0.00
    3   -5   12      2.12      0.00
    4   -5   12    -10.17      0.00
    5   -5   12     11.82      0.00
    6   -5   12     -0.19      0.00
    7   -5   12      3.30      0.00
    8   -5   12      1.41      0.00
    9   -5   12     -2.78      0.00
   10   -5   12      0.63      0.00
   11   -5   12     -1.78      0.00
   12   -5   12      1.11      0.00
   13   -5   12      0.29      0.00
   14   -5   12      2.84      0.00
  -17   -4   12      1.15      0.00
  -16   -4   12     -2.37      0.00
  -15   -4   12      0.64      0.00
  -14   -4   12     -4.48      0.00
  -13   -4   12      1.04      0.00
  -12   -4   12      1.29      0.00
  -11   -4   12      0.78      0.00
  -10   -4   12     -1.70      0.00
   -9   -4   12     -8.04      0.00
   -8   -4   12      5.71      0.00
   -7   -4   12      6.76      0.00
   -6   -4   12      4.32      0.00
   -5   -4   12      7.18      0.00
   -4   -4   12     -2.65      0.00
   -3   -4   12      5.91      0.00
   -2   -4   12      0.59      0.00
   -1   -4   12     17.42      0.00
    0   -4   12    -21.80      0.00
    1   -4   12     -0.03      0.00
    2   -4   12     -0.10      0.00
    3   -4   12      7.51      0.00
    4   -4   12     -7.26      0.00
    5   -4   12      6.97      0.00
    6   -4   12     -4.30      0.00
    7   -4   12      0.68      0.00
    8   -4   12     -3.09      0.00
    9   -4   12     -3.62      0.00
   10   -4   12     -2.78      0.00
   11   -4   12     -0.60      0.00
   12   -4   12     -0.88      0.00
   13   -4   12      1.46      0.00
  -17   -3   12     -2.72      0.00
  -16   -3   12      3.48      0.00
  -15   -3   12     -1.73      0.00
  -14   -3   12      0.08      0.00
  -13   -3   12      0.13      0.00
  -12   -3   12     -1.28      0.00
  -11   -3   12      5.53      0.00
  -10   -3   12     -4.56      0.00
   -9   -3   12     -2.43      0.00
   -8   -3   12      6.42      0.00
   -7   -3   12     -5.18      0.00
   -6   -3   12     -8.24      0.00
   -5   -3   12     -9.44      0.00
   -4   -3   12      8.03      0.00
   -3   -3   12    -10.37      0.00
   -2   -3   12     -2.39      0.00
   -1   -3   12      9.95      0.00
    0   -3   12    -11.73      0.00
    1   -3   12      7.99      0.00
    2   -3   12     -6.95      0.00
    3   -3   12      5.21      0.00
    4   -3   12      2.51      0.00
    5   -3   12     15.74      0.00
    6   -3   12     -3.66      0.00
    7   -3   12     -1.37      0.00
    8   -3   12      2.96      0.00
    9   -3   12      1.63      0.00
   10   -3   12     -5.10      0.00
   11   -3   12     -1.70      0.00
   12   -3   12      0.60      0.00
   13   -3   12      0.17      0.00
  -18   -2   12      0.01      0.00
  -17   -2   12      1.38      0.00
  -16   -2   12     -0.83      0.00
  -15   -2   12      2.07      0.00
  -14   -2   12     -0.60      0.00
  -13   -2   12      1.73      0.00
  -12   -2   12      1.62      0.00
  -11   -2   12     -7.22      0.00
  -10   -2   12      2.87      0.00
   -9   -2   12     -1.45      0.00
   -8   -2   12     -0.67      0.00
   -7   -2   12      5.92      0.00
   -6   -2   12      5.37      0.00
   -5   -2   12      3.04      0.00
   -4   -2   12     11.56      0.00
   -3   -2   12     -6.52      0.00
   -2   -2   12     -2.67      0.00
   -1   -2   12      4.59      0.00
    0   -2   12    -12.79      0.00
    1   -2   12     -2.06      0.00
    2   -2   12      5.48      0.00
    3   -2   12     -2.94      0.00
    4   -2   12     -9.45      0.00
    5   -2   12      6.69      0.00
    6   -2   12     -1.13      0.00
    7   -2   12     -1.20      0.00
    8   -2   12     -3.77      0.00
    9   -2   12     -3.50      0.00
   10   -2   12     -3.31      0.00
   11   -2   12      0.52      0.00
   12   -2   12      1.99      0.00
   13   -2   12     -1.80      0.00
  -18   -1   12      1.32      0.00
  -17   -1   12     -0.56      0.00
  -16   -1   12      2.12      0.00
  -15   -1   12      0.24      0.00
  -14   -1   12      2.34      0.00
  -13   -1   12      4.17      0.00
  -12   -1   12      0.94      0.00
  -11   -1   12      1.47      0.00
  -10   -1   12      2.19      0.00
   -9   -1   12     -9.98      0.00
   -8   -1   12     12.06      0.00
   -7   -1   12     -5.47      0.00
   -6   -1   12     -0.38      0.00
   -5   -1   12    -18.82      0.00
   -4   -1   12      5.07      0.00
   -3   -1   12     -3.70      0.00
   -2   -1   12     -1.57      0.00
   -1   -1   12      0.31      0.00
    0   -1   12      6.31      0.00
    1   -1   12      6.50      0.00
    2   -1   12      5.32      0.00
    3   -1   12      8.76      0.00
    4   -1   12      5.38      0.00
    5   -1   12      3.15      0.00
    6   -1   12     -0.53      0.00
    7   -1   12     -1.30      0.00
    8   -1   12      0.09      0.00
    9   -1   12     -0.45      0.00
   10   -1   12     -4.29      0.00
   11   -1   12     -0.01      0.00
   12   -1   12      0.73      0.00
  -19    0   12     -0.70      0.00
  -18    0   12     -5.55      0.00
  -17    0   12      0.73      0.00
  -16    0   12     -0.12      0.00
  -15    0   12      0.87      0.00
  -14    0   12     -2.52      0.00
  -13    0   12      4.66      0.00
  -12    0   12     -3.31      0.00
  -11    0   12     -2.12      0.00
  -10    0   12      7.55      0.00
   -9    0   12      2.49      0.00
   -8    0   12    -12.42      0.00
   -7    0   12     10.80      0.00
   -6    0   12      1.29      0.00
   -5    0   12     -6.10      0.00
   -4    0   12      9.20      0.00
   -3    0   12    -10.28      0.00
   -2    0   12     -5.49      0.00
   -1    0   12      3.49      0.00
    0    0   12     -2.47      0.00
    1    0   12    -12.29      0.00
    2    0   12      8.18      0.00
    3    0   12      4.47      0.00
    4    0   12     -3.82      0.00
    5    0   12      1.31      0.00
    6    0   12     -0.60      0.00
    7    0   12     -1.95      0.00
    8    0   12     -1.75      0.00
    9    0   12     -2.88      0.00
   10    0   12     -0.41      0.00
   11    0   12     -2.46      0.00
   12    0   12      1.31      0.00
  -20    1   12      1.31      0.00
  -19    1   12      0.61      0.00
  -18    1   12     -0.24      0.00
  -17    1   12      0.79      0.00
  -16    1   12     -4.70      0.00
  -15    1   12      4.12      0.00
  -14    1   12     -0.24      0.00
  -13    1   12      2.83      0.00
  -12    1   12      1.06      0.00
  -11    1   12     -3.29      0.00
  -10    1   12      2.39      0.00
   -9    1   12      0.81      0.00
   -8    1   12     -2.99      0.00
   -7    1   12     -5.18      0.00
   -6    1   12     -5.23      0.00
   -5    1   12     -2.19      0.00
   -4    1   12      0.12      0.00
   -3    1   12      2.99      0.00
   -2    1   12     -7.07      0.00
   -1    1   12     10.30      0.00
    0    1   12     19.94      0.00
    1    1   12     -7.65      0.00
    2    1   12      5.02      0.00
    3    1   12      5.81      0.00
    4    1   12      1.85      0.00
    5    1   12      0.88      0.00
    6    1   12      5.89      0.00
    7    1   12     -6.74      0.00
    8    1   12     -2.87      0.00
    9    1   12      2.71      0.00
   10    1   12      0.46      0.00
   11    1   12     -2.57      0.00
   12    1   12      1.83      0.00
  -20    2   12      1.13      0.00
  -19    2   12      3.83      0.00
  -18    2   12     -2.12      0.00
  -17    2   12      2.02      0.00
  -16    2   12      2.52      0.00
  -15    2   12      3.40      0.00
  -14    2   12     -2.25      0.00
  -13    2   12      6.77      0.00
  -12    2   12     -1.77      0.00
  -11    2   12      4.66      0.00
  -10    2   12    -10.78      0.00
   -9    2   12      8.51      0.00
   -8    2   12     -8.62      0.00
   -7    2   12     14.87      0.00
   -6    2   12    -14.58      0.00
   -5    2   12     -9.40      0.00
   -4    2   12      2.11      0.00
   -3    2   12     13.44      0.00
   -2    2   12     -3.37      0.00
   -1    2   12     -6.61      0.00
    0    2   12     -4.08      0.00
    1    2   12     -0.85      0.00
    2    2   12      9.24      0.00
    3    2   12     -0.58      0.00
    4    2   12     -4.93      0.00
    5    2   12     -0.80      0.00
    6    2   12      5.18      0.00
    7    2   12     -2.84      0.00
    8    2   12     -3.94      0.00
    9    2   12     -0.92      0.00
   10    2   12      0.68      0.00
   11    2   12     -1.32      0.00
  -20    3   12     -2.90      0.00
  -19    3   12      0.54      0.00
  -18    3   12     -5.35      0.00
  -17    3   12      2.93      0.00
  -16    3   12     -3.30      0.00
  -15    3   12      3.44      0.00
  -14    3   12     -6.39      0.00
  -13    3   12      3.89      0.00
  -12    3   12      4.95      0.00
  -11    3   12      1.02      0.00
  -10    3   12     -3.90      0.00
   -9    3   12     12.10      0.00
   -8    3   12    -29.49      0.00
   -7    3   12      6.12      0.00
   -6    3   12      1.17      0.00
   -5    3   12     11.85      0.00
   -4    3   12    -16.01      0.00
   -3    3   12     12.55      0.00
   -2    3   12     -4.29      0.00
   -1    3   12      7.25      0.00
    0    3   12      8.90      0.00
    1    3   12     -6.11      0.00
    2    3   12      0.59      0.00
    3    3   12      6.93      0.00
    4    3   12      1.19      0.00
    5    3   12     -1.35      0.00
    6    3   12      0.48      0.00
    7    3   12     -4.10      0.00
    8    3   12     -1.96      0.00
    9    3   12      2.29      0.00
   10    3   12     -0.13      0.00
  -21    4   12     -1.23      0.00
  -20    4   12      1.40      0.00
  -19    4   12      5.09      0.00
  -18    4   12      0.31      0.00
  -17    4   12     -1.52      0.00
  -16    4   12     -2.76      0.00
  -15    4   12      4.69      0.00
  -14    4   12      4.12      0.00
  -13    4   12      7.08      0.00
  -12    4   12    -11.40      0.00
  -11    4   12      5.38      0.00
  -10    4   12     -9.69      0.00
   -9    4   12     15.07      0.00
   -8    4   12    -10.19      0.00
   -7    4   12      2.04      0.00
   -6    4   12     -9.89      0.00
   -5    4   12     15.53      0.00
   -4    4   12     -3.91      0.00
   -3    4   12     10.52      0.00
   -2    4   12     -8.23      0.00
   -1    4   12     -9.52      0.00
    0    4   12      6.46      0.00
    1    4   12      4.71      0.00
    2    4   12     -8.18      0.00
    3    4   12     -2.47      0.00
    4    4   12      4.09      0.00
    5    4   12     -1.76      0.00
    6    4   12      0.53      0.00
    7    4   12     -0.89      0.00
    8    4   12     -0.50      0.00
    9    4   12     -0.63      0.00
   10    4   12      2.72      0.00
  -21    5   12      3.68      0.00
  -20    5   12     -1.96      0.00
  -19    5   12      1.99      0.00
  -18    5   12     -3.33      0.00
  -17    5   12      1.69      0.00
  -16    5   12     -2.96      0.00
  -15    5   12      4.53      0.00
  -14    5   12     -6.84      0.00
  -13    5   12      5.15      0.00
  -12    5   12      6.85      0.00
  -11    5   12      0.34      0.00
  -10    5   12    -18.07      0.00
   -9    5   12     12.92      0.00
   -8    5   12    -20.67      0.00
   -7    5   12     11.62      0.00
   -6    5   12     -4.16      0.00
   -5    5   12      5.61      0.00
   -4    5   12     -6.12      0.00
   -3    5   12     14.14      0.00
   -2    5   12    -10.19      0.00
   -1    5   12     -7.48      0.00
    0    5   12      2.58      0.00
    1    5   12      1.82      0.00
    2    5   12      4.10      0.00
    3    5   12      0.67      0.00
    4    5   12     -3.86      0.00
    5    5   12     -0.68      0.00
    6    5   12     -0.28      0.00
    7    5   12      2.96      0.00
    8    5   12     -0.75      0.00
    9    5   12     -0.63      0.00
  -21    6   12     -1.51      0.00
  -20    6   12     -1.92      0.00
  -19    6   12      0.21      0.00
  -18    6   12     -1.10      0.00
  -17    6   12      3.23      0.00
  -16    6   12     -1.37      0.00
  -15    6   12      4.10      0.00
  -14    6   12     -1.61      0.00
  -13    6   12      0.16      0.00
  -12    6   12      0.49      0.00
  -11    6   12     -0.25      0.00
  -10    6   12    -10.23      0.00
   -9    6   12      5.02      0.00
   -8    6   12     -7.88      0.00
   -7    6   12      8.03      0.00
   -6    6   12      9.06      0.00
   -5    6   12      4.60      0.00
   -4    6   12    -17.85      0.00
   -3    6   12     -2.13      0.00
   -2    6   12      2.21      0.00
   -1    6   12     -0.03      0.00
    0    6   12      6.43      0.00
    1    6   12     -7.81      0.00
    2    6   12     -6.65      0.00
    3    6   12      4.15      0.00
    4    6   12      2.68      0.00
    5    6   12     -5.15      0.00
    6    6   12      2.91      0.00
    7    6   12      2.00      0.00
    8    6   12      0.64      0.00
    9    6   12     -2.18      0.00
  -21    7   12      5.61      0.00
  -20    7   12     -0.32      0.00
  -19    7   12     -0.04      0.00
  -18    7   12     -1.39      0.00
  -17    7   12      0.07      0.00
  -16    7   12     -1.93      0.00
  -15    7   12      1.13      0.00
  -14    7   12      2.71      0.00
  -13    7   12     -1.65      0.00
  -12    7   12     -1.65      0.00
  -11    7   12      0.06      0.00
  -10    7   12     -3.54      0.00
   -9    7   12      3.75      0.00
   -8    7   12      0.56      0.00
   -7    7   12     -3.64      0.00
   -6    7   12     -1.00      0.00
   -5    7   12      5.08      0.00
   -4    7   12      1.33      0.00
   -3    7   12     -3.26      0.00
   -2    7   12     -3.14      0.00
   -1    7   12    -10.99      0.00
    0    7   12      3.85      0.00
    1    7   12     -0.32      0.00
    2    7   12      2.90      0.00
    3    7   12     -1.68      0.00
    4    7   12      3.76      0.00
    5    7   12     -0.31      0.00
    6    7   12     -2.53      0.00
    7    7   12     -0.40      0.00
    8    7   12     -2.23      0.00
  -21    8   12     -2.26      0.00
  -20    8   12     -3.36      0.00
  -19    8   12     -0.19      0.00
  -18    8   12     -1.77      0.00
  -17    8   12      3.87      0.00
  -16    8   12     -1.08      0.00
  -15    8   12      1.14      0.00
  -14    8   12     -0.17      0.00
  -13    8   12     -4.85      0.00
  -12    8   12      2.81      0.00
  -11    8   12     -0.60      0.00
  -10    8   12     -3.80      0.00
   -9    8   12     -0.40      0.00
   -8    8   12     11.32      0.00
   -7    8   12     -5.46      0.00
   -6    8   12      4.58      0.00
   -5    8   12     -2.79      0.00
   -4    8   12     -2.43      0.00
   -3    8   12     -0.35      0.00
   -2    8   12      7.29      0.00
   -1    8   12     -8.69      0.00
    0    8   12      4.37      0.00
    1    8   12     -0.83      0.00
    2    8   12      1.87      0.00
    3    8   12      0.58      0.00
    4    8   12     -2.47      0.00
    5    8   12     -0.67      0.00
    6    8   12      2.33      0.00
    7    8   12     -0.81      0.00
  -21    9   12      1.99      0.00
  -20    9   12      1.48      0.00
  -19    9   12      1.70      0.00
  -18    9   12     -0.30      0.00
  -17    9   12     -1.32      0.00
  -16    9   12      0.39      0.00
  -15    9   12     -0.54      0.00
  -14    9   12      5.89      0.00
  -13    9   12     -6.53      0.00
  -12    9   12      1.13      0.00
  -11    9   12      0.59      0.00
  -10    9   12      1.72      0.00
   -9    9   12     -0.70      0.00
   -8    9   12      7.17      0.00
   -7    9   12    -10.31      0.00
   -6    9   12      4.81      0.00
   -5    9   12     -0.55      0.00
   -4    9   12     -1.13      0.00
   -3    9   12     -8.84      0.00
   -2    9   12     10.78      0.00
   -1    9   12     -3.20      0.00
    0    9   12      4.04      0.00
    1    9   12     -4.45      0.00
    2    9   12      0.17      0.00
    3    9   12      0.43      0.00
    4    9   12      5.58      0.00
    5    9   12     -1.91      0.00
    6    9   12     -0.61      0.00
  -22   10   12     -0.10      0.00
  -21   10   12     -2.72      0.00
  -20   10   12     -1.79      0.00
  -19   10   12      1.94      0.00
  -18   10   12     -2.17      0.00
  -17   10   12      0.59      0.00
  -16   10   12      0.41      0.00
  -15   10   12      0.47      0.00
  -14   10   12      1.77      0.00
  -13   10   12      0.89      0.00
  -12   10   12      2.59      0.00
  -11   10   12     -4.71      0.00
  -10   10   12      4.16      0.00
   -9   10   12     -1.02      0.00
   -8   10   12      7.30      0.00
   -7   10   12     -3.94      0.00
   -6   10   12      6.90      0.00
   -5   10   12      1.83      0.00
   -4   10   12      3.26      0.00
   -3   10   12     -5.27      0.00
   -2   10   12      4.15      0.00
   -1   10   12     -5.46      0.00
    0   10   12      6.34      0.00
    1   10   12      3.30      0.00
    2   10   12      0.08      0.00
    3   10   12     -4.98      0.00
    4   10   12      2.84      0.00
    5   10   12      0.86      0.00
    6   10   12     -3.03      0.00
  -21   11   12     -1.92      0.00
  -20   11   12      1.10      0.00
  -19   11   12      3.13      0.00
  -18   11   12     -1.70      0.00
  -17   11   12      0.28      0.00
  -16   11   12      0.48      0.00
  -15   11   12     -2.42      0.00
  -14   11   12      0.95      0.00
  -13   11   12     -1.23      0.00
  -12   11   12      2.26      0.00
  -11   11   12      2.44      0.00
  -10   11   12      0.49      0.00
   -9   11   12     -4.74      0.00
   -8   11   12      7.60      0.00
   -7   11   12     -3.75      0.00
   -6   11   12      1.17      0.00
   -5   11   12     -2.12      0.00
   -4   11   12      2.02      0.00
   -3   11   12     -0.50      0.00
   -2   11   12      6.29      0.00
   -1   11   12     -4.09      0.00
    0   11   12      2.42      0.00
    1   11   12      0.98      0.00
    2   11   12     -0.87      0.00
    3   11   12     -3.48      0.00
    4   11   12     -1.01      0.00
    5   11   12      2.19      0.00
  -21   12   12      0.50      0.00
  -20   12   12     -0.78      0.00
  -19   12   12      2.00      0.00
  -18   12   12     -2.89      0.00
  -17   12   12      3.18      0.00
  -16   12   12      1.00      0.00
  -15   12   12      1.33      0.00
  -14   12   12      3.48      0.00
  -13   12   12     -2.90      0.00
  -12   12   12     -2.34      0.00
  -11   12   12      3.20      0.00
  -10   12   12      2.01      0.00
   -9   12   12     -3.67      0.00
   -8   12   12      3.26      0.00
   -7   12   12      2.31      0.00
   -6   12   12     -0.37      0.00
   -5   12   12     -1.74      0.00
   -4   12   12      0.40      0.00
   -3   12   12     -3.52      0.00
   -2   12   12      8.47      0.00
   -1   12   12     -1.44      0.00
    0   12   12     -1.87      0.00
    1   12   12      1.05      0.00
    2   12   12      2.97      0.00
    3   12   12     -0.83      0.00
    4   12   12      0.52      0.00
  -21   13   12     -0.83      0.00
  -20   13   12      3.53      0.00
  -19   13   12      0.44      0.00
  -18   13   12     -1.14      0.00
  -17   13   12      2.69      0.00
  -16   13   12     -3.07      0.00
  -15   13   12     -1.39      0.00
  -14   13   12     -1.11      0.00
  -13   13   12      0.09      0.00
  -12   13   12      0.85      0.00
  -11   13   12      0.66      0.00
  -10   13   12      2.75      0.00
   -9   13   12     -1.82      0.00
   -8   13   12      3.94      0.00
   -7   13   12     -2.80      0.00
   -6   13   12     -2.14      0.00
   -5   13   12     -0.87      0.00
   -4   13   12      3.79      0.00
   -3   13   12     -1.16      0.00
   -2   13   12      1.72      0.00
   -1   13   12      1.29      0.00
    0   13   12      0.59      0.00
    1   13   12     -0.48      0.00
    2   13   12     -1.90      0.00
    3   13   12      0.17      0.00
  -21   14   12      4.56      0.00
  -20   14   12     -3.19      0.00
  -19   14   12     -2.94      0.00
  -18   14   12      0.05      0.00
  -17   14   12      1.33      0.00
  -16   14   12     -0.68      0.00
  -15   14   12      2.67      0.00
  -14   14   12      0.46      0.00
  -13   14   12      0.12      0.00
  -12   14   12     -0.11      0.00
  -11   14   12      0.21      0.00
  -10   14   12     -2.10      0.00
   -9   14   12     -1.38      0.00
   -8   14   12     -2.21      0.00
   -7   14   12     -0.81      0.00
   -6   14   12     -1.53      0.00
   -5   14   12      0.61      0.00
   -4   14   12      6.10      0.00
   -3   14   12     -0.52      0.00
   -2   14   12      1.93      0.00
   -1   14   12     -2.57      0.00
    0   14   12     -2.11      0.00
    1   14   12      2.59      0.00
  -20   15   12      1.44      0.00
  -19   15   12      2.03      0.00
  -18   15   12     -2.28      0.00
  -17   15   12      3.66      0.00
  -16   15   12     -4.17      0.00
  -15   15   12     -0.99      0.00
  -14   15   12      1.47      0.00
  -13   15   12     -1.49      0.00
  -12   15   12      1.85      0.00
  -11   15   12     -0.71      0.00
  -10   15   12      2.68      0.00
   -9   15   12     -2.74      0.00
   -8   15   12      1.44      0.00
   -7   15   12     -2.23      0.00
   -6   15   12      2.66      0.00
   -5   15   12      0.70      0.00
   -4   15   12      0.65      0.00
   -3   15   12      0.75      0.00
   -2   15   12      0.67      0.00
   -1   15   12      0.01      0.00
    0   15   12     -1.54      0.00
  -20   16   12     -3.13      0.00
  -19   16   12      0.49      0.00
  -18   16   12     -0.85      0.00
  -17   16   12      0.53      0.00
  -16   16   12     -2.84      0.00
  -15   16   12      3.50      0.00
  -14   16   12      1.25      0.00
  -13   16   12      4.31      0.00
  -12   16   12     -3.77      0.00
  -11   16   12     -1.69      0.00
  -10   16   12     -1.27      0.00
   -9   16   12      1.39      0.00
   -8   16   12      1.85      0.00
   -7   16   12      0.88      0.00
   -6   16   12      1.31      0.00
   -5   16   12      0.70      0.00
   -4   16   12      3.21      0.00
   -3   16   12     -2.80      0.00
   -2   16   12     -1.67      0.00
   -1   16   12      3.48      0.00
  -19   17   12      0.74      0.00
  -18   17   12     -1.75      0.00
  -17   17   12      3.55      0.00
  -16   17   12      1.63      0.00
  -15   17   12     -0.06      0.00
  -14   17   12      1.15      0.00
  -13   17   12     -2.44      0.00
  -12   17   12     -0.90      0.00
  -11   17   12      1.27      0.00
  -10   17   12     -0.54      0.00
   -9   17   12      3.02      0.00
   -8   17   12      1.96      0.00
   -7   17   12     -2.06      0.00
   -6   17   12      1.76      0.00
   -5   17   12     -2.14      0.00
   -4   17   12     -0.94      0.00
   -3   17   12     -1.95      0.00
  -18   18   12     -0.27      0.00
  -17   18   12      2.52      0.00
  -16   18   12     -2.76      0.00
  -15   18   12      4.35      0.00
  -14   18   12     -1.34      0.00
  -13   18   12      0.39      0.00
  -12   18   12      1.98      0.00
  -11   18   12      3.55      0.00
  -10   18   12     -1.05      0.00
   -9   18   12      3.05      0.00
   -8   18   12      0.94      0.00
   -7   18   12      0.34      0.00
   -6   18   12      2.82      0.00
   -5   18   12     -0.60      0.00
   -4   18   12      1.72      0.00
  -17   19   12      1.09      0.00
  -16   19   12      2.74      0.00
  -15   19   12     -0.26      0.00
  -14   19   12     -0.16      0.00
  -13   19   12      3.81      0.00
  -12   19   12     -3.91      0.00
  -11   19   12      0.49      0.00
  -10   19   12      2.86      0.00
   -9   19   12      2.67      0.00
   -8   19   12     -0.96      0.00
   -7   19   12     -3.52      0.00
  -14   20   12      1.01      0.00
  -13   20   12      0.97      0.00
  -12   20   12      1.19      0.00
  -11   20   12      2.45      0.00
  -10   20   12      2.44      0.00
    1  -19   13     -4.54      0.00
    2  -19   13     -2.16      0.00
    3  -19   13      0.72      0.00
    4  -19   13     -1.87      0.00
    5  -19   13      0.27      0.00
    6  -19   13      3.36      0.00
    7  -19   13     -3.17      0.00
    8  -19   13     -6.99      0.00
    9  -19   13      0.13      0.00
   -2  -18   13     -1.53      0.00
   -1  -18   13      4.08      0.00
    0  -18   13     -2.10      0.00
    1  -18   13      2.75      0.00
    2  -18   13      2.25      0.00
    3  -18   13      3.85      0.00
    4  -18   13     -0.27      0.00
    5  -18   13      0.32      0.00
    6  -18   13      1.64      0.00
    7  -18   13      2.94      0.00
    8  -18   13     -0.19      0.00
    9  -18   13     -3.41      0.00
   10  -18   13      0.70      0.00
   -4  -17   13     -1.45      0.00
   -3  -17   13      4.46      0.00
   -2  -17   13     -1.73      0.00
   -1  -17   13     -4.67      0.00
    0  -17   13     -0.03      0.00
    1  -17   13     -0.65      0.00
    2  -17   13     -5.77      0.00
    3  -17   13      3.65      0.00
    4  -17   13     -1.04      0.00
    5  -17   13     -1.77      0.00
    6  -17   13     -1.09      0.00
    7  -17   13     -3.05      0.00
    8  -17   13     -7.66      0.00
    9  -17   13      1.30      0.00
   10  -17   13     -1.12      0.00
   11  -17   13      1.23      0.00
   -5  -16   13     -2.44      0.00
   -4  -16   13     -2.00      0.00
   -3  -16   13      2.27      0.00
   -2  -16   13     -3.04      0.00
   -1  -16   13      3.92      0.00
    0  -16   13      4.73      0.00
    1  -16   13      9.19      0.00
    2  -16   13     -3.14      0.00
    3  -16   13     -2.48      0.00
    4  -16   13     -2.40      0.00
    5  -16   13     -1.24      0.00
    6  -16   13      0.80      0.00
    7  -16   13     -0.37      0.00
    8  -16   13     -0.29      0.00
    9  -16   13     -3.59      0.00
   10  -16   13      3.08      0.00
   11  -16   13      1.23      0.00
   12  -16   13      1.16      0.00
   -7  -15   13    -10.30      0.00
   -6  -15   13     -1.73      0.00
   -5  -15   13     -4.20      0.00
   -4  -15   13      5.36      0.00
   -3  -15   13      2.81      0.00
   -2  -15   13      1.41      0.00
   -1  -15   13     -3.39      0.00
    0  -15   13     -5.71      0.00
    1  -15   13      4.45      0.00
    2  -15   13     -7.78      0.00
    3  -15   13      5.60      0.00
    4  -15   13     -0.09      0.00
    5  -15   13     -0.83      0.00
    6  -15   13     -5.67      0.00
    7  -15   13      1.22      0.00
    8  -15   13     -3.58      0.00
    9  -15   13      3.61      0.00
   10  -15   13     -1.15      0.00
   11  -15   13     -4.14      0.00
   12  -15   13     -0.86      0.00
   13  -15   13      2.15      0.00
   -8  -14   13      1.53      0.00
   -7  -14   13      2.47      0.00
   -6  -14   13      1.73      0.00
   -5  -14   13      0.23      0.00
   -4  -14   13     -4.70      0.00
   -3  -14   13      1.50      0.00
   -2  -14   13     -0.58      0.00
   -1  -14   13      1.25      0.00
    0  -14   13      6.47      0.00
    1  -14   13      0.55      0.00
    2  -14   13     -4.07      0.00
    3  -14   13     -2.38      0.00
    4  -14   13     -1.86      0.00
    5  -14   13      0.04      0.00
    6  -14   13     -3.89      0.00
    7  -14   13      1.84      0.00
    8  -14   13     -0.54      0.00
    9  -14   13      2.47      0.00
   10  -14   13      3.68      0.00
   11  -14   13      1.45      0.00
   12  -14   13     -3.18      0.00
   13  -14   13     -1.54      0.00
   -9  -13   13    -10.52      0.00
   -8  -13   13     -0.64      0.00
   -7  -13   13     -7.25      0.00
   -6  -13   13      2.25      0.00
   -5  -13   13      0.61      0.00
   -4  -13   13      4.28      0.00
   -3  -13   13      2.64      0.00
   -2  -13   13     -3.53      0.00
   -1  -13   13     -4.66      0.00
    0  -13   13      1.11      0.00
    1  -13   13      3.64      0.00
    2  -13   13     -3.17      0.00
    3  -13   13      4.10      0.00
    4  -13   13     -2.95      0.00
    5  -13   13     -1.42      0.00
    6  -13   13     -2.42      0.00
    7  -13   13      6.63      0.00
    8  -13   13     -4.50      0.00
    9  -13   13     -2.62      0.00
   10  -13   13     -2.35      0.00
   11  -13   13      2.63      0.00
   12  -13   13     -1.18      0.00
   13  -13   13      2.42      0.00
  -11  -12   13      3.44      0.00
  -10  -12   13      1.06      0.00
   -9  -12   13      0.90      0.00
   -8  -12   13      0.72      0.00
   -7  -12   13      7.61      0.00
   -6  -12   13      0.88      0.00
   -5  -12   13     -4.61      0.00
   -4  -12   13     -2.68      0.00
   -3  -12   13      0.95      0.00
   -2  -12   13      4.77      0.00
   -1  -12   13      0.51      0.00
    0  -12   13      0.26      0.00
    1  -12   13     -0.27      0.00
    2  -12   13     -4.99      0.00
    3  -12   13     -2.87      0.00
    4  -12   13     -2.43      0.00
    5  -12   13     -0.11      0.00
    6  -12   13     -5.91      0.00
    7  -12   13      3.55      0.00
    8  -12   13     -2.67      0.00
    9  -12   13      1.81      0.00
   10  -12   13     -1.64      0.00
   11  -12   13      1.22      0.00
   12  -12   13     -1.93      0.00
   13  -12   13      3.90      0.00
  -12  -11   13      5.13      0.00
  -11  -11   13     -4.89      0.00
  -10  -11   13     -5.01      0.00
   -9  -11   13     -3.33      0.00
   -8  -11   13      1.48      0.00
   -7  -11   13     -8.18      0.00
   -6  -11   13      8.58      0.00
   -5  -11   13      2.50      0.00
   -4  -11   13      1.06      0.00
   -3  -11   13     -5.10      0.00
   -2  -11   13      8.84      0.00
   -1  -11   13     -0.05      0.00
    0  -11   13     -1.13      0.00
    1  -11   13      2.83      0.00
    2  -11   13     -2.00      0.00
    3  -11   13     -3.75      0.00
    4  -11   13     -0.72      0.00
    5  -11   13      7.92      0.00
    6  -11   13     -1.22      0.00
    7  -11   13      1.94      0.00
    8  -11   13     -2.53      0.00
    9  -11   13     -1.19      0.00
   10  -11   13     -2.06      0.00
   11  -11   13      1.18      0.00
   12  -11   13     -3.45      0.00
   13  -11   13     -0.95      0.00
  -12  -10   13     -1.93      0.00
  -11  -10   13      7.27      0.00
  -10  -10   13      0.96      0.00
   -9  -10   13      2.41      0.00
   -8  -10   13     10.08      0.00
   -7  -10   13     -0.16      0.00
   -6  -10   13     -3.79      0.00
   -5  -10   13      1.81      0.00
   -4  -10   13      4.73      0.00
   -3  -10   13     -7.03      0.00
   -2  -10   13      9.46      0.00
   -1  -10   13     -3.12      0.00
    0  -10   13      1.63      0.00
    1  -10   13     -3.39      0.00
    2  -10   13     -2.15      0.00
    3  -10   13     -8.85      0.00
    4  -10   13     -2.81      0.00
    5  -10   13     -0.07      0.00
    6  -10   13     -4.73      0.00
    7  -10   13      4.66      0.00
    8  -10   13      0.25      0.00
    9  -10   13     -1.70      0.00
   10  -10   13     -3.32      0.00
   11  -10   13      7.80      0.00
   12  -10   13     -1.46      0.00
   13  -10   13      0.47      0.00
   14  -10   13     -2.07      0.00
  -13   -9   13      1.01      0.00
  -12   -9   13     -1.51      0.00
  -11   -9   13     -4.31      0.00
  -10   -9   13     -3.96      0.00
   -9   -9   13     -3.90      0.00
   -8   -9   13      4.68      0.00
   -7   -9   13     -2.46      0.00
   -6   -9   13      5.28      0.00
   -5   -9   13     -2.31      0.00
   -4   -9   13      5.41      0.00
   -3   -9   13     -8.71      0.00
   -2   -9   13      5.58      0.00
   -1   -9   13      6.93      0.00
    0   -9   13     -2.63      0.00
    1   -9   13     -1.18      0.00
    2   -9   13      2.86      0.00
    3   -9   13     -2.96      0.00
    4   -9   13      5.44      0.00
    5   -9   13      4.46      0.00
    6   -9   13     -2.30      0.00
    7   -9   13      0.92      0.00
    8   -9   13      0.47      0.00
    9   -9   13      0.52      0.00
   10   -9   13     -1.22      0.00
   11   -9   13     -0.27      0.00
   12   -9   13     -3.17      0.00
   13   -9   13     -1.15      0.00
   14   -9   13     -1.50      0.00
  -14   -8   13     -2.98      0.00
  -13   -8   13      4.51      0.00
  -12   -8   13      3.56      0.00
  -11   -8   13     -0.69      0.00
  -10   -8   13      5.52      0.00
   -9   -8   13     -2.74      0.00
   -8   -8   13      3.98      0.00
   -7   -8   13      3.28      0.00
   -6   -8   13      2.51      0.00
   -5   -8   13     -2.06      0.00
   -4   -8   13      8.53      0.00
   -3   -8   13     -8.40      0.00
   -2   -8   13      5.36      0.00
   -1   -8   13     -3.36      0.00
    0   -8   13      0.46      0.00
    1   -8   13    -10.24      0.00
    2   -8   13      6.21      0.00
    3   -8   13     -4.01      0.00
    4   -8   13     -3.02      0.00
    5   -8   13     -1.43      0.00
    6   -8   13     -3.44      0.00
    7   -8   13      3.76      0.00
    8   -8   13     -1.52      0.00
    9   -8   13     -0.71      0.00
   10   -8   13     -0.93      0.00
   11   -8   13      7.50      0.00
   12   -8   13     -2.95      0.00
   13   -8   13      0.92      0.00
   14   -8   13      0.51      0.00
  -15   -7   13     -5.56      0.00
  -14   -7   13     -0.82      0.00
  -13   -7   13      2.70      0.00
  -12   -7   13     -6.07      0.00
  -11   -7   13     -0.46      0.00
  -10   -7   13      0.80      0.00
   -9   -7   13     -7.34      0.00
   -8   -7   13      3.71      0.00
   -7   -7   13     -5.53      0.00
   -6   -7   13     -3.96      0.00
   -5   -7   13     -2.32      0.00
   -4   -7   13      2.57      0.00
   -3   -7   13      6.35      0.00
   -2   -7   13     -3.93      0.00
   -1   -7   13      1.96      0.00
    0   -7   13     -2.54      0.00
    1   -7   13     -0.24      0.00
    2   -7   13      0.67      0.00
    3   -7   13      2.83      0.00
    4   -7   13      6.24      0.00
    5   -7   13      7.83      0.00
    6   -7   13     -0.14      0.00
    7   -7   13      1.26      0.00
    8   -7   13     -1.89      0.00
    9   -7   13     -1.05      0.00
   10   -7   13     -4.72      0.00
   11   -7   13      0.28      0.00
   12   -7   13     -1.98      0.00
   13   -7   13      0.89      0.00
  -15   -6   13     -3.03      0.00
  -14   -6   13      1.25      0.00
  -13   -6   13     -2.96      0.00
  -12   -6   13      3.21      0.00
  -11   -6   13     -1.44      0.00
  -10   -6   13     -3.59      0.00
   -9   -6   13      6.14      0.00
   -8   -6   13      4.24      0.00
   -7   -6   13      4.45      0.00
   -6   -6   13     -6.85      0.00
   -5   -6   13     -5.11      0.00
   -4   -6   13      0.81      0.00
   -3   -6   13      1.75      0.00
   -2   -6   13      0.21      0.00
   -1   -6   13      4.37      0.00
    0   -6   13    -13.68      0.00
    1   -6   13     -3.97      0.00
    2   -6   13      4.48      0.00
    3   -6   13      0.82      0.00
    4   -6   13    -10.74      0.00
    5   -6   13      4.10      0.00
    6   -6   13     -0.07      0.00
    7   -6   13      0.06      0.00
    8   -6   13      0.49      0.00
    9   -6   13      1.90      0.00
   10   -6   13     -2.29      0.00
   11   -6   13      2.30      0.00
   12   -6   13      0.31      0.00
   13   -6   13     -0.32      0.00
  -16   -5   13      0.02      0.00
  -15   -5   13      3.43      0.00
  -14   -5   13     -3.28      0.00
  -13   -5   13     -3.46      0.00
  -12   -5   13     -2.99      0.00
  -11   -5   13     -0.66      0.00
  -10   -5   13      0.77      0.00
   -9   -5   13    -12.68      0.00
   -8   -5   13     -4.82      0.00
   -7   -5   13      4.08      0.00
   -6   -5   13     -4.59      0.00
   -5   -5   13     14.69      0.00
   -4   -5   13     -9.07      0.00
   -3   -5   13      1.06      0.00
   -2   -5   13    -11.13      0.00
   -1   -5   13     19.69      0.00
    0   -5   13     -3.88      0.00
    1   -5   13      5.01      0.00
    2   -5   13     -3.41      0.00
    3   -5   13      9.36      0.00
    4   -5   13     -0.91      0.00
    5   -5   13     12.60      0.00
    6   -5   13     -4.52      0.00
    7   -5   13     -3.40      0.00
    8   -5   13     -0.43      0.00
    9   -5   13      1.84      0.00
   10   -5   13     -3.47      0.00
   11   -5   13     -1.00      0.00
   12   -5   13      0.24      0.00
   13   -5   13      1.22      0.00
  -17   -4   13     -6.34      0.00
  -16   -4   13      2.62      0.00
  -15   -4   13     -3.74      0.00
  -14   -4   13     -1.24      0.00
  -13   -4   13      3.97      0.00
  -12   -4   13     -1.50      0.00
  -11   -4   13     -1.58      0.00
  -10   -4   13     -4.91      0.00
   -9   -4   13      6.77      0.00
   -8   -4   13     -1.99      0.00
   -7   -4   13      7.12      0.00
   -6   -4   13    -12.36      0.00
   -5   -4   13     -4.74      0.00
   -4   -4   13      0.30      0.00
   -3   -4   13      6.91      0.00
   -2   -4   13    -22.48      0.00
   -1   -4   13      5.37      0.00
    0   -4   13    -13.73      0.00
    1   -4   13     15.61      0.00
    2   -4   13     -3.06      0.00
    3   -4   13      1.69      0.00
    4   -4   13    -10.25      0.00
    5   -4   13      3.76      0.00
    6   -4   13     -3.98      0.00
    7   -4   13     -6.60      0.00
    8   -4   13      0.84      0.00
    9   -4   13      4.46      0.00
   10   -4   13      0.22      0.00
   11   -4   13     -1.37      0.00
   12   -4   13      1.18      0.00
   13   -4   13     -0.66      0.00
  -17   -3   13     -4.22      0.00
  -16   -3   13     -0.40      0.00
  -15   -3   13     -1.12      0.00
  -14   -3   13     -3.01      0.00
  -13   -3   13      1.50      0.00
  -12   -3   13     -0.18      0.00
  -11   -3   13     -7.52      0.00
  -10   -3   13     -3.65      0.00
   -9   -3   13      7.53      0.00
   -8   -3   13     -9.72      0.00
   -7   -3   13      5.82      0.00
   -6   -3   13     -1.28      0.00
   -5   -3   13     10.79      0.00
   -4   -3   13     -8.16      0.00
   -3   -3   13     18.77      0.00
   -2   -3   13    -12.68      0.00
   -1   -3   13     23.36      0.00
    0   -3   13     -6.93      0.00
    1   -3   13      3.00      0.00
    2   -3   13      1.00      0.00
    3   -3   13     24.53      0.00
    4   -3   13     -7.30      0.00
    5   -3   13      2.05      0.00
    6   -3   13     -1.59      0.00
    7   -3   13      1.69      0.00
    8   -3   13     -1.03      0.00
    9   -3   13     -4.18      0.00
   10   -3   13     -0.44      0.00
   11   -3   13     -0.77      0.00
   12   -3   13      1.53      0.00
   13   -3   13     -1.50      0.00
  -18   -2   13     -0.31      0.00
  -17   -2   13     -3.52      0.00
  -16   -2   13     -0.88      0.00
  -15   -2   13     -0.30      0.00
  -14   -2   13     -2.08      0.00
  -13   -2   13     -0.03      0.00
  -12   -2   13     -5.41      0.00
  -11   -2   13      0.22      0.00
  -10   -2   13      6.14      0.00
   -9   -2   13     -2.65      0.00
   -8   -2   13      1.57      0.00
   -7   -2   13      3.02      0.00
   -6   -2   13     -1.13      0.00
   -5   -2   13     -7.29      0.00
   -4   -2   13     -9.81      0.00
   -3   -2   13      6.74      0.00
   -2   -2   13    -20.37      0.00
   -1   -2   13      5.88      0.00
    0   -2   13     -6.14      0.00
    1   -2   13      6.56      0.00
    2   -2   13    -17.48      0.00
    3   -2   13      8.21      0.00
    4   -2   13     -4.20      0.00
    5   -2   13      2.54      0.00
    6   -2   13     -1.21      0.00
    7   -2   13     -2.91      0.00
    8   -2   13     -2.64      0.00
    9   -2   13      4.78      0.00
   10   -2   13      3.15      0.00
   11   -2   13      0.64      0.00
   12   -2   13      0.58      0.00
  -18   -1   13     -0.17      0.00
  -17   -1   13     -2.56      0.00
  -16   -1   13      0.66      0.00
  -15   -1   13      1.43      0.00
  -14   -1   13     -1.89      0.00
  -13   -1   13     -0.85      0.00
  -12   -1   13     -2.72      0.00
  -11   -1   13     -5.10      0.00
  -10   -1   13     -2.50      0.00
   -9   -1   13      9.05      0.00
   -8   -1   13     -5.26      0.00
   -7   -1   13      0.25      0.00
   -6   -1   13      3.19      0.00
   -5   -1   13     -2.05      0.00
   -4   -1   13      5.37      0.00
   -3   -1   13     20.98      0.00
   -2   -1   13     -4.48      0.00
   -1   -1   13     13.92      0.00
    0   -1   13      5.99      0.00
    1   -1   13      5.87      0.00
    2   -1   13     -4.27      0.00
    3   -1   13     13.43      0.00
    4   -1   13    -13.19      0.00
    5   -1   13      1.60      0.00
    6   -1   13      3.25      0.00
    7   -1   13      1.53      0.00
    8   -1   13     -3.06      0.00
    9   -1   13     -1.76      0.00
   10   -1   13      2.59      0.00
   11   -1   13     -2.06      0.00
   12   -1   13      1.63      0.00
  -19    0   13     -5.45      0.00
  -18    0   13     -3.55      0.00
  -17    0   13      0.51      0.00
  -16    0   13     -1.02      0.00
  -15    0   13      0.01      0.00
  -14    0   13      1.72      0.00
  -13    0   13     -2.92      0.00
  -12    0   13      4.62      0.00
  -11    0   13     -0.80      0.00
  -10    0   13      9.19      0.00
   -9    0   13     -3.64      0.00
   -8    0   13      9.68      0.00
   -7    0   13     -2.86      0.00
   -6    0   13      6.04      0.00
   -5    0   13     -7.40      0.00
   -4    0   13     -8.42      0.00
   -3    0   13     -0.28      0.00
   -2    0   13     -7.04      0.00
   -1    0   13     -1.53      0.00
    0    0   13     -3.41      0.00
    1    0   13      4.04      0.00
    2    0   13     -7.65      0.00
    3    0   13      6.93      0.00
    4    0   13     -2.46      0.00
    5    0   13     -2.44      0.00
    6    0   13      0.46      0.00
    7    0   13      1.91      0.00
    8    0   13     -2.71      0.00
    9    0   13      3.67      0.00
   10    0   13      2.06      0.00
   11    0   13     -1.20      0.00
  -20    1   13      1.92      0.00
  -19    1   13     -1.12      0.00
  -18    1   13     -2.49      0.00
  -17    1   13     -4.72      0.00
  -16    1   13      3.86      0.00
  -15    1   13     -0.19      0.00
  -14    1   13     -3.59      0.00
  -13    1   13     -1.11      0.00
  -12    1   13      0.44      0.00
  -11    1   13     -4.66      0.00
  -10    1   13      5.11      0.00
   -9    1   13      0.88      0.00
   -8    1   13     -2.07      0.00
   -7    1   13     -3.86      0.00
   -6    1   13     15.35      0.00
   -5    1   13     -0.24      0.00
   -4    1   13      6.91      0.00
   -3    1   13      8.00      0.00
   -2    1   13      9.40      0.00
   -1    1   13      0.57      0.00
    0    1   13     -2.30      0.00
    1    1   13      1.51      0.00
    2    1   13     -1.21      0.00
    3    1   13      4.77      0.00
    4    1   13      0.58      0.00
    5    1   13      2.18      0.00
    6    1   13     -0.08      0.00
    7    1   13      0.12      0.00
    8    1   13      1.33      0.00
    9    1   13     -0.86      0.00
   10    1   13      1.23      0.00
   11    1   13     -1.61      0.00
  -20    2   13     -2.30      0.00
  -19    2   13      0.31      0.00
  -18    2   13     -4.29      0.00
  -17    2   13      1.36      0.00
  -16    2   13     -2.27      0.00
  -15    2   13     -0.48      0.00
  -14    2   13     -0.33      0.00
  -13    2   13     -3.46      0.00
  -12    2   13      9.07      0.00
  -11    2   13     -5.96      0.00
  -10    2   13      5.11      0.00
   -9    2   13      9.80      0.00
   -8    2   13      4.86      0.00
   -7    2   13    -16.32      0.00
   -6    2   13      5.73      0.00
   -5    2   13      6.35      0.00
   -4    2   13      2.46      0.00
   -3    2   13      0.56      0.00
   -2    2   13     -9.67      0.00
   -1    2   13    -11.08      0.00
    0    2   13      8.06      0.00
    1    2   13      7.13      0.00
    2    2   13     -7.79      0.00
    3    2   13      2.17      0.00
    4    2   13      2.99      0.00
    5    2   13      0.17      0.00
    6    2   13      0.17      0.00
    7    2   13      0.19      0.00
    8    2   13     -2.70      0.00
    9    2   13      0.54      0.00
   10    2   13      2.77      0.00
  -20    3   13     -5.43      0.00
  -19    3   13      0.31      0.00
  -18    3   13      3.94      0.00
  -17    3   13     -3.17      0.00
  -16    3   13     -2.49      0.00
  -15    3   13     -0.09      0.00
  -14    3   13     -0.56      0.00
  -13    3   13      3.89      0.00
  -12    3   13      1.85      0.00
  -11    3   13      0.22      0.00
  -10    3   13     -2.84      0.00
   -9    3   13     -5.11      0.00
   -8    3   13      3.46      0.00
   -7    3   13      8.55      0.00
   -6    3   13      5.34      0.00
   -5    3   13     -4.42      0.00
   -4    3   13      0.42      0.00
   -3    3   13      5.72      0.00
   -2    3   13     10.39      0.00
   -1    3   13     -6.93      0.00
    0    3   13     -0.19      0.00
    1    3   13      4.99      0.00
    2    3   13      0.21      0.00
    3    3   13      3.04      0.00
    4    3   13      3.40      0.00
    5    3   13     -3.60      0.00
    6    3   13     -1.28      0.00
    7    3   13      2.32      0.00
    8    3   13      0.40      0.00
    9    3   13     -4.26      0.00
   10    3   13      2.08      0.00
  -21    4   13      1.25      0.00
  -20    4   13     -3.75      0.00
  -19    4   13     -1.20      0.00
  -18    4   13     -4.07      0.00
  -17    4   13     -1.03      0.00
  -16    4   13     -2.04      0.00
  -15    4   13      2.70      0.00
  -14    4   13     -2.12      0.00
  -13    4   13    -11.17      0.00
  -12    4   13      4.85      0.00
  -11    4   13      8.93      0.00
  -10    4   13     -5.52      0.00
   -9    4   13     10.29      0.00
   -8    4   13     -6.89      0.00
   -7    4   13      3.14      0.00
   -6    4   13      5.28      0.00
   -5    4   13     12.68      0.00
   -4    4   13    -14.60      0.00
   -3    4   13     -3.91      0.00
   -2    4   13     -3.71      0.00
   -1    4   13     -0.22      0.00
    0    4   13      2.41      0.00
    1    4   13     -0.38      0.00
    2    4   13     -3.74      0.00
    3    4   13      6.07      0.00
    4    4   13      1.99      0.00
    5    4   13     -3.69      0.00
    6    4   13     -3.28      0.00
    7    4   13      3.88      0.00
    8    4   13     -2.51      0.00
    9    4   13      0.80      0.00
  -21    5   13     -0.05      0.00
  -20    5   13     -2.24      0.00
  -19    5   13     -1.48      0.00
  -18    5   13     -0.97      0.00
  -17    5   13      2.97      0.00
  -16    5   13     -4.66      0.00
  -15    5   13      2.01      0.00
  -14    5   13      0.26      0.00
  -13    5   13      6.17      0.00
  -12    5   13    -11.10      0.00
  -11    5   13      3.63      0.00
  -10    5   13    -11.70      0.00
   -9    5   13      7.54      0.00
   -8    5   13     -0.88      0.00
   -7    5   13      8.73      0.00
   -6    5   13    -10.18      0.00
   -5    5   13     14.56      0.00
   -4    5   13     -3.59      0.00
   -3    5   13     -3.57      0.00
   -2    5   13     -0.67      0.00
   -1    5   13      2.93      0.00
    0    5   13     -0.60      0.00
    1    5   13      9.88      0.00
    2    5   13     -4.33      0.00
    3    5   13     -4.26      0.00
    4    5   13      1.35      0.00
    5    5   13     -2.39      0.00
    6    5   13     -1.70      0.00
    7    5   13      0.23      0.00
    8    5   13     -0.40      0.00
    9    5   13     -3.99      0.00
  -21    6   13      2.84      0.00
  -20    6   13      0.89      0.00
  -19    6   13     -1.32      0.00
  -18    6   13     -3.69      0.00
  -17    6   13     -1.44      0.00
  -16    6   13     -2.59      0.00
  -15    6   13     -0.34      0.00
  -14    6   13     -0.24      0.00
  -13    6   13     -1.39      0.00
  -12    6   13     -5.30      0.00
  -11    6   13      8.19      0.00
  -10    6   13    -11.19      0.00
   -9    6   13     13.17      0.00
   -8    6   13     -2.89      0.00
   -7    6   13     16.20      0.00
   -6    6   13    -14.98      0.00
   -5    6   13      4.22      0.00
   -4    6   13    -11.54      0.00
   -3    6   13      7.04      0.00
   -2    6   13      5.56      0.00
   -1    6   13     -0.50      0.00
    0    6   13    -12.44      0.00
    1    6   13      0.43      0.00
    2    6   13      4.33      0.00
    3    6   13      1.14      0.00
    4    6   13      0.08      0.00
    5    6   13      1.60      0.00
    6    6   13     -4.46      0.00
    7    6   13      1.44      0.00
    8    6   13     -1.27      0.00
  -21    7   13     -0.18      0.00
  -20    7   13     -0.84      0.00
  -19    7   13      1.59      0.00
  -18    7   13     -4.74      0.00
  -17    7   13      1.44      0.00
  -16    7   13     -6.00      0.00
  -15    7   13      4.90      0.00
  -14    7   13     -3.08      0.00
  -13    7   13      1.31      0.00
  -12    7   13     -8.67      0.00
  -11    7   13     14.27      0.00
  -10    7   13    -11.26      0.00
   -9    7   13     10.41      0.00
   -8    7   13     -4.67      0.00
   -7    7   13      5.56      0.00
   -6    7   13     -7.88      0.00
   -5    7   13     14.71      0.00
   -4    7   13    -13.81      0.00
   -3    7   13     -6.08      0.00
   -2    7   13      0.21      0.00
   -1    7   13      5.94      0.00
    0    7   13      0.96      0.00
    1    7   13      2.41      0.00
    2    7   13     -6.25      0.00
    3    7   13     -1.72      0.00
    4    7   13     -1.07      0.00
    5    7   13     -2.95      0.00
    6    7   13     -2.03      0.00
    7    7   13     -1.35      0.00
  -21    8   13      2.32      0.00
  -20    8   13      0.13      0.00
  -19    8   13      2.58      0.00
  -18    8   13     -1.59      0.00
  -17    8   13     -2.22      0.00
  -16    8   13     -2.69      0.00
  -15    8   13     -2.82      0.00
  -14    8   13      0.86      0.00
  -13    8   13      2.07      0.00
  -12    8   13     -5.45      0.00
  -11    8   13      5.48      0.00
  -10    8   13     -8.20      0.00
   -9    8   13     11.83      0.00
   -8    8   13     -0.60      0.00
   -7    8   13      8.12      0.00
   -6    8   13    -10.66      0.00
   -5    8   13      7.75      0.00
   -4    8   13      0.44      0.00
   -3    8   13     -1.76      0.00
   -2    8   13     -2.99      0.00
   -1    8   13     -1.28      0.00
    0    8   13      2.09      0.00
    1    8   13      1.61      0.00
    2    8   13      1.12      0.00
    3    8   13     -6.99      0.00
    4    8   13      3.13      0.00
    5    8   13      6.91      0.00
    6    8   13     -1.73      0.00
    7    8   13     -1.91      0.00
  -21    9   13     -2.73      0.00
  -20    9   13      0.13      0.00
  -19    9   13     -1.62      0.00
  -18    9   13     -3.64      0.00
  -17    9   13     -0.64      0.00
  -16    9   13     -0.46      0.00
  -15    9   13      1.03      0.00
  -14    9   13     -3.16      0.00
  -13    9   13     -1.20      0.00
  -12    9   13     -0.52      0.00
  -11    9   13      5.45      0.00
  -10    9   13      0.00      0.00
   -9    9   13     -0.99      0.00
   -8    9   13     -3.49      0.00
   -7    9   13      6.00      0.00
   -6    9   13     -5.06      0.00
   -5    9   13      0.95      0.00
   -4    9   13     -1.74      0.00
   -3    9   13      1.67      0.00
   -2    9   13      5.91      0.00
   -1    9   13     -4.02      0.00
    0    9   13     -0.71      0.00
    1    9   13     -0.19      0.00
    2    9   13      2.63      0.00
    3    9   13     -2.06      0.00
    4    9   13     -2.85      0.00
    5    9   13      1.12      0.00
    6    9   13     -0.45      0.00
  -21   10   13      0.54      0.00
  -20   10   13     -0.97      0.00
  -19   10   13     -2.07      0.00
  -18   10   13     -1.15      0.00
  -17   10   13     -0.11      0.00
  -16   10   13      0.25      0.00
  -15   10   13     -0.12      0.00
  -14   10   13      3.40      0.00
  -13   10   13     -0.61      0.00
  -12   10   13     -6.25      0.00
  -11   10   13      4.62      0.00
  -10   10   13      3.21      0.00
   -9   10   13     -1.28      0.00
   -8   10   13      3.72      0.00
   -7   10   13      2.88      0.00
   -6   10   13     -2.48      0.00
   -5   10   13     -0.97      0.00
   -4   10   13      0.71      0.00
   -3   10   13     -4.14      0.00
   -2   10   13      3.20      0.00
   -1   10   13      0.84      0.00
    0   10   13      2.62      0.00
    1   10   13     -1.24      0.00
    2   10   13      0.50      0.00
    3   10   13      1.05      0.00
    4   10   13      1.99      0.00
    5   10   13     -0.15      0.00
  -21   11   13     -0.19      0.00
  -20   11   13      0.01      0.00
  -19   11   13     -3.14      0.00
  -18   11   13     -1.41      0.00
  -17   11   13      0.04      0.00
  -16   11   13      0.24      0.00
  -15   11   13     -3.27      0.00
  -14   11   13      2.91      0.00
  -13   11   13     -0.35      0.00
  -12   11   13     -0.01      0.00
  -11   11   13     -1.27      0.00
  -10   11   13      3.43      0.00
   -9   11   13     -0.30      0.00
   -8   11   13      1.65      0.00
   -7   11   13      0.76      0.00
   -6   11   13     -1.39      0.00
   -5   11   13     -1.80      0.00
   -4   11   13      7.37      0.00
   -3   11   13     -3.76      0.00
   -2   11   13      5.95      0.00
   -1   11   13     -0.43      0.00
    0   11   13      0.12      0.00
    1   11   13     -1.60      0.00
    2   11   13      1.83      0.00
    3   11   13     -1.80      0.00
    4   11   13      2.43      0.00
  -21   12   13     -1.84      0.00
  -20   12   13      1.35      0.00
  -19   12   13      0.41      0.00
  -18   12   13      1.20      0.00
  -17   12   13      2.11      0.00
  -16   12   13     -1.58      0.00
  -15   12   13     -1.50      0.00
  -14   12   13     -2.68      0.00
  -13   12   13     -0.46      0.00
  -12   12   13      3.05      0.00
  -11   12   13      0.19      0.00
  -10   12   13      2.31      0.00
   -9   12   13     -2.49      0.00
   -8   12   13      3.95      0.00
   -7   12   13      0.42      0.00
   -6   12   13      0.67      0.00
   -5   12   13     -0.76      0.00
   -4   12   13      3.32      0.00
   -3   12   13     -0.73      0.00
   -2   12   13      4.02      0.00
   -1   12   13      0.68      0.00
    0   12   13      3.49      0.00
    1   12   13      0.60      0.00
    2   12   13      2.14      0.00
    3   12   13      0.06      0.00
  -21   13   13      3.22      0.00
  -20   13   13     -2.33      0.00
  -19   13   13     -0.94      0.00
  -18   13   13      1.27      0.00
  -17   13   13     -0.99      0.00
  -16   13   13      0.03      0.00
  -15   13   13     -1.72      0.00
  -14   13   13      2.04      0.00
  -13   13   13      0.32      0.00
  -12   13   13      1.73      0.00
  -11   13   13     -0.66      0.00
  -10   13   13      3.03      0.00
   -9   13   13     -1.21      0.00
   -8   13   13     -3.01      0.00
   -7   13   13      0.15      0.00
   -6   13   13      2.52      0.00
   -5   13   13      2.51      0.00
   -4   13   13      5.20      0.00
   -3   13   13     -3.93      0.00
   -2   13   13      1.81      0.00
   -1   13   13      2.69      0.00
    0   13   13     -0.75      0.00
    1   13   13     -1.98      0.00
    2   13   13      1.92      0.00
  -21   14   13     -3.20      0.00
  -20   14   13     -2.61      0.00
  -19   14   13      4.37      0.00
  -18   14   13     -1.24      0.00
  -17   14   13     -0.07      0.00
  -16   14   13      0.52      0.00
  -15   14   13     -1.09      0.00
  -14   14   13     -0.58      0.00
  -13   14   13      0.43      0.00
  -12   14   13      0.56      0.00
  -11   14   13     -2.50      0.00
  -10   14   13      4.47      0.00
   -9   14   13     -0.17      0.00
   -8   14   13      1.32      0.00
   -7   14   13      1.94      0.00
   -6   14   13      1.17      0.00
   -5   14   13      3.81      0.00
   -4   14   13      5.00      0.00
   -3   14   13     -1.47      0.00
   -2   14   13     -0.36      0.00
   -1   14   13      0.66      0.00
    0   14   13      4.74      0.00
    1   14   13     -0.82      0.00
  -20   15   13     -0.14      0.00
  -19   15   13     -1.40      0.00
  -18   15   13      0.22      0.00
  -17   15   13     -0.12      0.00
  -16   15   13      0.10      0.00
  -15   15   13      1.41      0.00
  -14   15   13      1.29      0.00
  -13   15   13     -0.63      0.00
  -12   15   13      2.22      0.00
  -11   15   13     -0.98      0.00
  -10   15   13      0.76      0.00
   -9   15   13     -0.14      0.00
   -8   15   13     -0.19      0.00
   -7   15   13      0.70      0.00
   -6   15   13      0.57      0.00
   -5   15   13     -2.62      0.00
   -4   15   13      2.82      0.00
   -3   15   13      0.97      0.00
   -2   15   13     -3.18      0.00
   -1   15   13      1.27      0.00
  -19   16   13      1.62      0.00
  -18   16   13     -3.64      0.00
  -17   16   13      0.44      0.00
  -16   16   13      1.82      0.00
  -15   16   13     -0.27      0.00
  -14   16   13      0.60      0.00
  -13   16   13     -3.41      0.00
  -12   16   13     -2.39      0.00
  -11   16   13      2.88      0.00
  -10   16   13      3.00      0.00
   -9   16   13      3.77      0.00
   -8   16   13     -0.04      0.00
   -7   16   13     -1.05      0.00
   -6   16   13      2.57      0.00
   -5   16   13     -0.10      0.00
   -4   16   13     -0.21      0.00
   -3   16   13     -0.56      0.00
   -2   16   13      3.30      0.00
  -19   17   13      1.07      0.00
  -18   17   13     -0.65      0.00
  -17   17   13      3.38      0.00
  -16   17   13      2.14      0.00
  -15   17   13     -1.95      0.00
  -14   17   13      0.03      0.00
  -13   17   13     -0.73      0.00
  -12   17   13      3.41      0.00
  -11   17   13      0.43      0.00
  -10   17   13      2.65      0.00
   -9   17   13      0.37      0.00
   -8   17   13     -1.88      0.00
   -7   17   13     -2.41      0.00
   -6   17   13      0.28      0.00
   -5   17   13      0.63      0.00
   -4   17   13     -0.76      0.00
  -17   18   13      0.27      0.00
  -16   18   13      2.57      0.00
  -15   18   13     -2.36      0.00
  -14   18   13     -2.83      0.00
  -13   18   13      5.10      0.00
  -12   18   13     -1.56      0.00
  -11   18   13      1.00      0.00
  -10   18   13     -1.17      0.00
   -9   18   13     -0.24      0.00
   -8   18   13      2.06      0.00
   -7   18   13     -0.46      0.00
   -6   18   13      0.09      0.00
  -16   19   13      1.23      0.00
  -15   19   13     -0.09      0.00
  -14   19   13      3.99      0.00
  -13   19   13     -2.04      0.00
  -12   19   13     -0.48      0.00
  -11   19   13      4.34      0.00
  -10   19   13      1.08      0.00
   -9   19   13     -4.35      0.00
   -8   19   13      0.50      0.00
    3  -19   14      1.79      0.00
    4  -19   14      1.91      0.00
    5  -19   14      0.26      0.00
    6  -19   14     -1.59      0.00
    7  -19   14     -2.53      0.00
   -1  -18   14     -6.59      0.00
    0  -18   14      0.39      0.00
    1  -18   14      1.43      0.00
    2  -18   14     -5.28      0.00
    3  -18   14     -3.81      0.00
    4  -18   14      1.79      0.00
    5  -18   14     -3.03      0.00
    6  -18   14      2.00      0.00
    7  -18   14     -0.95      0.00
    8  -18   14     -4.60      0.00
    9  -18   14     -0.27      0.00
   -4  -17   14      0.35      0.00
   -3  -17   14     -0.66      0.00
   -2  -17   14     -4.35      0.00
   -1  -17   14      1.60      0.00
    0  -17   14      2.25      0.00
    1  -17   14      5.23      0.00
    2  -17   14      1.07      0.00
    3  -17   14     -0.15      0.00
    4  -17   14      3.82      0.00
    5  -17   14     -3.24      0.00
    6  -17   14     -0.79      0.00
    7  -17   14     -1.39      0.00
    8  -17   14      6.42      0.00
    9  -17   14     -2.72      0.00
   10  -17   14      3.16      0.00
   -5  -16   14     -2.14      0.00
   -4  -16   14      3.12      0.00
   -3  -16   14      1.42      0.00
   -2  -16   14      1.38      0.00
   -1  -16   14     -1.36      0.00
    0  -16   14     -4.60      0.00
    1  -16   14     -1.63      0.00
    2  -16   14    -10.70      0.00
    3  -16   14     -2.64      0.00
    4  -16   14      5.79      0.00
    5  -16   14      0.68      0.00
    6  -16   14     -1.63      0.00
    7  -16   14     -0.24      0.00
    8  -16   14     -1.70      0.00
    9  -16   14      1.14      0.00
   10  -16   14      1.27      0.00
   11  -16   14     -1.62      0.00
   -7  -15   14      1.76      0.00
   -6  -15   14      2.04      0.00
   -5  -15   14      8.15      0.00
   -4  -15   14     -5.14      0.00
   -3  -15   14     -0.54      0.00
   -2  -15   14     -1.77      0.00
   -1  -15   14      1.58      0.00
    0  -15   14      2.89      0.00
    1  -15   14      8.68      0.00
    2  -15   14      4.79      0.00
    3  -15   14     -1.16      0.00
    4  -15   14      2.75      0.00
    5  -15   14     -5.02      0.00
    6  -15   14      2.32      0.00
    7  -15   14     -2.97      0.00
    8  -15   14      4.00      0.00
    9  -15   14     -3.28      0.00
   10  -15   14     -0.67      0.00
   11  -15   14      1.16      0.00
   12  -15   14      1.81      0.00
   -8  -14   14      1.38      0.00
   -7  -14   14     -5.85      0.00
   -6  -14   14      0.21      0.00
   -5  -14   14     -0.73      0.00
   -4  -14   14      0.45      0.00
   -3  -14   14     -0.37      0.00
   -2  -14   14     -2.01      0.00
   -1  -14   14      2.81      0.00
    0  -14   14    -11.89      0.00
    1  -14   14     -1.11      0.00
    2  -14   14     -2.40      0.00
    3  -14   14     -2.63      0.00
    4  -14   14      3.73      0.00
    5  -14   14     -0.66      0.00
    6  -14   14      0.23      0.00
    7  -14   14      0.83      0.00
    8  -14   14      1.22      0.00
    9  -14   14     -0.05      0.00
   10  -14   14     -1.80      0.00
   11  -14   14     -3.88      0.00
   12  -14   14     -1.86      0.00
   -9  -13   14      1.66      0.00
   -8  -13   14      4.23      0.00
   -7  -13   14      7.38      0.00
   -6  -13   14      2.46      0.00
   -5  -13   14      4.86      0.00
   -4  -13   14     -4.78      0.00
   -3  -13   14     -4.74      0.00
   -2  -13   14      0.91      0.00
   -1  -13   14     13.17      0.00
    0  -13   14      1.90      0.00
    1  -13   14      6.17      0.00
    2  -13   14      2.04      0.00
    3  -13   14     -4.03      0.00
    4  -13   14      0.03      0.00
    5  -13   14      0.48      0.00
    6  -13   14     -0.66      0.00
    7  -13   14     -4.41      0.00
    8  -13   14     -2.19      0.00
    9  -13   14     -0.96      0.00
   10  -13   14      4.14      0.00
   11  -13   14      3.23      0.00
   12  -13   14     -0.87      0.00
  -10  -12   14     -0.38      0.00
   -9  -12   14     -1.35      0.00
   -8  -12   14      3.50      0.00
   -7  -12   14     -3.71      0.00
   -6  -12   14     -4.95      0.00
   -5  -12   14      6.22      0.00
   -4  -12   14      2.89      0.00
   -3  -12   14     -2.53      0.00
   -2  -12   14      0.23      0.00
   -1  -12   14     -0.11      0.00
    0  -12   14     -9.05      0.00
    1  -12   14     -3.27      0.00
    2  -12   14     -2.10      0.00
    3  -12   14     -1.99      0.00
    4  -12   14     -2.81      0.00
    5  -12   14      2.46      0.00
    6  -12   14     -0.43      0.00
    7  -12   14      2.53      0.00
    8  -12   14      0.93      0.00
    9  -12   14      0.06      0.00
   10  -12   14     -3.26      0.00
   11  -12   14      1.40      0.00
   12  -12   14      0.01      0.00
   13  -12   14     -2.76      0.00
  -11  -11   14     -5.01      0.00
  -10  -11   14      3.78      0.00
   -9  -11   14      4.87      0.00
   -8  -11   14      2.40      0.00
   -7  -11   14     11.23      0.00
   -6  -11   14     -1.47      0.00
   -5  -11   14     -0.05      0.00
   -4  -11   14      1.26      0.00
   -3  -11   14      0.48      0.00
   -2  -11   14      4.36      0.00
   -1  -11   14      6.01      0.00
    0  -11   14      0.07      0.00
    1  -11   14      0.92      0.00
    2  -11   14     -0.66      0.00
    3  -11   14      0.32      0.00
    4  -11   14     -0.55      0.00
    5  -11   14      4.24      0.00
    6  -11   14     -6.21      0.00
    7  -11   14      0.76      0.00
    8  -11   14     -1.53      0.00
    9  -11   14      0.90      0.00
   10  -11   14     -3.95      0.00
   11  -11   14      1.15      0.00
   12  -11   14     -3.70      0.00
   13  -11   14      1.25      0.00
  -12  -10   14      6.34      0.00
  -11  -10   14      1.74      0.00
  -10  -10   14     -2.18      0.00
   -9  -10   14      3.44      0.00
   -8  -10   14     -1.97      0.00
   -7  -10   14     -3.30      0.00
   -6  -10   14      1.09      0.00
   -5  -10   14      0.35      0.00
   -4  -10   14      1.70      0.00
   -3  -10   14     -1.99      0.00
   -2  -10   14     -3.43      0.00
   -1  -10   14      2.50      0.00
    0  -10   14     -7.44      0.00
    1  -10   14     -5.25      0.00
    2  -10   14     -0.02      0.00
    3  -10   14     -0.16      0.00
    4  -10   14     -3.21      0.00
    5  -10   14      6.47      0.00
    6  -10   14      0.88      0.00
    7  -10   14      6.30      0.00
    8  -10   14     -1.19      0.00
    9  -10   14      1.82      0.00
   10  -10   14      0.91      0.00
   11  -10   14      0.59      0.00
   12  -10   14     -3.94      0.00
   13  -10   14     -0.54      0.00
  -13   -9   14     -3.71      0.00
  -12   -9   14     -1.23      0.00
  -11   -9   14     -1.41      0.00
  -10   -9   14      1.96      0.00
   -9   -9   14      1.65      0.00
   -8   -9   14      5.60      0.00
   -7   -9   14      6.96      0.00
   -6   -9   14      3.47      0.00
   -5   -9   14     -5.80      0.00
   -4   -9   14      9.72      0.00
   -3   -9   14     -1.96      0.00
   -2   -9   14      6.62      0.00
   -1   -9   14     -1.04      0.00
    0   -9   14     -0.24      0.00
    1   -9   14     -4.65      0.00
    2   -9   14      4.80      0.00
    3   -9   14      6.57      0.00
    4   -9   14     -6.72      0.00
    5   -9   14      2.46      0.00
    6   -9   14     -4.82      0.00
    7   -9   14      1.93      0.00
    8   -9   14     -0.50      0.00
    9   -9   14      0.71      0.00
   10   -9   14     -8.39      0.00
   11   -9   14      1.44      0.00
   12   -9   14     -2.10      0.00
   13   -9   14      1.20      0.00
  -14   -8   14      0.77      0.00
  -13   -8   14      5.86      0.00
  -12   -8   14     -4.22      0.00
  -11   -8   14      4.56      0.00
  -10   -8   14      1.15      0.00
   -9   -8   14     -3.74      0.00
   -8   -8   14      2.63      0.00
   -7   -8   14     -2.86      0.00
   -6   -8   14      0.21      0.00
   -5   -8   14     -9.75      0.00
   -4   -8   14      2.63      0.00
   -3   -8   14     -3.74      0.00
   -2   -8   14     -3.26      0.00
   -1   -8   14      2.36      0.00
    0   -8   14     -1.17      0.00
    1   -8   14     -5.79      0.00
    2   -8   14      4.33      0.00
    3   -8   14     -0.32      0.00
    4   -8   14     -0.94      0.00
    5   -8   14      7.43      0.00
    6   -8   14      1.45      0.00
    7   -8   14     -0.37      0.00
    8   -8   14      0.17      0.00
    9   -8   14      5.89      0.00
   10   -8   14     -3.01      0.00
   11   -8   14     -2.04      0.00
   12   -8   14     -1.28      0.00
   13   -8   14      4.33      0.00
  -15   -7   14      1.79      0.00
  -14   -7   14      4.14      0.00
  -13   -7   14     -4.45      0.00
  -12   -7   14      2.17      0.00
  -11   -7   14     -0.58      0.00
  -10   -7   14     -0.19      0.00
   -9   -7   14      3.91      0.00
   -8   -7   14      4.94      0.00
   -7   -7   14     -2.93      0.00
   -6   -7   14     13.01      0.00
   -5   -7   14     -5.47      0.00
   -4   -7   14     15.84      0.00
   -3   -7   14     -3.87      0.00
   -2   -7   14      2.26      0.00
   -1   -7   14     -3.24      0.00
    0   -7   14      9.63      0.00
    1   -7   14     -7.95      0.00
    2   -7   14      7.44      0.00
    3   -7   14      5.19      0.00
    4   -7   14     -5.05      0.00
    5   -7   14      0.43      0.00
    6   -7   14     -1.46      0.00
    7   -7   14     -4.54      0.00
    8   -7   14     -5.56      0.00
    9   -7   14      3.21      0.00
   10   -7   14     -4.60      0.00
   11   -7   14      1.60      0.00
   12   -7   14     -1.68      0.00
   13   -7   14      2.08      0.00
  -15   -6   14      3.31      0.00
  -14   -6   14     -1.65      0.00
  -13   -6   14      0.56      0.00
  -12   -6   14      3.37      0.00
  -11   -6   14     -3.49      0.00
  -10   -6   14      8.23      0.00
   -9   -6   14      0.90      0.00
   -8   -6   14     -0.68      0.00
   -7   -6   14     -9.28      0.00
   -6   -6   14      1.06      0.00
   -5   -6   14     -7.13      0.00
   -4   -6   14      3.30      0.00
   -3   -6   14      1.35      0.00
   -2   -6   14     -4.09      0.00
   -1   -6   14     -7.21      0.00
    0   -6   14      8.30      0.00
    1   -6   14     -0.74      0.00
    2   -6   14      0.31      0.00
    3   -6   14     -0.60      0.00
    4   -6   14      0.87      0.00
    5   -6   14      6.60      0.00
    6   -6   14      0.94      0.00
    7   -6   14      0.89      0.00
    8   -6   14     -3.45      0.00
    9   -6   14      3.86      0.00
   10   -6   14     -2.76      0.00
   11   -6   14      2.52      0.00
   12   -6   14     -2.31      0.00
   13   -6   14      2.77      0.00
  -16   -5   14      7.29      0.00
  -15   -5   14     -1.85      0.00
  -14   -5   14     -3.20      0.00
  -13   -5   14     -1.47      0.00
  -12   -5   14      1.39      0.00
  -11   -5   14     -1.71      0.00
  -10   -5   14     -2.63      0.00
   -9   -5   14      0.06      0.00
   -8   -5   14      9.09      0.00
   -7   -5   14      3.95      0.00
   -6   -5   14     11.23      0.00
   -5   -5   14     -7.94      0.00
   -4   -5   14      2.99      0.00
   -3   -5   14      6.40      0.00
   -2   -5   14      9.44      0.00
   -1   -5   14     -3.47      0.00
    0   -5   14      5.11      0.00
    1   -5   14     -5.69      0.00
    2   -5   14      5.33      0.00
    3   -5   14      0.86      0.00
    4   -5   14     -1.02      0.00
    5   -5   14     -7.80      0.00
    6   -5   14     -2.75      0.00
    7   -5   14      0.23      0.00
    8   -5   14     -2.09      0.00
    9   -5   14      3.32      0.00
   10   -5   14     -0.22      0.00
   11   -5   14      3.13      0.00
   12   -5   14     -0.68      0.00
  -17   -4   14     -1.05      0.00
  -16   -4   14      0.53      0.00
  -15   -4   14     -1.76      0.00
  -14   -4   14      4.32      0.00
  -13   -4   14     -0.04      0.00
  -12   -4   14     -0.09      0.00
  -11   -4   14     -1.10      0.00
  -10   -4   14      5.40      0.00
   -9   -4   14      2.05      0.00
   -8   -4   14     -6.64      0.00
   -7   -4   14     -4.78      0.00
   -6   -4   14     -2.87      0.00
   -5   -4   14      8.46      0.00
   -4   -4   14     -5.85      0.00
   -3   -4   14      1.79      0.00
   -2   -4   14     -5.99      0.00
   -1   -4   14      5.08      0.00
    0   -4   14     11.64      0.00
    1   -4   14     -2.39      0.00
    2   -4   14    -10.32      0.00
    3   -4   14      9.93      0.00
    4   -4   14     -0.56      0.00
    5   -4   14     -1.83      0.00
    6   -4   14      0.51      0.00
    7   -4   14      4.91      0.00
    8   -4   14      0.03      0.00
    9   -4   14      0.28      0.00
   10   -4   14      0.01      0.00
   11   -4   14      1.96      0.00
   12   -4   14      0.00      0.00
  -17   -3   14     -1.17      0.00
  -16   -3   14     -1.25      0.00
  -15   -3   14     -1.66      0.00
  -14   -3   14     -0.73      0.00
  -13   -3   14     -0.87      0.00
  -12   -3   14     -5.62      0.00
  -11   -3   14     -1.56      0.00
  -10   -3   14      9.02      0.00
   -9   -3   14      0.96      0.00
   -8   -3   14     -3.61      0.00
   -7   -3   14      5.79      0.00
   -6   -3   14      2.59      0.00
   -5   -3   14     -1.94      0.00
   -4   -3   14     -2.68      0.00
   -3   -3   14     15.63      0.00
   -2   -3   14     -3.56      0.00
   -1   -3   14     -5.19      0.00
    0   -3   14     -5.00      0.00
    1   -3   14      5.68      0.00
    2   -3   14      0.35      0.00
    3   -3   14     -4.66      0.00
    4   -3   14     -7.74      0.00
    5   -3   14     -4.81      0.00
    6   -3   14      3.02      0.00
    7   -3   14     -1.49      0.00
    8   -3   14     -3.81      0.00
    9   -3   14      1.00      0.00
   10   -3   14      5.03      0.00
   11   -3   14      0.40      0.00
   12   -3   14     -2.28      0.00
  -18   -2   14      2.38      0.00
  -17   -2   14     -3.37      0.00
  -16   -2   14     -0.73      0.00
  -15   -2   14     -0.34      0.00
  -14   -2   14     -3.42      0.00
  -13   -2   14     -1.00      0.00
  -12   -2   14      2.55      0.00
  -11   -2   14      5.57      0.00
  -10   -2   14    -10.56      0.00
   -9   -2   14      7.94      0.00
   -8   -2   14     -5.78      0.00
   -7   -2   14      1.67      0.00
   -6   -2   14     -3.39      0.00
   -5   -2   14      8.63      0.00
   -4   -2   14    -13.62      0.00
   -3   -2   14     16.68      0.00
   -2   -2   14     -5.82      0.00
   -1   -2   14      5.35      0.00
    0   -2   14     -3.58      0.00
    1   -2   14      3.54      0.00
    2   -2   14     -5.50      0.00
    3   -2   14     14.83      0.00
    4   -2   14     -2.16      0.00
    5   -2   14     -3.19      0.00
    6   -2   14      1.01      0.00
    7   -2   14      3.18      0.00
    8   -2   14      3.89      0.00
    9   -2   14      0.81      0.00
   10   -2   14      1.67      0.00
   11   -2   14     -0.20      0.00
  -18   -1   14     -2.29      0.00
  -17   -1   14      0.38      0.00
  -16   -1   14     -2.38      0.00
  -15   -1   14     -1.21      0.00
  -14   -1   14     -4.68      0.00
  -13   -1   14     -3.83      0.00
  -12   -1   14      0.27      0.00
  -11   -1   14      0.90      0.00
  -10   -1   14      1.81      0.00
   -9   -1   14      1.79      0.00
   -8   -1   14     -4.27      0.00
   -7   -1   14      2.51      0.00
   -6   -1   14     -2.29      0.00
   -5   -1   14     15.90      0.00
   -4   -1   14     -7.76      0.00
   -3   -1   14      7.48      0.00
   -2   -1   14    -14.51      0.00
   -1   -1   14      0.33      0.00
    0   -1   14     -8.29      0.00
    1   -1   14      8.07      0.00
    2   -1   14    -16.19      0.00
    3   -1   14     -4.91      0.00
    4   -1   14     -0.44      0.00
    5   -1   14     -1.39      0.00
    6   -1   14     -1.92      0.00
    7   -1   14     -1.09      0.00
    8   -1   14     -0.30      0.00
    9   -1   14      1.02      0.00
   10   -1   14      2.79      0.00
   11   -1   14      1.04      0.00
  -19    0   14     -0.78      0.00
  -18    0   14      3.89      0.00
  -17    0   14     -3.92      0.00
  -16    0   14     -0.64      0.00
  -15    0   14      1.60      0.00
  -14    0   14      0.81      0.00
  -13    0   14      0.71      0.00
  -12    0   14      1.96      0.00
  -11    0   14      1.13      0.00
  -10    0   14     -9.14      0.00
   -9    0   14      3.44      0.00
   -8    0   14     -3.06      0.00
   -7    0   14     -0.48      0.00
   -6    0   14     -1.99      0.00
   -5    0   14     10.78      0.00
   -4    0   14    -11.88      0.00
   -3    0   14     13.19      0.00
   -2    0   14     -3.01      0.00
   -1    0   14      3.71      0.00
    0    0   14     -8.18      0.00
    1    0   14     16.69      0.00
    2    0   14     -5.82      0.00
    3    0   14      5.34      0.00
    4    0   14     -3.61      0.00
    5    0   14     -0.57      0.00
    6    0   14      1.13      0.00
    7    0   14      4.86      0.00
    8    0   14      1.30      0.00
    9    0   14     -0.91      0.00
   10    0   14      0.30      0.00
   11    0   14      1.77      0.00
  -19    1   14     -1.61      0.00
  -18    1   14     -0.51      0.00
  -17    1   14      1.63      0.00
  -16    1   14     -2.40      0.00
  -15    1   14     -4.38      0.00
  -14    1   14      0.33      0.00
  -13    1   14     -4.09      0.00
  -12    1   14      2.51      0.00
  -11    1   14      4.99      0.00
  -10    1   14     -0.70      0.00
   -9    1   14     -0.33      0.00
   -8    1   14      9.20      0.00
   -7    1   14      0.90      0.00
   -6    1   14     -1.55      0.00
   -5    1   14      6.09      0.00
   -4    1   14    -11.67      0.00
   -3    1   14      0.95      0.00
   -2    1   14     -9.88      0.00
   -1    1   14     -2.65      0.00
    0    1   14    -10.46      0.00
    1    1   14     12.90      0.00
    2    1   14    -12.81      0.00
    3    1   14      2.54      0.00
    4    1   14      0.48      0.00
    5    1   14     -2.72      0.00
    6    1   14     -4.25      0.00
    7    1   14      5.69      0.00
    8    1   14      0.51      0.00
    9    1   14     -0.98      0.00
   10    1   14      1.25      0.00
  -20    2   14     -1.91      0.00
  -19    2   14     -5.09      0.00
  -18    2   14      5.17      0.00
  -17    2   14     -5.74      0.00
  -16    2   14      0.73      0.00
  -15    2   14     -1.99      0.00
  -14    2   14      2.10      0.00
  -13    2   14     -1.76      0.00
  -12    2   14     -1.73      0.00
  -11    2   14     -4.77      0.00
  -10    2   14      2.40      0.00
   -9    2   14     -7.11      0.00
   -8    2   14     -2.08      0.00
   -7    2   14      2.34      0.00
   -6    2   14      8.86      0.00
   -5    2   14      3.56      0.00
   -4    2   14     -6.08      0.00
   -3    2   14     -5.79      0.00
   -2    2   14      2.64      0.00
   -1    2   14     12.39      0.00
    0    2   14     -2.48      0.00
    1    2   14      6.55      0.00
    2    2   14     -5.22      0.00
    3    2   14      0.78      0.00
    4    2   14     -0.24      0.00
    5    2   14      2.98      0.00
    6    2   14     -4.65      0.00
    7    2   14      2.73      0.00
    8    2   14      3.32      0.00
    9    2   14     -0.08      0.00
   10    2   14      1.35      0.00
  -20    3   14      0.46      0.00
  -19    3   14      0.82      0.00
  -18    3   14      0.68      0.00
  -17    3   14     -1.31      0.00
  -16    3   14      4.44      0.00
  -15    3   14      0.10      0.00
  -14    3   14      4.63      0.00
  -13    3   14     -9.19      0.00
  -12    3   14     -0.43      0.00
  -11    3   14     -1.41      0.00
  -10    3   14      2.84      0.00
   -9    3   14     -0.94      0.00
   -8    3   14     18.29      0.00
   -7    3   14     -9.08      0.00
   -6    3   14     -8.66      0.00
   -5    3   14      0.17      0.00
   -4    3   14     -0.36      0.00
   -3    3   14     -3.51      0.00
   -2    3   14     -2.50      0.00
   -1    3   14      0.88      0.00
    0    3   14     -5.81      0.00
    1    3   14      7.94      0.00
    2    3   14     -1.72      0.00
    3    3   14     -0.77      0.00
    4    3   14     -1.72      0.00
    5    3   14      0.99      0.00
    6    3   14     -1.27      0.00
    7    3   14      3.20      0.00
    8    3   14     -0.37      0.00
    9    3   14      1.09      0.00
  -20    4   14     -1.03      0.00
  -19    4   14     -4.73      0.00
  -18    4   14      1.43      0.00
  -17    4   14     -1.70      0.00
  -16    4   14     -0.02      0.00
  -15    4   14     -2.01      0.00
  -14    4   14     -2.09      0.00
  -13    4   14      2.04      0.00
  -12    4   14      3.01      0.00
  -11    4   14     -1.90      0.00
  -10    4   14      2.08      0.00
   -9    4   14    -12.67      0.00
   -8    4   14      7.98      0.00
   -7    4   14      0.12      0.00
   -6    4   14      1.86      0.00
   -5    4   14     -7.49      0.00
   -4    4   14      1.64      0.00
   -3    4   14     -1.96      0.00
   -2    4   14      9.43      0.00
   -1    4   14      7.72      0.00
    0    4   14     -9.95      0.00
    1    4   14      4.06      0.00
    2    4   14      2.70      0.00
    3    4   14     -0.71      0.00
    4    4   14     -2.08      0.00
    5    4   14      1.81      0.00
    6    4   14     -1.06      0.00
    7    4   14     -1.10      0.00
    8    4   14      3.22      0.00
  -21    5   14     -1.42      0.00
  -20    5   14      2.14      0.00
  -19    5   14      0.36      0.00
  -18    5   14      2.84      0.00
  -17    5   14     -1.97      0.00
  -16    5   14      0.36      0.00
  -15    5   14     -2.76      0.00
  -14    5   14      3.22      0.00
  -13    5   14    -13.51      0.00
  -12    5   14     -4.51      0.00
  -11    5   14      1.88      0.00
  -10    5   14      7.25      0.00
   -9    5   14      0.88      0.00
   -8    5   14      6.50      0.00
   -7    5   14     -5.96      0.00
   -6    5   14     -1.07      0.00
   -5    5   14      1.68      0.00
   -4    5   14     -0.70      0.00
   -3    5   14     -6.02      0.00
   -2    5   14      5.33      0.00
   -1    5   14      8.85      0.00
    0    5   14     -3.34      0.00
    1    5   14     -1.64      0.00
    2    5   14     -3.06      0.00
    3    5   14     -0.59      0.00
    4    5   14      2.28      0.00
    5    5   14      4.41      0.00
    6    5   14     -3.07      0.00
    7    5   14     -0.46      0.00
    8    5   14     -1.80      0.00
  -21    6   14      0.86      0.00
  -20    6   14     -0.03      0.00
  -19    6   14      0.03      0.00
  -18    6   14     -0.35      0.00
  -17    6   14      1.27      0.00
  -16    6   14     -2.38      0.00
  -15    6   14     -0.93      0.00
  -14    6   14     -0.27      0.00
  -13    6   14      5.97      0.00
  -12    6   14     -5.47      0.00
  -11    6   14      3.63      0.00
  -10    6   14      1.21      0.00
   -9    6   14     -3.54      0.00
   -8    6   14      2.35      0.00
   -7    6   14     -0.85      0.00
   -6    6   14     -9.89      0.00
   -5    6   14      4.65      0.00
   -4    6   14     11.55      0.00
   -3    6   14      4.18      0.00
   -2    6   14     -7.94      0.00
   -1    6   14      0.70      0.00
    0    6   14     -1.65      0.00
    1    6   14      6.49      0.00
    2    6   14     -0.19      0.00
    3    6   14     -3.79      0.00
    4    6   14     -1.84      0.00
    5    6   14      1.15      0.00
    6    6   14     -0.78      0.00
    7    6   14     -1.52      0.00
  -21    7   14     -0.58      0.00
  -20    7   14     -0.29      0.00
  -19    7   14      0.98      0.00
  -18    7   14     -1.32      0.00
  -17    7   14     -0.68      0.00
  -16    7   14      0.88      0.00
  -15    7   14     -3.57      0.00
  -14    7   14     -4.95      0.00
  -13    7   14      2.71      0.00
  -12    7   14     -3.58      0.00
  -11    7   14      2.60      0.00
  -10    7   14     -3.30      0.00
   -9    7   14      3.08      0.00
   -8    7   14     -6.49      0.00
   -7    7   14     12.39      0.00
   -6    7   14     -3.09      0.00
   -5    7   14     -6.26      0.00
   -4    7   14     -3.80      0.00
   -3    7   14      5.52      0.00
   -2    7   14     -1.17      0.00
   -1    7   14      5.95      0.00
    0    7   14     -3.90      0.00
    1    7   14     -2.88      0.00
    2    7   14      3.65      0.00
    3    7   14     -1.94      0.00
    4    7   14     -3.43      0.00
    5    7   14      5.12      0.00
    6    7   14     -0.55      0.00
  -21    8   14      1.28      0.00
  -20    8   14      3.35      0.00
  -19    8   14     -0.71      0.00
  -18    8   14     -1.95      0.00
  -17    8   14     -2.01      0.00
  -16    8   14     -2.60      0.00
  -15    8   14      3.15      0.00
  -14    8   14     -1.54      0.00
  -13    8   14      3.75      0.00
  -12    8   14     -5.63      0.00
  -11    8   14      5.50      0.00
  -10    8   14      0.70      0.00
   -9    8   14      4.35      0.00
   -8    8   14    -13.24      0.00
   -7    8   14      7.57      0.00
   -6    8   14     -7.08      0.00
   -5    8   14      8.68      0.00
   -4    8   14     -2.72      0.00
   -3    8   14     -1.28      0.00
   -2    8   14     -4.62      0.00
   -1    8   14      3.19      0.00
    0    8   14     -2.34      0.00
    1    8   14     -2.02      0.00
    2    8   14     -3.22      0.00
    3    8   14      0.43      0.00
    4    8   14      0.30      0.00
    5    8   14     -0.79      0.00
    6    8   14     -3.00      0.00
  -21    9   14      3.84      0.00
  -20    9   14     -1.32      0.00
  -19    9   14     -2.76      0.00
  -18    9   14     -0.78      0.00
  -17    9   14      3.18      0.00
  -16    9   14     -1.87      0.00
  -15    9   14      0.33      0.00
  -14    9   14     -5.78      0.00
  -13    9   14      5.92      0.00
  -12    9   14     -6.73      0.00
  -11    9   14      4.52      0.00
  -10    9   14     -8.09      0.00
   -9    9   14      6.10      0.00
   -8    9   14     -5.15      0.00
   -7    9   14     12.50      0.00
   -6    9   14     -8.87      0.00
   -5    9   14      0.58      0.00
   -4    9   14      0.05      0.00
   -3    9   14      2.31      0.00
   -2    9   14     -7.09      0.00
   -1    9   14      0.56      0.00
    0    9   14     -1.92      0.00
    1    9   14      0.75      0.00
    2    9   14      2.54      0.00
    3    9   14     -1.24      0.00
    4    9   14     -1.51      0.00
    5    9   14      0.12      0.00
  -21   10   14      0.81      0.00
  -20   10   14      2.45      0.00
  -19   10   14     -0.95      0.00
  -18   10   14     -0.21      0.00
  -17   10   14     -0.60      0.00
  -16   10   14     -1.92      0.00
  -15   10   14     -0.12      0.00
  -14   10   14     -3.27      0.00
  -13   10   14     -0.02      0.00
  -12   10   14     -0.43      0.00
  -11   10   14      4.91      0.00
  -10   10   14     -5.43      0.00
   -9   10   14      5.80      0.00
   -8   10   14    -12.70      0.00
   -7   10   14      3.77      0.00
   -6   10   14     -5.83      0.00
   -5   10   14     -0.43      0.00
   -4   10   14     -1.68      0.00
   -3   10   14     -1.74      0.00
   -2   10   14      1.60      0.00
   -1   10   14      2.09      0.00
    0   10   14     -3.32      0.00
    1   10   14     -5.38      0.00
    2   10   14      2.47      0.00
    3   10   14      2.90      0.00
    4   10   14     -3.29      0.00
  -21   11   14     -0.88      0.00
  -20   11   14     -0.56      0.00
  -19   11   14     -2.55      0.00
  -18   11   14      1.01      0.00
  -17   11   14      2.54      0.00
  -16   11   14     -1.14      0.00
  -15   11   14      2.50      0.00
  -14   11   14     -0.73      0.00
  -13   11   14      0.68      0.00
  -12   11   14     -3.93      0.00
  -11   11   14      2.90      0.00
  -10   11   14     -2.92      0.00
   -9   11   14      6.06      0.00
   -8   11   14     -4.99      0.00
   -7   11   14      4.16      0.00
   -6   11   14     -1.70      0.00
   -5   11   14      2.91      0.00
   -4   11   14     -1.85      0.00
   -3   11   14     -1.59      0.00
   -2   11   14     -3.98      0.00
   -1   11   14     -0.12      0.00
    0   11   14      1.78      0.00
    1   11   14     -1.80      0.00
    2   11   14      0.72      0.00
    3   11   14      3.38      0.00
  -21   12   14      1.89      0.00
  -20   12   14      1.78      0.00
  -19   12   14     -1.61      0.00
  -18   12   14     -2.39      0.00
  -17   12   14     -3.33      0.00
  -16   12   14     -2.05      0.00
  -15   12   14     -3.04      0.00
  -14   12   14     -1.81      0.00
  -13   12   14      2.61      0.00
  -12   12   14     -0.10      0.00
  -11   12   14      0.53      0.00
  -10   12   14     -1.58      0.00
   -9   12   14      3.01      0.00
   -8   12   14     -4.02      0.00
   -7   12   14     -0.20      0.00
   -6   12   14     -2.61      0.00
   -5   12   14     -1.51      0.00
   -4   12   14      2.49      0.00
   -3   12   14      2.95      0.00
   -2   12   14     -1.42      0.00
   -1   12   14      1.89      0.00
    0   12   14     -0.56      0.00
    1   12   14     -3.47      0.00
    2   12   14     -0.60      0.00
  -21   13   14     -3.09      0.00
  -20   13   14     -2.27      0.00
  -19   13   14      1.64      0.00
  -18   13   14     -0.92      0.00
  -17   13   14     -0.77      0.00
  -16   13   14      3.61      0.00
  -15   13   14      1.97      0.00
  -14   13   14     -0.90      0.00
  -13   13   14      0.63      0.00
  -12   13   14     -1.40      0.00
  -11   13   14     -0.42      0.00
  -10   13   14     -0.54      0.00
   -9   13   14      1.30      0.00
   -8   13   14      0.05      0.00
   -7   13   14      5.23      0.00
   -6   13   14      1.23      0.00
   -5   13   14     -1.47      0.00
   -4   13   14     -2.31      0.00
   -3   13   14      0.05      0.00
   -2   13   14     -0.08      0.00
   -1   13   14     -1.20      0.00
    0   13   14      2.26      0.00
    1   13   14      0.58      0.00
  -20   14   14      2.45      0.00
  -19   14   14     -0.94      0.00
  -18   14   14     -2.20      0.00
  -17   14   14      1.77      0.00
  -16   14   14     -0.39      0.00
  -15   14   14     -2.12      0.00
  -14   14   14     -2.41      0.00
  -13   14   14     -1.37      0.00
  -12   14   14      1.56      0.00
  -11   14   14      2.55      0.00
  -10   14   14      2.56      0.00
   -9   14   14      0.96      0.00
   -8   14   14     -3.24      0.00
   -7   14   14     -1.22      0.00
   -6   14   14      1.06      0.00
   -5   14   14     -0.49      0.00
   -4   14   14     -2.27      0.00
   -3   14   14      0.00      0.00
   -2   14   14     -0.85      0.00
   -1   14   14      1.59      0.00
    0   14   14     -0.55      0.00
  -20   15   14     -0.63      0.00
  -19   15   14      0.82      0.00
  -18   15   14      0.14      0.00
  -17   15   14     -2.59      0.00
  -16   15   14      2.74      0.00
  -15   15   14     -1.00      0.00
  -14   15   14     -1.51      0.00
  -13   15   14      1.91      0.00
  -12   15   14      0.40      0.00
  -11   15   14      0.07      0.00
  -10   15   14     -0.58      0.00
   -9   15   14      4.08      0.00
   -8   15   14     -2.80      0.00
   -7   15   14      0.70      0.00
   -6   15   14     -1.25      0.00
   -5   15   14      1.89      0.00
   -4   15   14      1.32      0.00
   -3   15   14     -2.40      0.00
   -2   15   14      1.94      0.00
   -1   15   14     -1.50      0.00
  -19   16   14     -0.85      0.00
  -18   16   14     -0.21      0.00
  -17   16   14      1.83      0.00
  -16   16   14      0.89      0.00
  -15   16   14     -3.39      0.00
  -14   16   14     -2.50      0.00
  -13   16   14     -2.59      0.00
  -12   16   14      6.44      0.00
  -11   16   14      1.77      0.00
  -10   16   14      0.20      0.00
   -9   16   14     -2.75      0.00
   -8   16   14     -4.73      0.00
   -7   16   14     -1.43      0.00
   -6   16   14     -2.23      0.00
   -5   16   14     -2.10      0.00
   -4   16   14     -0.42      0.00
   -3   16   14      3.16      0.00
  -18   17   14     -0.09      0.00
  -17   17   14     -2.36      0.00
  -16   17   14     -2.33      0.00
  -15   17   14     -1.38      0.00
  -14   17   14     -0.35      0.00
  -13   17   14      3.78      0.00
  -12   17   14     -0.61      0.00
  -11   17   14      0.31      0.00
  -10   17   14     -2.31      0.00
   -9   17   14     -2.53      0.00
   -8   17   14     -0.37      0.00
   -7   17   14      1.73      0.00
   -6   17   14      1.61      0.00
   -5   17   14     -0.41      0.00
  -17   18   14     -1.22      0.00
  -16   18   14     -1.35      0.00
  -15   18   14     -2.42      0.00
  -14   18   14      4.96      0.00
  -13   18   14     -0.95      0.00
  -12   18   14     -2.39      0.00
  -11   18   14     -2.63      0.00
  -10   18   14     -1.48      0.00
   -9   18   14     -3.00      0.00
   -8   18   14     -0.11      0.00
   -7   18   14     -1.06      0.00
  -14   19   14     -4.00      0.00
  -13   19   14      0.10      0.00
  -12   19   14      1.19      0.00
  -11   19   14     -0.21      0.00
  -10   19   14     -3.33      0.00
    0  -18   15      1.90      0.00
    1  -18   15     -3.06      0.00
    2  -18   15     -0.09      0.00
    3  -18   15      0.42      0.00
    4  -18   15      1.62      0.00
    5  -18   15      2.23      0.00
    6  -18   15     -1.73      0.00
    7  -18   15     -4.25      0.00
    8  -18   15      2.26      0.00
   -3  -17   15     -4.62      0.00
   -2  -17   15      8.83      0.00
   -1  -17   15      2.86      0.00
    0  -17   15      1.48      0.00
    1  -17   15     -2.69      0.00
    2  -17   15      0.05      0.00
    3  -17   15     -4.09      0.00
    4  -17   15      3.14      0.00
    5  -17   15      3.01      0.00
    6  -17   15      6.32      0.00
    7  -17   15      4.94      0.00
    8  -17   15     -1.00      0.00
    9  -17   15      0.01      0.00
   -5  -16   15      4.63      0.00
   -4  -16   15      0.72      0.00
   -3  -16   15     -8.97      0.00
   -2  -16   15     -0.56      0.00
   -1  -16   15     -2.63      0.00
    0  -16   15     -2.54      0.00
    1  -16   15     -5.49      0.00
    2  -16   15      7.16      0.00
    3  -16   15      0.83      0.00
    4  -16   15      3.06      0.00
    5  -16   15     -2.91      0.00
    6  -16   15      1.08      0.00
    7  -16   15     -1.21      0.00
    8  -16   15      2.73      0.00
    9  -16   15     -1.01      0.00
   10  -16   15     -1.41      0.00
   -7  -15   15      3.19      0.00
   -6  -15   15      1.58      0.00
   -5  -15   15     -4.12      0.00
   -4  -15   15     -0.33      0.00
   -3  -15   15     -0.43      0.00
   -2  -15   15      2.30      0.00
   -1  -15   15      3.79      0.00
    0  -15   15      0.45      0.00
    1  -15   15     -5.15      0.00
    2  -15   15      2.98      0.00
    3  -15   15     -4.97      0.00
    4  -15   15      3.93      0.00
    5  -15   15      2.91      0.00
    6  -15   15      4.55      0.00
    7  -15   15     -2.16      0.00
    8  -15   15      1.89      0.00
    9  -15   15     -2.53      0.00
   10  -15   15      1.08      0.00
   11  -15   15     -0.97      0.00
   -8  -14   15     -3.20      0.00
   -7  -14   15      0.62      0.00
   -6  -14   15     -0.29      0.00
   -5  -14   15     -1.09      0.00
   -4  -14   15     -0.93      0.00
   -3  -14   15     -7.19      0.00
   -2  -14   15      1.29      0.00
   -1  -14   15      0.50      0.00
    0  -14   15     -0.44      0.00
    1  -14   15      0.09      0.00
    2  -14   15      7.45      0.00
    3  -14   15     -2.40      0.00
    4  -14   15      3.59      0.00
    5  -14   15     -1.63      0.00
    6  -14   15      3.40      0.00
    7  -14   15     -3.91      0.00
    8  -14   15      0.55      0.00
    9  -14   15     -4.02      0.00
   10  -14   15     -1.07      0.00
   11  -14   15     -0.67      0.00
   -9  -13   15      7.36      0.00
   -8  -13   15      2.94      0.00
   -7  -13   15     -0.08      0.00
   -6  -13   15     -6.06      0.00
   -5  -13   15     -2.61      0.00
   -4  -13   15      1.28      0.00
   -3  -13   15      1.87      0.00
   -2  -13   15      4.53      0.00
   -1  -13   15      1.59      0.00
    0  -13   15     -5.56      0.00
    1  -13   15     -8.17      0.00
    2  -13   15      3.50      0.00
    3  -13   15     -1.12      0.00
    4  -13   15      5.33      0.00
    5  -13   15     -2.93      0.00
    6  -13   15      3.71      0.00
    7  -13   15     -3.71      0.00
    8  -13   15      2.01      0.00
    9  -13   15      2.76      0.00
   10  -13   15      0.26      0.00
   11  -13   15     -4.14      0.00
   12  -13   15      0.43      0.00
  -10  -12   15     -0.57      0.00
   -9  -12   15     -0.85      0.00
   -8  -12   15     -1.28      0.00
   -7  -12   15      1.92      0.00
   -6  -12   15      0.65      0.00
   -5  -12   15     -3.11      0.00
   -4  -12   15     -1.29      0.00
   -3  -12   15      1.35      0.00
   -2  -12   15     -2.51      0.00
   -1  -12   15      0.82      0.00
    0  -12   15      3.56      0.00
    1  -12   15     -0.90      0.00
    2  -12   15      9.33      0.00
    3  -12   15     -0.93      0.00
    4  -12   15      2.10      0.00
    5  -12   15     -1.33      0.00
    6  -12   15      1.86      0.00
    7  -12   15     -2.41      0.00
    8  -12   15     -1.51      0.00
    9  -12   15     -2.07      0.00
   10  -12   15      2.55      0.00
   11  -12   15     -0.21      0.00
   12  -12   15     -0.11      0.00
  -11  -11   15      8.73      0.00
  -10  -11   15      2.57      0.00
   -9  -11   15     -1.33      0.00
   -8  -11   15     -1.85      0.00
   -7  -11   15      1.23      0.00
   -6  -11   15     -6.34      0.00
   -5  -11   15      1.68      0.00
   -4  -11   15      2.33      0.00
   -3  -11   15      6.01      0.00
   -2  -11   15     -6.69      0.00
   -1  -11   15     -2.39      0.00
    0  -11   15     -4.76      0.00
    1  -11   15     -8.50      0.00
    2  -11   15      4.41      0.00
    3  -11   15      3.32      0.00
    4  -11   15      1.24      0.00
    5  -11   15     -4.79      0.00
    6  -11   15      0.68      0.00
    7  -11   15      0.91      0.00
    8  -11   15     -1.56      0.00
    9  -11   15      1.08      0.00
   10  -11   15     -0.88      0.00
   11  -11   15     -0.05      0.00
   12  -11   15      3.11      0.00
  -12  -10   15     -1.22      0.00
  -11  -10   15     -6.24      0.00
  -10  -10   15      1.61      0.00
   -9  -10   15     -0.60      0.00
   -8  -10   15     -3.87      0.00
   -7  -10   15      7.71      0.00
   -6  -10   15      0.07      0.00
   -5  -10   15     -8.20      0.00
   -4  -10   15     -0.69      0.00
   -3  -10   15      1.72      0.00
   -2  -10   15     -1.13      0.00
   -1  -10   15      1.13      0.00
    0  -10   15      3.90      0.00
    1  -10   15      0.99      0.00
    2  -10   15      1.06      0.00
    3  -10   15      6.28      0.00
    4  -10   15     -0.18      0.00
    5  -10   15      1.50      0.00
    6  -10   15     -0.37      0.00
    7  -10   15     -1.94      0.00
    8  -10   15     -1.55      0.00
    9  -10   15      4.10      0.00
   10  -10   15     -2.01      0.00
   11  -10   15     -4.09      0.00
   12  -10   15     -0.48      0.00
  -13   -9   15      2.93      0.00
  -12   -9   15      1.00      0.00
  -11   -9   15      4.15      0.00
  -10   -9   15     -1.36      0.00
   -9   -9   15      6.82      0.00
   -8   -9   15     -2.71      0.00
   -7   -9   15      3.20      0.00
   -6   -9   15     -3.33      0.00
   -5   -9   15      1.80      0.00
   -4   -9   15     -2.12      0.00
   -3   -9   15      3.16      0.00
   -2   -9   15     -9.17      0.00
   -1   -9   15     -2.63      0.00
    0   -9   15      1.81      0.00
    1   -9   15     -1.73      0.00
    2   -9   15     -1.75      0.00
    3   -9   15     -3.87      0.00
    4   -9   15     -5.28      0.00
    5   -9   15      1.98      0.00
    6   -9   15     -0.26      0.00
    7   -9   15      4.78      0.00
    8   -9   15     -2.42      0.00
    9   -9   15      2.76      0.00
   10   -9   15      1.89      0.00
   11   -9   15      2.07      0.00
   12   -9   15      0.14      0.00
  -14   -8   15      5.56      0.00
  -13   -8   15     -8.44      0.00
  -12   -8   15     -0.88      0.00
  -11   -8   15      3.28      0.00
  -10   -8   15     -1.63      0.00
   -9   -8   15      5.08      0.00
   -8   -8   15      1.16      0.00
   -7   -8   15     -4.50      0.00
   -6   -8   15      1.62      0.00
   -5   -8   15     -5.33      0.00
   -4   -8   15     -1.57      0.00
   -3   -8   15      2.76      0.00
   -2   -8   15      0.84      0.00
   -1   -8   15     -2.46      0.00
    0   -8   15      3.75      0.00
    1   -8   15      5.17      0.00
    2   -8   15     -2.78      0.00
    3   -8   15      7.81      0.00
    4   -8   15     -1.52      0.00
    5   -8   15      1.41      0.00
    6   -8   15     -3.40      0.00
    7   -8   15      1.59      0.00
    8   -8   15     -1.14      0.00
    9   -8   15     -0.78      0.00
   10   -8   15     -3.28      0.00
   11   -8   15      0.24      0.00
   12   -8   15      0.10      0.00
  -14   -7   15      0.24      0.00
  -13   -7   15      3.77      0.00
  -12   -7   15      0.10      0.00
  -11   -7   15      2.66      0.00
  -10   -7   15      5.04      0.00
   -9   -7   15      6.23      0.00
   -8   -7   15     -3.82      0.00
   -7   -7   15      0.27      0.00
   -6   -7   15      5.18      0.00
   -5   -7   15     -2.56      0.00
   -4   -7   15     -1.20      0.00
   -3   -7   15      1.53      0.00
   -2   -7   15     -1.11      0.00
   -1   -7   15     -3.74      0.00
    0   -7   15      2.00      0.00
    1   -7   15     -1.74      0.00
    2   -7   15     -4.39      0.00
    3   -7   15     -3.31      0.00
    4   -7   15     -4.10      0.00
    5   -7   15      3.83      0.00
    6   -7   15     -2.58      0.00
    7   -7   15      2.60      0.00
    8   -7   15     -1.32      0.00
    9   -7   15      4.22      0.00
   10   -7   15      1.94      0.00
   11   -7   15      3.13      0.00
   12   -7   15      0.29      0.00
  -15   -6   15      1.27      0.00
  -14   -6   15      0.06      0.00
  -13   -6   15      4.69      0.00
  -12   -6   15     -1.30      0.00
  -11   -6   15      3.21      0.00
  -10   -6   15      5.50      0.00
   -9   -6   15     -4.19      0.00
   -8   -6   15      2.18      0.00
   -7   -6   15     -5.21      0.00
   -6   -6   15      7.39      0.00
   -5   -6   15     -4.34      0.00
   -4   -6   15      4.26      0.00
   -3   -6   15      0.00      0.00
   -2   -6   15      3.43      0.00
   -1   -6   15     -3.18      0.00
    0   -6   15      8.74      0.00
    1   -6   15     -3.84      0.00
    2   -6   15     -0.76      0.00
    3   -6   15      5.74      0.00
    4   -6   15      4.10      0.00
    5   -6   15     -0.07      0.00
    6   -6   15      0.29      0.00
    7   -6   15      1.00      0.00
    8   -6   15     -5.43      0.00
    9   -6   15     -1.49      0.00
   10   -6   15      0.76      0.00
   11   -6   15      2.14      0.00
   12   -6   15     -1.08      0.00
  -16   -5   15     -4.26      0.00
  -15   -5   15     -5.66      0.00
  -14   -5   15      3.42      0.00
  -13   -5   15      2.49      0.00
  -12   -5   15      2.93      0.00
  -11   -5   15      0.47      0.00
  -10   -5   15      2.46      0.00
   -9   -5   15      3.90      0.00
   -8   -5   15      6.73      0.00
   -7   -5   15     -8.97      0.00
   -6   -5   15      1.93      0.00
   -5   -5   15     -4.00      0.00
   -4   -5   15      6.36      0.00
   -3   -5   15      0.27      0.00
   -2   -5   15      4.55      0.00
   -1   -5   15    -14.56      0.00
    0   -5   15      4.23      0.00
    1   -5   15     -2.99      0.00
    2   -5   15     -9.19      0.00
    3   -5   15     -2.62      0.00
    4   -5   15     -3.94      0.00
    5   -5   15     -1.36      0.00
    6   -5   15      2.34      0.00
    7   -5   15      8.42      0.00
    8   -5   15     -1.99      0.00
    9   -5   15      1.98      0.00
   10   -5   15      0.21      0.00
   11   -5   15      2.88      0.00
   12   -5   15     -1.05      0.00
  -16   -4   15      1.02      0.00
  -15   -4   15      4.07      0.00
  -14   -4   15      4.16      0.00
  -13   -4   15     -3.20      0.00
  -12   -4   15      2.20      0.00
  -11   -4   15      0.02      0.00
  -10   -4   15      3.48      0.00
   -9   -4   15     -7.08      0.00
   -8   -4   15      6.34      0.00
   -7   -4   15     -3.49      0.00
   -6   -4   15     14.77      0.00
   -5   -4   15     -4.09      0.00
   -4   -4   15     -1.44      0.00
   -3   -4   15     -0.43      0.00
   -2   -4   15     16.78      0.00
   -1   -4   15     -5.99      0.00
    0   -4   15      2.92      0.00
    1   -4   15     -5.55      0.00
    2   -4   15     10.06      0.00
    3   -4   15     -0.99      0.00
    4   -4   15      1.45      0.00
    5   -4   15     -0.32      0.00
    6   -4   15      0.33      0.00
    7   -4   15      1.90      0.00
    8   -4   15     -2.10      0.00
    9   -4   15      0.29      0.00
   10   -4   15      0.53      0.00
   11   -4   15      2.69      0.00
  -17   -3   15     -2.21      0.00
  -16   -3   15     -0.57      0.00
  -15   -3   15     -0.22      0.00
  -14   -3   15      3.21      0.00
  -13   -3   15     -5.44      0.00
  -12   -3   15      4.79      0.00
  -11   -3   15      7.22      0.00
  -10   -3   15     -2.20      0.00
   -9   -3   15     -5.91      0.00
   -8   -3   15      6.39      0.00
   -7   -3   15     -5.77      0.00
   -6   -3   15     -0.31      0.00
   -5   -3   15      1.41      0.00
   -4   -3   15      4.37      0.00
   -3   -3   15    -13.76      0.00
   -2   -3   15      0.17      0.00
   -1   -3   15    -15.68      0.00
    0   -3   15      3.08      0.00
    1   -3   15     -0.44      0.00
    2   -3   15     -9.50      0.00
    3   -3   15     -7.32      0.00
    4   -3   15      4.87      0.00
    5   -3   15      1.21      0.00
    6   -3   15     -4.29      0.00
    7   -3   15      2.77      0.00
    8   -3   15      1.04      0.00
    9   -3   15      4.54      0.00
   10   -3   15     -2.49      0.00
   11   -3   15      0.38      0.00
  -18   -2   15     -0.02      0.00
  -17   -2   15     -0.05      0.00
  -16   -2   15      1.94      0.00
  -15   -2   15     -1.93      0.00
  -14   -2   15      1.19      0.00
  -13   -2   15      1.07      0.00
  -12   -2   15      2.90      0.00
  -11   -2   15     -6.37      0.00
  -10   -2   15      4.09      0.00
   -9   -2   15     -0.16      0.00
   -8   -2   15      2.24      0.00
   -7   -2   15     -0.51      0.00
   -6   -2   15      1.52      0.00
   -5   -2   15      3.56      0.00
   -4   -2   15      5.32      0.00
   -3   -2   15      0.20      0.00
   -2   -2   15      5.76      0.00
   -1   -2   15     -6.71      0.00
    0   -2   15      2.65      0.00
    1   -2   15      8.14      0.00
    2   -2   15      8.39      0.00
    3   -2   15     -7.30      0.00
    4   -2   15      2.91      0.00
    5   -2   15      1.54      0.00
    6   -2   15      0.54      0.00
    7   -2   15      1.11      0.00
    8   -2   15      0.42      0.00
    9   -2   15     -2.94      0.00
   10   -2   15     -1.15      0.00
   11   -2   15     -0.06      0.00
  -18   -1   15      3.20      0.00
  -17   -1   15     -0.56      0.00
  -16   -1   15     -2.93      0.00
  -15   -1   15     -3.25      0.00
  -14   -1   15      2.12      0.00
  -13   -1   15      2.07      0.00
  -12   -1   15      3.60      0.00
  -11   -1   15      4.75      0.00
  -10   -1   15     -5.18      0.00
   -9   -1   15     -1.23      0.00
   -8   -1   15      1.77      0.00
   -7   -1   15     -0.27      0.00
   -6   -1   15     -0.91      0.00
   -5   -1   15      3.97      0.00
   -4   -1   15    -13.63      0.00
   -3   -1   15    -11.67      0.00
   -2   -1   15      0.84      0.00
   -1   -1   15      1.80      0.00
    0   -1   15     -8.12      0.00
    1   -1   15     -4.79      0.00
    2   -1   15     -4.43      0.00
    3   -1   15     -0.34      0.00
    4   -1   15      2.28      0.00
    5   -1   15     -1.43      0.00
    6   -1   15     -4.05      0.00
    7   -1   15      3.27      0.00
    8   -1   15      1.53      0.00
    9   -1   15      1.44      0.00
   10   -1   15     -2.10      0.00
  -19    0   15      3.33      0.00
  -18    0   15     -0.19      0.00
  -17    0   15      1.51      0.00
  -16    0   15      0.81      0.00
  -15    0   15      2.11      0.00
  -14    0   15     -1.79      0.00
  -13    0   15     -2.12      0.00
  -12    0   15     -4.34      0.00
  -11    0   15      1.00      0.00
  -10    0   15     -3.48      0.00
   -9    0   15      0.67      0.00
   -8    0   15     -0.78      0.00
   -7    0   15      5.04      0.00
   -6    0   15     -9.66      0.00
   -5    0   15      7.90      0.00
   -4    0   15     -3.06      0.00
   -3    0   15      2.45      0.00
   -2    0   15     -1.78      0.00
   -1    0   15      8.01      0.00
    0    0   15      2.23      0.00
    1    0   15      9.45      0.00
    2    0   15     -3.28      0.00
    3    0   15     -5.92      0.00
    4    0   15      2.06      0.00
    5    0   15      4.99      0.00
    6    0   15     -1.42      0.00
    7    0   15     -2.01      0.00
    8    0   15     -0.92      0.00
    9    0   15     -0.82      0.00
   10    0   15     -0.67      0.00
  -19    1   15     -0.27      0.00
  -18    1   15      1.77      0.00
  -17    1   15     -2.49      0.00
  -16    1   15     -1.78      0.00
  -15    1   15      2.45      0.00
  -14    1   15      6.51      0.00
  -13    1   15      3.48      0.00
  -12    1   15     -0.02      0.00
  -11    1   15      2.13      0.00
  -10    1   15     -6.57      0.00
   -9    1   15      4.23      0.00
   -8    1   15     -4.59      0.00
   -7    1   15      3.54      0.00
   -6    1   15    -11.60      0.00
   -5    1   15      4.35      0.00
   -4    1   15    -11.67      0.00
   -3    1   15      0.24      0.00
   -2    1   15     -7.08      0.00
   -1    1   15     10.15      0.00
    0    1   15     -9.91      0.00
    1    1   15      3.07      0.00
    2    1   15     -0.67      0.00
    3    1   15     -0.96      0.00
    4    1   15     -8.56      0.00
    5    1   15      2.94      0.00
    6    1   15     -2.80      0.00
    7    1   15      1.33      0.00
    8    1   15     -0.35      0.00
    9    1   15      2.93      0.00
  -20    2   15      1.18      0.00
  -19    2   15      1.41      0.00
  -18    2   15      0.08      0.00
  -17    2   15      0.87      0.00
  -16    2   15      2.04      0.00
  -15    2   15      1.55      0.00
  -14    2   15      1.54      0.00
  -13    2   15     -1.96      0.00
  -12    2   15     -9.58      0.00
  -11    2   15      5.76      0.00
  -10    2   15     -2.11      0.00
   -9    2   15     -2.28      0.00
   -8    2   15      1.52      0.00
   -7    2   15     11.86      0.00
   -6    2   15    -15.53      0.00
   -5    2   15      5.26      0.00
   -4    2   15     -6.78      0.00
   -3    2   15      8.61      0.00
   -2    2   15     -0.36      0.00
   -1    2   15     11.91      0.00
    0    2   15    -13.25      0.00
    1    2   15      2.79      0.00
    2    2   15     -2.73      0.00
    3    2   15      1.67      0.00
    4    2   15      0.25      0.00
    5    2   15      2.34      0.00
    6    2   15     -2.76      0.00
    7    2   15      1.85      0.00
    8    2   15      0.51      0.00
    9    2   15      1.27      0.00
  -20    3   15      4.82      0.00
  -19    3   15     -3.64      0.00
  -18    3   15      1.65      0.00
  -17    3   15      1.37      0.00
  -16    3   15      3.21      0.00
  -15    3   15     -1.42      0.00
  -14    3   15      0.12      0.00
  -13    3   15      1.36      0.00
  -12    3   15     -2.38      0.00
  -11    3   15     -0.03      0.00
  -10    3   15      3.19      0.00
   -9    3   15     -0.49      0.00
   -8    3   15     -9.13      0.00
   -7    3   15     -1.91      0.00
   -6    3   15     -3.78      0.00
   -5    3   15      5.47      0.00
   -4    3   15     -3.52      0.00
   -3    3   15      2.55      0.00
   -2    3   15     -9.13      0.00
   -1    3   15     12.86      0.00
    0    3   15     -6.82      0.00
    1    3   15      4.29      0.00
    2    3   15     -6.95      0.00
    3    3   15     -0.01      0.00
    4    3   15     -6.01      0.00
    5    3   15      6.94      0.00
    6    3   15     -0.99      0.00
    7    3   15     -0.38      0.00
    8    3   15      2.05      0.00
  -20    4   15      4.16      0.00
  -19    4   15      1.16      0.00
  -18    4   15      4.58      0.00
  -17    4   15     -0.12      0.00
  -16    4   15      4.47      0.00
  -15    4   15     -2.94      0.00
  -14    4   15      3.72      0.00
  -13    4   15      2.35      0.00
  -12    4   15     -3.88      0.00
  -11    4   15     -4.26      0.00
  -10    4   15      2.09      0.00
   -9    4   15      0.33      0.00
   -8    4   15      4.31      0.00
   -7    4   15      1.95      0.00
   -6    4   15    -10.80      0.00
   -5    4   15     -0.81      0.00
   -4    4   15      3.51      0.00
   -3    4   15      5.74      0.00
   -2    4   15     -6.39      0.00
   -1    4   15      3.90      0.00
    0    4   15     -3.17      0.00
    1    4   15      3.52      0.00
    2    4   15     -1.43      0.00
    3    4   15      0.10      0.00
    4    4   15     -2.85      0.00
    5    4   15      5.43      0.00
    6    4   15      1.69      0.00
    7    4   15      0.51      0.00
    8    4   15     -1.22      0.00
  -21    5   15      2.00      0.00
  -20    5   15      2.11      0.00
  -19    5   15     -3.06      0.00
  -18    5   15      1.87      0.00
  -17    5   15     -2.29      0.00
  -16    5   15      5.30      0.00
  -15    5   15     -2.20      0.00
  -14    5   15     -5.58      0.00
  -13    5   15      1.66      0.00
  -12    5   15      8.33      0.00
  -11    5   15     -3.90      0.00
  -10    5   15     10.72      0.00
   -9    5   15     -8.88      0.00
   -8    5   15     -1.18      0.00
   -7    5   15      2.73      0.00
   -6    5   15      4.23      0.00
   -5    5   15     -6.76      0.00
   -4    5   15     -0.24      0.00
   -3    5   15      6.54      0.00
   -2    5   15     -5.35      0.00
   -1    5   15      4.27      0.00
    0    5   15     -4.47      0.00
    1    5   15      0.67      0.00
    2    5   15      1.36      0.00
    3    5   15      4.28      0.00
    4    5   15     -3.13      0.00
    5    5   15      1.99      0.00
    6    5   15      1.62      0.00
    7    5   15     -0.61      0.00
  -21    6   15     -1.58      0.00
  -20    6   15      0.56      0.00
  -19    6   15     -0.85      0.00
  -18    6   15      4.03      0.00
  -17    6   15     -0.22      0.00
  -16    6   15      4.60      0.00
  -15    6   15      1.55      0.00
  -14    6   15     -0.47      0.00
  -13    6   15     -2.91      0.00
  -12    6   15      2.18      0.00
  -11    6   15     -5.03      0.00
  -10    6   15      7.39      0.00
   -9    6   15     -4.99      0.00
   -8    6   15     -1.63      0.00
   -7    6   15     -6.07      0.00
   -6    6   15      6.52      0.00
   -5    6   15     -0.87      0.00
   -4    6   15      2.58      0.00
   -3    6   15     -4.25      0.00
   -2    6   15     -6.95      0.00
   -1    6   15      6.85      0.00
    0    6   15      1.31      0.00
    1    6   15     -1.68      0.00
    2    6   15     -0.71      0.00
    3    6   15      1.52      0.00
    4    6   15     -1.96      0.00
    5    6   15      2.76      0.00
    6    6   15      1.52      0.00
  -21    7   15      0.40      0.00
  -20    7   15      2.15      0.00
  -19    7   15     -4.02      0.00
  -18    7   15      3.35      0.00
  -17    7   15     -1.48      0.00
  -16    7   15      2.79      0.00
  -15    7   15     -0.80      0.00
  -14    7   15      3.93      0.00
  -13    7   15      1.61      0.00
  -12    7   15      2.77      0.00
  -11    7   15     -5.42      0.00
  -10    7   15      9.05      0.00
   -9    7   15     -4.06      0.00
   -8    7   15      2.03      0.00
   -7    7   15     -2.37      0.00
   -6    7   15     -5.15      0.00
   -5    7   15     -5.42      0.00
   -4    7   15      7.40      0.00
   -3    7   15      7.71      0.00
   -2    7   15     -3.42      0.00
   -1    7   15      0.84      0.00
    0    7   15     -1.07      0.00
    1    7   15      2.52      0.00
    2    7   15      0.55      0.00
    3    7   15      1.64      0.00
    4    7   15      0.08      0.00
    5    7   15     -0.29      0.00
    6    7   15     -1.06      0.00
  -21    8   15      0.45      0.00
  -20    8   15     -1.00      0.00
  -19    8   15     -2.18      0.00
  -18    8   15      1.52      0.00
  -17    8   15      3.47      0.00
  -16    8   15      3.38      0.00
  -15    8   15      2.06      0.00
  -14    8   15     -6.08      0.00
  -13    8   15      1.09      0.00
  -12    8   15      3.33      0.00
  -11    8   15     -0.51      0.00
  -10    8   15      1.24      0.00
   -9    8   15     -4.23      0.00
   -8    8   15     -3.34      0.00
   -7    8   15     -0.43      0.00
   -6    8   15      5.97      0.00
   -5    8   15     -7.87      0.00
   -4    8   15     -7.48      0.00
   -3    8   15      4.29      0.00
   -2    8   15     -1.44      0.00
   -1    8   15      2.16      0.00
    0    8   15     -2.52      0.00
    1    8   15     -4.17      0.00
    2    8   15      0.03      0.00
    3    8   15      4.69      0.00
    4    8   15     -3.37      0.00
    5    8   15     -3.93      0.00
  -21    9   15     -1.02      0.00
  -20    9   15      0.03      0.00
  -19    9   15      1.73      0.00
  -18    9   15      3.85      0.00
  -17    9   15      0.92      0.00
  -16    9   15     -2.01      0.00
  -15    9   15      0.39      0.00
  -14    9   15      0.25      0.00
  -13    9   15      3.88      0.00
  -12    9   15      1.23      0.00
  -11    9   15     -1.39      0.00
  -10    9   15     -1.75      0.00
   -9    9   15      6.92      0.00
   -8    9   15     -4.14      0.00
   -7    9   15     -4.63      0.00
   -6    9   15     -1.00      0.00
   -5    9   15      4.76      0.00
   -4    9   15     -2.38      0.00
   -3    9   15      0.20      0.00
   -2    9   15     -3.55      0.00
   -1    9   15      2.66      0.00
    0    9   15      1.47      0.00
    1    9   15     -1.48      0.00
    2    9   15     -3.73      0.00
    3    9   15      2.10      0.00
    4    9   15     -2.03      0.00
  -21   10   15     -1.65      0.00
  -20   10   15      1.74      0.00
  -19   10   15     -1.80      0.00
  -18   10   15      0.02      0.00
  -17   10   15      3.70      0.00
  -16   10   15     -0.59      0.00
  -15   10   15      2.04      0.00
  -14   10   15     -2.45      0.00
  -13   10   15      2.06      0.00
  -12   10   15     -0.58      0.00
  -11   10   15      0.97      0.00
  -10   10   15     -7.92      0.00
   -9   10   15      1.79      0.00
   -8   10   15     -6.45      0.00
   -7   10   15      2.81      0.00
   -6   10   15     -1.80      0.00
   -5   10   15      1.62      0.00
   -4   10   15     -2.15      0.00
   -3   10   15      5.58      0.00
   -2   10   15     -3.40      0.00
   -1   10   15     -5.07      0.00
    0   10   15     -2.46      0.00
    1   10   15      0.15      0.00
    2   10   15      0.63      0.00
    3   10   15     -1.48      0.00
  -21   11   15     -0.64      0.00
  -20   11   15      0.73      0.00
  -19   11   15      3.11      0.00
  -18   11   15     -2.39      0.00
  -17   11   15     -0.96      0.00
  -16   11   15     -0.61      0.00
  -15   11   15      3.48      0.00
  -14   11   15     -2.33      0.00
  -13   11   15      1.85      0.00
  -12   11   15      0.02      0.00
  -11   11   15      5.20      0.00
  -10   11   15     -5.17      0.00
   -9   11   15      2.98      0.00
   -8   11   15     -6.72      0.00
   -7   11   15      0.86      0.00
   -6   11   15     -2.43      0.00
   -5   11   15      0.65      0.00
   -4   11   15     -5.59      0.00
   -3   11   15      3.57      0.00
   -2   11   15     -3.59      0.00
   -1   11   15      0.79      0.00
    0   11   15     -1.15      0.00
    1   11   15     -3.45      0.00
    2   11   15     -0.89      0.00
  -21   12   15     -1.99      0.00
  -20   12   15     -2.07      0.00
  -19   12   15     -2.23      0.00
  -18   12   15     -1.04      0.00
  -17   12   15      0.30      0.00
  -16   12   15      2.74      0.00
  -15   12   15      1.52      0.00
  -14   12   15      2.02      0.00
  -13   12   15      0.76      0.00
  -12   12   15     -4.64      0.00
  -11   12   15      2.58      0.00
  -10   12   15     -6.52      0.00
   -9   12   15      4.90      0.00
   -8   12   15     -4.11      0.00
   -7   12   15      1.30      0.00
   -6   12   15     -0.46      0.00
   -5   12   15      2.19      0.00
   -4   12   15     -0.75      0.00
   -3   12   15     -0.86      0.00
   -2   12   15     -4.20      0.00
   -1   12   15     -5.17      0.00
    0   12   15     -0.44      0.00
    1   12   15     -0.30      0.00
  -21   13   15     -1.83      0.00
  -20   13   15      3.13      0.00
  -19   13   15     -0.30      0.00
  -18   13   15     -2.80      0.00
  -17   13   15      1.83      0.00
  -16   13   15     -0.31      0.00
  -15   13   15     -0.95      0.00
  -14   13   15     -1.25      0.00
  -13   13   15      1.99      0.00
  -12   13   15     -2.89      0.00
  -11   13   15      4.10      0.00
  -10   13   15     -3.12      0.00
   -9   13   15      2.96      0.00
   -8   13   15     -2.28      0.00
   -7   13   15      0.53      0.00
   -6   13   15     -4.40      0.00
   -5   13   15      0.54      0.00
   -4   13   15     -4.12      0.00
   -3   13   15      1.63      0.00
   -2   13   15     -0.68      0.00
   -1   13   15     -1.25      0.00
    0   13   15      1.83      0.00
  -20   14   15     -1.70      0.00
  -19   14   15     -0.52      0.00
  -18   14   15      5.64      0.00
  -17   14   15     -1.60      0.00
  -16   14   15      1.06      0.00
  -15   14   15     -0.18      0.00
  -14   14   15      0.32      0.00
  -13   14   15      3.38      0.00
  -12   14   15     -1.36      0.00
  -11   14   15      0.55      0.00
  -10   14   15     -6.15      0.00
   -9   14   15      0.59      0.00
   -8   14   15     -2.02      0.00
   -7   14   15      3.49      0.00
   -6   14   15      0.37      0.00
   -5   14   15     -0.16      0.00
   -4   14   15     -2.66      0.00
   -3   14   15     -1.28      0.00
   -2   14   15     -0.16      0.00
   -1   14   15     -3.18      0.00
  -19   15   15     -1.55      0.00
  -18   15   15     -2.60      0.00
  -17   15   15      1.37      0.00
  -16   15   15     -1.31      0.00
  -15   15   15      0.43      0.00
  -14   15   15      0.12      0.00
  -13   15   15      0.26      0.00
  -12   15   15     -0.54      0.00
  -11   15   15      0.79      0.00
  -10   15   15     -1.50      0.00
   -9   15   15      0.37      0.00
   -8   15   15     -2.92      0.00
   -7   15   15      1.22      0.00
   -6   15   15      0.19      0.00
   -5   15   15      0.88      0.00
   -4   15   15     -2.60      0.00
   -3   15   15      1.38      0.00
   -2   15   15      1.97      0.00
  -19   16   15      0.18      0.00
  -18   16   15      4.61      0.00
  -17   16   15     -1.17      0.00
  -16   16   15     -2.35      0.00
  -15   16   15      1.16      0.00
  -14   16   15     -0.31      0.00
  -13   16   15      3.91      0.00
  -12   16   15      1.30      0.00
  -11   16   15     -2.53      0.00
  -10   16   15     -5.72      0.00
   -9   16   15     -0.47      0.00
   -8   16   15      1.75      0.00
   -7   16   15      2.24      0.00
   -6   16   15      0.15      0.00
   -5   16   15     -0.01      0.00
   -4   16   15      1.53      0.00
  -18   17   15      0.25      0.00
  -17   17   15     -2.02      0.00
  -16   17   15     -2.17      0.00
  -15   17   15      0.45      0.00
  -14   17   15      0.20      0.00
  -13   17   15     -2.03      0.00
  -12   17   15     -2.33      0.00
  -11   17   15      1.47      0.00
  -10   17   15     -3.09      0.00
   -9   17   15      1.27      0.00
   -8   17   15     -0.21      0.00
   -7   17   15      1.96      0.00
   -6   17   15     -0.44      0.00
  -16   18   15      0.30      0.00
  -15   18   15      4.24      0.00
  -14   18   15     -0.38      0.00
  -13   18   15     -5.04      0.00
  -12   18   15     -0.75      0.00
  -11   18   15      0.88      0.00
  -10   18   15      1.54      0.00
   -9   18   15      1.58      0.00
   -8   18   15     -0.23      0.00
    2  -18   16      4.98      0.00
    3  -18   16      2.35      0.00
    4  -18   16     -1.20      0.00
    5  -18   16     -0.58      0.00
   -2  -17   16      1.60      0.00
   -1  -17   16     -5.59      0.00
    0  -17   16     -2.50      0.00
    1  -17   16     -4.66      0.00
    2  -17   16      1.55      0.00
    3  -17   16      6.17      0.00
    4  -17   16      0.68      0.00
    5  -17   16      3.84      0.00
    6  -17   16     -0.83      0.00
    7  -17   16     -4.22      0.00
    8  -17   16     -1.64      0.00
   -4  -16   16     -4.33      0.00
   -3  -16   16     -1.26      0.00
   -2  -16   16      6.77      0.00
   -1  -16   16     -0.29      0.00
    0  -16   16      5.98      0.00
    1  -16   16      2.21      0.00
    2  -16   16      3.19      0.00
    3  -16   16     -1.23      0.00
    4  -16   16     -3.05      0.00
    5  -16   16     -0.27      0.00
    6  -16   16      3.39      0.00
    7  -16   16      0.89      0.00
    8  -16   16      0.23      0.00
    9  -16   16     -0.96      0.00
   -6  -15   16     -1.90      0.00
   -5  -15   16     -2.52      0.00
   -4  -15   16      7.91      0.00
   -3  -15   16     -5.53      0.00
   -2  -15   16     -0.18      0.00
   -1  -15   16     -6.99      0.00
    0  -15   16     -2.67      0.00
    1  -15   16     -4.09      0.00
    2  -15   16      0.86      0.00
    3  -15   16      1.94      0.00
    4  -15   16      0.84      0.00
    5  -15   16      0.41      0.00
    6  -15   16     -1.99      0.00
    7  -15   16      1.42      0.00
    8  -15   16      0.26      0.00
    9  -15   16     -1.88      0.00
   -7  -14   16      3.09      0.00
   -6  -14   16     -2.58      0.00
   -5  -14   16     -5.90      0.00
   -4  -14   16      2.44      0.00
   -3  -14   16      4.49      0.00
   -2  -14   16      6.69      0.00
   -1  -14   16     -2.21      0.00
    0  -14   16      6.39      0.00
    1  -14   16     -2.83      0.00
    2  -14   16      1.99      0.00
    3  -14   16      0.95      0.00
    4  -14   16      1.60      0.00
    5  -14   16     -2.64      0.00
    6  -14   16      2.46      0.00
    7  -14   16     -2.02      0.00
    8  -14   16      0.17      0.00
    9  -14   16      0.06      0.00
   10  -14   16      2.55      0.00
   -9  -13   16     -3.10      0.00
   -8  -13   16     -4.55      0.00
   -7  -13   16     -4.25      0.00
   -6  -13   16      2.19      0.00
   -5  -13   16     -4.29      0.00
   -4  -13   16      3.31      0.00
   -3  -13   16     -1.33      0.00
   -2  -13   16     -3.25      0.00
   -1  -13   16    -13.91      0.00
    0  -13   16     -0.43      0.00
    1  -13   16     -5.36      0.00
    2  -13   16      4.99      0.00
    3  -13   16      1.38      0.00
    4  -13   16      0.79      0.00
    5  -13   16     -2.00      0.00
    6  -13   16      2.68      0.00
    7  -13   16      0.85      0.00
    8  -13   16      2.40      0.00
    9  -13   16     -3.86      0.00
   10  -13   16     -0.60      0.00
   11  -13   16     -2.78      0.00
  -10  -12   16      3.27      0.00
   -9  -12   16      0.17      0.00
   -8  -12   16      0.48      0.00
   -7  -12   16     -0.61      0.00
   -6  -12   16     -1.82      0.00
   -5  -12   16     -4.02      0.00
   -4  -12   16      4.04      0.00
   -3  -12   16      3.50      0.00
   -2  -12   16     -1.78      0.00
   -1  -12   16      0.11      0.00
    0  -12   16      6.62      0.00
    1  -12   16     -2.31      0.00
    2  -12   16      1.41      0.00
    3  -12   16      0.32      0.00
    4  -12   16      7.04      0.00
    5  -12   16     -6.30      0.00
    6  -12   16      1.70      0.00
    7  -12   16     -1.97      0.00
    8  -12   16     -0.37      0.00
    9  -12   16      1.75      0.00
   10  -12   16      2.28      0.00
   11  -12   16     -2.42      0.00
  -11  -11   16     -0.37      0.00
  -10  -11   16     -2.78      0.00
   -9  -11   16     -4.69      0.00
   -8  -11   16     -3.73      0.00
   -7  -11   16     -4.11      0.00
   -6  -11   16      5.07      0.00
   -5  -11   16     -4.79      0.00
   -4  -11   16     -1.01      0.00
   -3  -11   16     -6.54      0.00
   -2  -11   16     -4.31      0.00
   -1  -11   16     -8.99      0.00
    0  -11   16      3.92      0.00
    1  -11   16      1.05      0.00
    2  -11   16      1.99      0.00
    3  -11   16     -3.06      0.00
    4  -11   16      3.68      0.00
    5  -11   16     -3.46      0.00
    6  -11   16      2.43      0.00
    7  -11   16     -2.12      0.00
    8  -11   16      1.08      0.00
    9  -11   16     -1.32      0.00
   10  -11   16      4.96      0.00
   11  -11   16     -1.46      0.00
  -11  -10   16      0.29      0.00
  -10  -10   16      5.23      0.00
   -9  -10   16      2.01      0.00
   -8  -10   16     -0.68      0.00
   -7  -10   16     -0.92      0.00
   -6  -10   16     -5.56      0.00
   -5  -10   16      4.69      0.00
   -4  -10   16      0.91      0.00
   -3  -10   16      3.91      0.00
   -2  -10   16      1.38      0.00
   -1  -10   16     -5.41      0.00
    0  -10   16      6.20      0.00
    1  -10   16     -0.24      0.00
    2  -10   16      2.39      0.00
    3  -10   16     -3.91      0.00
    4  -10   16      3.96      0.00
    5  -10   16     -4.02      0.00
    6  -10   16     -2.44      0.00
    7  -10   16     -0.91      0.00
    8  -10   16      0.48      0.00
    9  -10   16     -1.84      0.00
   10  -10   16      0.08      0.00
   11  -10   16     -0.49      0.00
  -13   -9   16      0.69      0.00
  -12   -9   16      0.80      0.00
  -11   -9   16     -4.68      0.00
  -10   -9   16      3.91      0.00
   -9   -9   16     -1.09      0.00
   -8   -9   16     -5.05      0.00
   -7   -9   16     -6.92      0.00
   -6   -9   16     -1.40      0.00
   -5   -9   16     -0.41      0.00
   -4   -9   16     -6.54      0.00
   -3   -9   16     -1.28      0.00
   -2   -9   16      0.92      0.00
   -1   -9   16     -2.81      0.00
    0   -9   16      0.46      0.00
    1   -9   16      0.86      0.00
    2   -9   16     -4.19      0.00
    3   -9   16     -3.22      0.00
    4   -9   16      7.10      0.00
    5   -9   16     -0.59      0.00
    6   -9   16      2.35      0.00
    7   -9   16     -0.56      0.00
    8   -9   16      0.21      0.00
    9   -9   16      1.38      0.00
   10   -9   16      5.30      0.00
   11   -9   16     -1.01      0.00
  -13   -8   16     -0.05      0.00
  -12   -8   16      6.87      0.00
  -11   -8   16     -1.63      0.00
  -10   -8   16     -1.73      0.00
   -9   -8   16      4.49      0.00
   -8   -8   16     -7.33      0.00
   -7   -8   16      3.82      0.00
   -6   -8   16      1.51      0.00
   -5   -8   16      7.96      0.00
   -4   -8   16      2.37      0.00
   -3   -8   16      4.65      0.00
   -2   -8   16      0.20      0.00
   -1   -8   16     -4.97      0.00
    0   -8   16      2.83      0.00
    1   -8   16     -0.79      0.00
    2   -8   16      0.77      0.00
    3   -8   16     -5.12      0.00
    4   -8   16     -2.76      0.00
    5   -8   16     -2.85      0.00
    6   -8   16     -0.77      0.00
    7   -8   16      2.43      0.00
    8   -8   16     -3.39      0.00
    9   -8   16     -1.86      0.00
   10   -8   16      3.84      0.00
   11   -8   16      1.51      0.00
  -14   -7   16      0.39      0.00
  -13   -7   16     -0.85      0.00
  -12   -7   16     -0.74      0.00
  -11   -7   16      1.53      0.00
  -10   -7   16      1.07      0.00
   -9   -7   16     -7.40      0.00
   -8   -7   16     -2.97      0.00
   -7   -7   16      1.10      0.00
   -6   -7   16     -7.46      0.00
   -5   -7   16      1.74      0.00
   -4   -7   16     -4.80      0.00
   -3   -7   16     -0.07      0.00
   -2   -7   16     -1.86      0.00
   -1   -7   16     -3.10      0.00
    0   -7   16     -2.56      0.00
    1   -7   16      0.46      0.00
    2   -7   16     -1.67      0.00
    3   -7   16      1.09      0.00
    4   -7   16      4.00      0.00
    5   -7   16     -1.31      0.00
    6   -7   16     -1.34      0.00
    7   -7   16      3.91      0.00
    8   -7   16      4.42      0.00
    9   -7   16     -1.35      0.00
   10   -7   16      1.77      0.00
   11   -7   16     -0.47      0.00
  -15   -6   16     -3.63      0.00
  -14   -6   16      3.02      0.00
  -13   -6   16      0.48      0.00
  -12   -6   16     -3.17      0.00
  -11   -6   16      1.53      0.00
  -10   -6   16     -6.33      0.00
   -9   -6   16      1.45      0.00
   -8   -6   16      3.60      0.00
   -7   -6   16      3.97      0.00
   -6   -6   16      1.69      0.00
   -5   -6   16      7.02      0.00
   -4   -6   16     -0.39      0.00
   -3   -6   16     -3.14      0.00
   -2   -6   16      3.10      0.00
   -1   -6   16     -3.04      0.00
    0   -6   16     -4.32      0.00
    1   -6   16     -0.95      0.00
    2   -6   16     -0.96      0.00
    3   -6   16     -1.53      0.00
    4   -6   16     -3.41      0.00
    5   -6   16      0.13      0.00
    6   -6   16     -4.72      0.00
    7   -6   16      0.18      0.00
    8   -6   16      2.69      0.00
    9   -6   16      2.20      0.00
   10   -6   16      1.54      0.00
   11   -6   16     -2.92      0.00
  -16   -5   16     -4.22      0.00
  -15   -5   16      3.97      0.00
  -14   -5   16      1.25      0.00
  -13   -5   16      1.70      0.00
  -12   -5   16      0.55      0.00
  -11   -5   16     -2.25      0.00
  -10   -5   16      1.64      0.00
   -9   -5   16      1.22      0.00
   -8   -5   16     -1.82      0.00
   -7   -5   16     -3.27      0.00
   -6   -5   16      0.89      0.00
   -5   -5   16      3.28      0.00
   -4   -5   16     -5.15      0.00
   -3   -5   16     -6.30      0.00
   -2   -5   16     -2.71      0.00
   -1   -5   16     -1.68      0.00
    0   -5   16     -1.43      0.00
    1   -5   16     -2.77      0.00
    2   -5   16      1.91      0.00
    3   -5   16      2.34      0.00
    4   -5   16      0.76      0.00
    5   -5   16      6.93      0.00
    6   -5   16      0.71      0.00
    7   -5   16     -2.47      0.00
    8   -5   16      1.90      0.00
    9   -5   16     -1.00      0.00
   10   -5   16     -0.56      0.00
   11   -5   16     -0.92      0.00
  -16   -4   16      0.57      0.00
  -15   -4   16      0.99      0.00
  -14   -4   16     -3.91      0.00
  -13   -4   16     -3.31      0.00
  -12   -4   16      2.41      0.00
  -11   -4   16      0.29      0.00
  -10   -4   16     -1.97      0.00
   -9   -4   16     -0.57      0.00
   -8   -4   16      6.38      0.00
   -7   -4   16      0.27      0.00
   -6   -4   16     -0.46      0.00
   -5   -4   16     -6.40      0.00
   -4   -4   16      7.39      0.00
   -3   -4   16     -5.40      0.00
   -2   -4   16      4.99      0.00
   -1   -4   16     -9.76      0.00
    0   -4   16     -4.82      0.00
    1   -4   16      2.94      0.00
    2   -4   16     -3.06      0.00
    3   -4   16     -6.66      0.00
    4   -4   16     -0.50      0.00
    5   -4   16      2.62      0.00
    6   -4   16     -3.75      0.00
    7   -4   16      3.36      0.00
    8   -4   16      1.33      0.00
    9   -4   16      1.85      0.00
   10   -4   16     -0.55      0.00
   11   -4   16     -2.48      0.00
  -17   -3   16      1.49      0.00
  -16   -3   16      4.30      0.00
  -15   -3   16      1.07      0.00
  -14   -3   16     -0.20      0.00
  -13   -3   16      1.19      0.00
  -12   -3   16      6.21      0.00
  -11   -3   16     -3.46      0.00
  -10   -3   16      2.06      0.00
   -9   -3   16     -0.58      0.00
   -8   -3   16      4.80      0.00
   -7   -3   16     -6.62      0.00
   -6   -3   16      3.80      0.00
   -5   -3   16     -1.19      0.00
   -4   -3   16     -2.49      0.00
   -3   -3   16    -10.56      0.00
   -2   -3   16      7.04      0.00
   -1   -3   16      3.08      0.00
    0   -3   16      3.14      0.00
    1   -3   16     -2.87      0.00
    2   -3   16      5.10      0.00
    3   -3   16      4.92      0.00
    4   -3   16      1.65      0.00
    5   -3   16      3.31      0.00
    6   -3   16     -0.59      0.00
    7   -3   16      0.97      0.00
    8   -3   16      1.37      0.00
    9   -3   16     -1.09      0.00
   10   -3   16     -1.87      0.00
  -17   -2   16      3.06      0.00
  -16   -2   16     -0.09      0.00
  -15   -2   16     -4.52      0.00
  -14   -2   16      5.54      0.00
  -13   -2   16     -2.31      0.00
  -12   -2   16     -0.87      0.00
  -11   -2   16      5.06      0.00
  -10   -2   16      7.05      0.00
   -9   -2   16     -5.95      0.00
   -8   -2   16      6.44      0.00
   -7   -2   16     -6.91      0.00
   -6   -2   16      0.01      0.00
   -5   -2   16     -4.85      0.00
   -4   -2   16      9.28      0.00
   -3   -2   16    -17.05      0.00
   -2   -2   16      4.10      0.00
   -1   -2   16      0.43      0.00
    0   -2   16      4.66      0.00
    1   -2   16     -7.06      0.00
    2   -2   16     -3.13      0.00
    3   -2   16     -5.63      0.00
    4   -2   16      0.23      0.00
    5   -2   16      4.28      0.00
    6   -2   16     -3.98      0.00
    7   -2   16      1.22      0.00
    8   -2   16     -2.57      0.00
    9   -2   16      3.10      0.00
   10   -2   16     -0.65      0.00
  -18   -1   16      1.05      0.00
  -17   -1   16     -2.86      0.00
  -16   -1   16      3.97      0.00
  -15   -1   16      2.61      0.00
  -14   -1   16      6.36      0.00
  -13   -1   16     -0.40      0.00
  -12   -1   16     -1.31      0.00
  -11   -1   16     -6.90      0.00
  -10   -1   16      4.95      0.00
   -9   -1   16     -3.70      0.00
   -8   -1   16      5.18      0.00
   -7   -1   16     -0.23      0.00
   -6   -1   16      1.24      0.00
   -5   -1   16    -11.67      0.00
   -4   -1   16      8.64      0.00
   -3   -1   16     -0.75      0.00
   -2   -1   16     11.28      0.00
   -1   -1   16     -2.47      0.00
    0   -1   16      1.86      0.00
    1   -1   16     -0.18      0.00
    2   -1   16     12.56      0.00
    3   -1   16      0.15      0.00
    4   -1   16     -2.07      0.00
    5   -1   16      5.47      0.00
    6   -1   16      1.09      0.00
    7   -1   16      0.10      0.00
    8   -1   16     -0.72      0.00
    9   -1   16      0.33      0.00
   10   -1   16      0.03      0.00
  -18    0   16     -1.59      0.00
  -17    0   16      1.70      0.00
  -16    0   16     -0.17      0.00
  -15    0   16     -4.96      0.00
  -14    0   16      1.00      0.00
  -13    0   16      3.65      0.00
  -12    0   16      2.96      0.00
  -11    0   16      2.10      0.00
  -10    0   16      5.03      0.00
   -9    0   16     -2.70      0.00
   -8    0   16      1.51      0.00
   -7    0   16     -6.17      0.00
   -6    0   16      2.29      0.00
   -5    0   16     -3.61      0.00
   -4    0   16      7.07      0.00
   -3    0   16     -5.96      0.00
   -2    0   16      5.44      0.00
   -1    0   16      3.58      0.00
    0    0   16     -1.62      0.00
    1    0   16    -14.64      0.00
    2    0   16      0.61      0.00
    3    0   16      1.61      0.00
    4    0   16     -1.47      0.00
    5    0   16      2.22      0.00
    6    0   16     -4.34      0.00
    7    0   16     -1.49      0.00
    8    0   16     -0.61      0.00
    9    0   16      1.91      0.00
  -19    1   16      0.89      0.00
  -18    1   16     -2.23      0.00
  -17    1   16      1.24      0.00
  -16    1   16      4.18      0.00
  -15    1   16      4.39      0.00
  -14    1   16      0.54      0.00
  -13    1   16     -0.28      0.00
  -12    1   16     -4.54      0.00
  -11    1   16     -3.55      0.00
  -10    1   16      2.85      0.00
   -9    1   16     -1.95      0.00
   -8    1   16     -4.85      0.00
   -7    1   16      1.87      0.00
   -6    1   16      0.26      0.00
   -5    1   16     -0.61      0.00
   -4    1   16      9.32      0.00
   -3    1   16      3.36      0.00
   -2    1   16      1.34      0.00
   -1    1   16     -0.01      0.00
    0    1   16      3.90      0.00
    1    1   16     -1.78      0.00
    2    1   16      2.93      0.00
    3    1   16     -2.24      0.00
    4    1   16      1.11      0.00
    5    1   16      5.44      0.00
    6    1   16      0.86      0.00
    7    1   16     -0.94      0.00
    8    1   16     -0.11      0.00
    9    1   16     -0.48      0.00
  -20    2   16     -0.18      0.00
  -19    2   16      2.33      0.00
  -18    2   16     -2.10      0.00
  -17    2   16      4.20      0.00
  -16    2   16     -0.34      0.00
  -15    2   16     -1.74      0.00
  -14    2   16     -1.89      0.00
  -13    2   16      3.49      0.00
  -12    2   16      5.09      0.00
  -11    2   16      6.01      0.00
  -10    2   16      1.55      0.00
   -9    2   16      5.55      0.00
   -8    2   16     -0.69      0.00
   -7    2   16     -2.49      0.00
   -6    2   16     -2.20      0.00
   -5    2   16     -0.58      0.00
   -4    2   16      2.13      0.00
   -3    2   16      6.72      0.00
   -2    2   16     -7.88      0.00
   -1    2   16     -0.35      0.00
    0    2   16     -3.65      0.00
    1    2   16     -1.48      0.00
    2    2   16     -0.15      0.00
    3    2   16      4.84      0.00
    4    2   16     -7.51      0.00
    5    2   16     -0.10      0.00
    6    2   16      0.48      0.00
    7    2   16     -0.36      0.00
    8    2   16     -2.72      0.00
  -20    3   16     -1.62      0.00
  -19    3   16      0.73      0.00
  -18    3   16      1.46      0.00
  -17    3   16      1.15      0.00
  -16    3   16      0.31      0.00
  -15    3   16     -0.14      0.00
  -14    3   16     -1.88      0.00
  -13    3   16      5.71      0.00
  -12    3   16     -3.07      0.00
  -11    3   16      1.75      0.00
  -10    3   16     -5.24      0.00
   -9    3   16      0.22      0.00
   -8    3   16     -5.36      0.00
   -7    3   16     15.75      0.00
   -6    3   16      0.03      0.00
   -5    3   16      3.50      0.00
   -4    3   16     -2.54      0.00
   -3    3   16      5.14      0.00
   -2    3   16     -5.10      0.00
   -1    3   16      4.35      0.00
    0    3   16      0.52      0.00
    1    3   16     -4.19      0.00
    2    3   16     -1.47      0.00
    3    3   16      5.50      0.00
    4    3   16      0.03      0.00
    5    3   16      0.26      0.00
    6    3   16      0.43      0.00
    7    3   16     -0.61      0.00
    8    3   16     -2.46      0.00
  -20    4   16      1.80      0.00
  -19    4   16     -1.61      0.00
  -18    4   16     -1.15      0.00
  -17    4   16      0.86      0.00
  -16    4   16      2.68      0.00
  -15    4   16      2.72      0.00
  -14    4   16     -0.54      0.00
  -13    4   16      0.67      0.00
  -12    4   16      2.49      0.00
  -11    4   16      0.84      0.00
  -10    4   16      3.28      0.00
   -9    4   16      8.36      0.00
   -8    4   16     -9.30      0.00
   -7    4   16     -0.39      0.00
   -6    4   16     -0.42      0.00
   -5    4   16      5.69      0.00
   -4    4   16     -6.60      0.00
   -3    4   16      6.53      0.00
   -2    4   16    -11.04      0.00
   -1    4   16      4.54      0.00
    0    4   16      0.09      0.00
    1    4   16      3.97      0.00
    2    4   16     -3.90      0.00
    3    4   16      2.45      0.00
    4    4   16     -3.01      0.00
    5    4   16      1.05      0.00
    6    4   16     -0.45      0.00
    7    4   16     -0.23      0.00
  -20    5   16      0.17      0.00
  -19    5   16     -0.47      0.00
  -18    5   16      2.08      0.00
  -17    5   16      0.46      0.00
  -16    5   16      1.10      0.00
  -15    5   16      2.01      0.00
  -14    5   16      1.73      0.00
  -13    5   16      8.47      0.00
  -12    5   16      3.63      0.00
  -11    5   16      0.87      0.00
  -10    5   16     -1.06      0.00
   -9    5   16      4.23      0.00
   -8    5   16     -2.60      0.00
   -7    5   16      5.69      0.00
   -6    5   16     -5.57      0.00
   -5    5   16      2.14      0.00
   -4    5   16     -2.59      0.00
   -3    5   16      6.98      0.00
   -2    5   16     -5.60      0.00
   -1    5   16     -0.48      0.00
    0    5   16     -3.58      0.00
    1    5   16      4.08      0.00
    2    5   16     -2.11      0.00
    3    5   16      2.50      0.00
    4    5   16     -1.32      0.00
    5    5   16     -2.00      0.00
    6    5   16      1.15      0.00
  -21    6   16     -2.92      0.00
  -20    6   16      0.96      0.00
  -19    6   16     -2.41      0.00
  -18    6   16      5.17      0.00
  -17    6   16     -0.92      0.00
  -16    6   16      3.46      0.00
  -15    6   16     -2.40      0.00
  -14    6   16     -2.69      0.00
  -13    6   16     -3.27      0.00
  -12    6   16      5.31      0.00
  -11    6   16     -1.33      0.00
  -10    6   16      3.24      0.00
   -9    6   16      3.47      0.00
   -8    6   16     -2.54      0.00
   -7    6   16      2.10      0.00
   -6    6   16      0.90      0.00
   -5    6   16     -2.60      0.00
   -4    6   16    -11.43      0.00
   -3    6   16      5.20      0.00
   -2    6   16      4.07      0.00
   -1    6   16      4.11      0.00
    0    6   16     -1.21      0.00
    1    6   16      2.98      0.00
    2    6   16     -2.35      0.00
    3    6   16      3.72      0.00
    4    6   16      0.56      0.00
    5    6   16     -3.27      0.00
    6    6   16     -2.50      0.00
  -21    7   16     -1.51      0.00
  -20    7   16      0.37      0.00
  -19    7   16     -1.08      0.00
  -18    7   16      3.63      0.00
  -17    7   16      1.39      0.00
  -16    7   16      2.30      0.00
  -15    7   16      4.27      0.00
  -14    7   16      2.43      0.00
  -13    7   16     -4.05      0.00
  -12    7   16      9.97      0.00
  -11    7   16     -0.73      0.00
  -10    7   16      3.12      0.00
   -9    7   16     -1.62      0.00
   -8    7   16     -0.37      0.00
   -7    7   16     -9.57      0.00
   -6    7   16      4.91      0.00
   -5    7   16      8.60      0.00
   -4    7   16     -1.43      0.00
   -3    7   16      1.19      0.00
   -2    7   16     -3.07      0.00
   -1    7   16      2.17      0.00
    0    7   16     -1.57      0.00
    1    7   16     -0.30      0.00
    2    7   16     -4.64      0.00
    3    7   16      3.61      0.00
    4    7   16      0.99      0.00
    5    7   16     -3.08      0.00
  -21    8   16     -3.38      0.00
  -20    8   16     -1.13      0.00
  -19    8   16     -0.57      0.00
  -18    8   16      5.07      0.00
  -17    8   16      1.45      0.00
  -16    8   16     -0.66      0.00
  -15    8   16     -3.91      0.00
  -14    8   16      2.93      0.00
  -13    8   16      0.72      0.00
  -12    8   16      5.78      0.00
  -11    8   16     -3.49      0.00
  -10    8   16      1.12      0.00
   -9    8   16     -1.63      0.00
   -8    8   16      6.75      0.00
   -7    8   16     -4.17      0.00
   -6    8   16     -3.90      0.00
   -5    8   16     -3.23      0.00
   -4    8   16      2.45      0.00
   -3    8   16      7.50      0.00
   -2    8   16     -1.21      0.00
   -1    8   16      1.78      0.00
    0    8   16     -0.03      0.00
    1    8   16      3.56      0.00
    2    8   16      0.18      0.00
    3    8   16      0.95      0.00
    4    8   16     -0.76      0.00
  -21    9   16     -2.72      0.00
  -20    9   16      4.18      0.00
  -19    9   16     -0.43      0.00
  -18    9   16     -0.23      0.00
  -17    9   16     -4.30      0.00
  -16    9   16      0.60      0.00
  -15    9   16      1.78      0.00
  -14    9   16      5.12      0.00
  -13    9   16     -2.52      0.00
  -12    9   16      4.64      0.00
  -11    9   16     -0.93      0.00
  -10    9   16      5.91      0.00
   -9    9   16     -7.02      0.00
   -8    9   16     -1.71      0.00
   -7    9   16     -4.27      0.00
   -6    9   16      6.44      0.00
   -5    9   16      1.52      0.00
   -4    9   16     -3.54      0.00
   -3    9   16      4.48      0.00
   -2    9   16      0.43      0.00
   -1    9   16     -0.78      0.00
    0    9   16     -3.20      0.00
    1    9   16     -0.87      0.00
    2    9   16     -2.15      0.00
    3    9   16     -0.23      0.00
  -21   10   16      0.14      0.00
  -20   10   16     -2.55      0.00
  -19   10   16      2.91      0.00
  -18   10   16      2.73      0.00
  -17   10   16     -1.30      0.00
  -16   10   16      0.50      0.00
  -15   10   16      3.01      0.00
  -14   10   16      1.20      0.00
  -13   10   16      0.15      0.00
  -12   10   16      1.43      0.00
  -11   10   16     -3.62      0.00
  -10   10   16      2.94      0.00
   -9   10   16     -0.91      0.00
   -8   10   16      6.78      0.00
   -7   10   16     -2.12      0.00
   -6   10   16      1.26      0.00
   -5   10   16      4.97      0.00
   -4   10   16     -3.20      0.00
   -3   10   16      2.70      0.00
   -2   10   16     -5.16      0.00
   -1   10   16      1.68      0.00
    0   10   16      3.57      0.00
    1   10   16      4.91      0.00
    2   10   16     -4.09      0.00
  -21   11   16     -1.58      0.00
  -20   11   16      1.82      0.00
  -19   11   16     -0.98      0.00
  -18   11   16     -0.87      0.00
  -17   11   16      0.95      0.00
  -16   11   16      0.32      0.00
  -15   11   16     -2.30      0.00
  -14   11   16      0.87      0.00
  -13   11   16      1.01      0.00
  -12   11   16      2.14      0.00
  -11   11   16     -1.46      0.00
  -10   11   16     -3.67      0.00
   -9   11   16     -2.75      0.00
   -8   11   16     -0.32      0.00
   -7   11   16     -0.77      0.00
   -6   11   16      0.22      0.00
   -5   11   16      0.85      0.00
   -4   11   16      0.26      0.00
   -3   11   16     -0.17      0.00
   -2   11   16     -0.43      0.00
   -1   11   16     -3.58      0.00
    0   11   16     -2.63      0.00
    1   11   16      3.57      0.00
  -20   12   16     -0.50      0.00
  -19   12   16      1.34      0.00
  -18   12   16      2.63      0.00
  -17   12   16      2.38      0.00
  -16   12   16      1.10      0.00
  -15   12   16      1.77      0.00
  -14   12   16      1.99      0.00
  -13   12   16      0.73      0.00
  -12   12   16     -0.62      0.00
  -11   12   16      0.93      0.00
  -10   12   16      0.73      0.00
   -9   12   16      0.20      0.00
   -8   12   16      0.41      0.00
   -7   12   16      2.62      0.00
   -6   12   16     -0.85      0.00
   -5   12   16      4.98      0.00
   -4   12   16     -5.48      0.00
   -3   12   16     -2.81      0.00
   -2   12   16      0.57      0.00
   -1   12   16      0.84      0.00
    0   12   16      1.49      0.00
  -20   13   16     -1.75      0.00
  -19   13   16     -2.20      0.00
  -18   13   16      3.50      0.00
  -17   13   16     -0.87      0.00
  -16   13   16     -1.81      0.00
  -15   13   16     -1.49      0.00
  -14   13   16      1.04      0.00
  -13   13   16      0.29      0.00
  -12   13   16     -0.30      0.00
  -11   13   16      2.07      0.00
  -10   13   16     -4.52      0.00
   -9   13   16     -0.81      0.00
   -8   13   16      0.17      0.00
   -7   13   16     -1.85      0.00
   -6   13   16     -0.95      0.00
   -5   13   16      1.05      0.00
   -4   13   16      0.49      0.00
   -3   13   16      1.21      0.00
   -2   13   16      0.96      0.00
   -1   13   16     -0.76      0.00
  -20   14   16      2.77      0.00
  -19   14   16     -0.40      0.00
  -18   14   16     -2.31      0.00
  -17   14   16     -2.72      0.00
  -16   14   16      1.41      0.00
  -15   14   16      2.50      0.00
  -14   14   16      2.44      0.00
  -13   14   16      0.35      0.00
  -12   14   16     -3.45      0.00
  -11   14   16      0.32      0.00
  -10   14   16     -1.11      0.00
   -9   14   16      1.62      0.00
   -8   14   16      3.67      0.00
   -7   14   16      4.45      0.00
   -6   14   16     -1.73      0.00
   -5   14   16      0.05      0.00
   -4   14   16     -1.46      0.00
   -3   14   16      0.08      0.00
   -2   14   16      1.89      0.00
  -19   15   16     -1.47      0.00
  -18   15   16      5.92      0.00
  -17   15   16      0.53      0.00
  -16   15   16     -0.14      0.00
  -15   15   16      1.78      0.00
  -14   15   16     -2.25      0.00
  -13   15   16      0.63      0.00
  -12   15   16     -1.62      0.00
  -11   15   16      0.62      0.00
  -10   15   16     -0.08      0.00
   -9   15   16     -2.52      0.00
   -8   15   16      2.58      0.00
   -7   15   16      2.88      0.00
   -6   15   16      1.03      0.00
   -5   15   16     -1.17      0.00
   -4   15   16      0.74      0.00
  -18   16   16     -1.38      0.00
  -17   16   16     -2.52      0.00
  -16   16   16      0.51      0.00
  -15   16   16      1.45      0.00
  -14   16   16      1.45      0.00
  -13   16   16      1.82      0.00
  -12   16   16     -5.03      0.00
  -11   16   16      0.45      0.00
  -10   16   16      2.04      0.00
   -9   16   16      6.00      0.00
   -8   16   16     -0.32      0.00
   -7   16   16      2.75      0.00
   -6   16   16      0.68      0.00
   -5   16   16      1.92      0.00
  -17   17   16      1.75      0.00
  -16   17   16      0.46      0.00
  -15   17   16      1.51      0.00
  -14   17   16      0.61      0.00
  -13   17   16     -1.87      0.00
  -12   17   16      2.44      0.00
  -11   17   16     -0.49      0.00
  -10   17   16      2.38      0.00
   -9   17   16      2.21      0.00
   -8   17   16      1.67      0.00
   -7   17   16     -1.16      0.00
  -14   18   16     -3.85      0.00
  -13   18   16      1.94      0.00
  -12   18   16      2.04      0.00
  -11   18   16      5.30      0.00
  -10   18   16     -0.75      0.00
   -1  -17   17     -1.45      0.00
    1  -17   17      5.04      0.00
    2  -17   17      3.00      0.00
    3  -17   17      0.89      0.00
    4  -17   17     -2.17      0.00
    5  -17   17     -3.70      0.00
    6  -17   17     -3.45      0.00
   -4  -16   17      4.38      0.00
   -3  -16   17      6.51      0.00
   -2  -16   17      0.32      0.00
   -1  -16   17     -1.36      0.00
    0  -16   17     -0.06      0.00
    1  -16   17      1.11      0.00
    2  -16   17     -4.18      0.00
    3  -16   17      4.58      0.00
    4  -16   17      0.88      0.00
    5  -16   17      2.68      0.00
    6  -16   17      0.74      0.00
    7  -16   17     -1.87      0.00
   -5  -15   17      0.86      0.00
   -4  -15   17     -4.79      0.00
   -3  -15   17     -2.10      0.00
   -2  -15   17      4.49      0.00
   -1  -15   17     -0.26      0.00
    0  -15   17      4.87      0.00
    1  -15   17      3.58      0.00
    2  -15   17     -2.92      0.00
    3  -15   17      1.43      0.00
    4  -15   17     -3.03      0.00
    5  -15   17     -3.32      0.00
    6  -15   17      0.45      0.00
    7  -15   17      2.99      0.00
    8  -15   17     -2.43      0.00
   -7  -14   17     -0.28      0.00
   -6  -14   17      2.53      0.00
   -5  -14   17      3.91      0.00
   -4  -14   17      6.74      0.00
   -3  -14   17     -1.19      0.00
   -2  -14   17     -3.80      0.00
   -1  -14   17     -4.94      0.00
    0  -14   17     -2.26      0.00
    1  -14   17      1.21      0.00
    2  -14   17      0.14      0.00
    3  -14   17      2.97      0.00
    4  -14   17      0.29      0.00
    5  -14   17     -0.19      0.00
    6  -14   17     -1.86      0.00
    7  -14   17      1.65      0.00
    8  -14   17      2.59      0.00
    9  -14   17     -0.38      0.00
   -8  -13   17      0.26      0.00
   -7  -13   17      0.15      0.00
   -6  -13   17      1.11      0.00
   -5  -13   17     -1.81      0.00
   -4  -13   17     -0.52      0.00
   -3  -13   17     -0.89      0.00
   -2  -13   17     -2.07      0.00
   -1  -13   17      3.02      0.00
    0  -13   17      6.22      0.00
    1  -13   17      5.31      0.00
    2  -13   17     -3.88      0.00
    3  -13   17     -2.09      0.00
    4  -13   17     -1.03      0.00
    5  -13   17      1.11      0.00
    6  -13   17     -0.23      0.00
    7  -13   17      1.02      0.00
    8  -13   17      0.02      0.00
    9  -13   17      0.75      0.00
   10  -13   17      0.64      0.00
  -10  -12   17     -1.41      0.00
   -9  -12   17      0.69      0.00
   -8  -12   17     -1.62      0.00
   -7  -12   17     -2.11      0.00
   -6  -12   17      6.93      0.00
   -5  -12   17      4.62      0.00
   -4  -12   17      0.78      0.00
   -3  -12   17    -10.05      0.00
   -2  -12   17     -0.47      0.00
   -1  -12   17     -4.09      0.00
    0  -12   17     -2.59      0.00
    1  -12   17      1.74      0.00
    2  -12   17     -1.24      0.00
    3  -12   17     -1.37      0.00
    4  -12   17      0.67      0.00
    5  -12   17      0.67      0.00
    6  -12   17      2.85      0.00
    7  -12   17     -0.65      0.00
    8  -12   17      3.84      0.00
    9  -12   17     -1.62      0.00
   10  -12   17      0.12      0.00
  -11  -11   17     -6.41      0.00
  -10  -11   17      2.47      0.00
   -9  -11   17      2.48      0.00
   -8  -11   17      3.96      0.00
   -7  -11   17     -1.10      0.00
   -6  -11   17     -3.12      0.00
   -5  -11   17     -0.84      0.00
   -4  -11   17     -3.01      0.00
   -3  -11   17     -0.14      0.00
   -2  -11   17      5.83      0.00
   -1  -11   17      1.48      0.00
    0  -11   17      5.37      0.00
    1  -11   17      4.64      0.00
    2  -11   17     -2.59      0.00
    3  -11   17     -3.08      0.00
    4  -11   17      2.31      0.00
    5  -11   17     -0.77      0.00
    6  -11   17      1.28      0.00
    7  -11   17     -0.22      0.00
    8  -11   17      2.70      0.00
    9  -11   17     -0.81      0.00
   10  -11   17      1.13      0.00
  -12  -10   17      3.99      0.00
  -11  -10   17      0.83      0.00
  -10  -10   17      2.13      0.00
   -9  -10   17     -3.69      0.00
   -8  -10   17     -0.45      0.00
   -7  -10   17     -5.05      0.00
   -6  -10   17      6.38      0.00
   -5  -10   17      4.77      0.00
   -4  -10   17     -0.28      0.00
   -3  -10   17     -2.36      0.00
   -2  -10   17     -0.85      0.00
   -1  -10   17     -2.25      0.00
    0  -10   17     -3.76      0.00
    1  -10   17     -0.63      0.00
    2  -10   17      2.13      0.00
    3  -10   17     -6.53      0.00
    4  -10   17      7.13      0.00
    5  -10   17     -1.03      0.00
    6  -10   17      3.45      0.00
    7  -10   17      0.23      0.00
    8  -10   17     -0.06      0.00
    9  -10   17     -3.80      0.00
   10  -10   17      3.09      0.00
  -12   -9   17      2.75      0.00
  -11   -9   17     -2.74      0.00
  -10   -9   17      1.20      0.00
   -9   -9   17     -3.21      0.00
   -8   -9   17     -1.25      0.00
   -7   -9   17     -0.50      0.00
   -6   -9   17      0.18      0.00
   -5   -9   17     -0.43      0.00
   -4   -9   17      2.75      0.00
   -3   -9   17     -0.17      0.00
   -2   -9   17      6.26      0.00
   -1   -9   17      0.25      0.00
    0   -9   17      0.23      0.00
    1   -9   17     -0.18      0.00
    2   -9   17      6.94      0.00
    3   -9   17     -0.97      0.00
    4   -9   17      3.23      0.00
    5   -9   17     -2.92      0.00
    6   -9   17      1.39      0.00
    7   -9   17     -1.63      0.00
    8   -9   17      3.30      0.00
    9   -9   17     -3.75      0.00
   10   -9   17     -0.95      0.00
  -13   -8   17      3.39      0.00
  -12   -8   17      4.32      0.00
  -11   -8   17    -10.86      0.00
  -10   -8   17      0.22      0.00
   -9   -8   17     -5.99      0.00
   -8   -8   17      1.75      0.00
   -7   -8   17      5.91      0.00
   -6   -8   17      1.45      0.00
   -5   -8   17      6.24      0.00
   -4   -8   17      1.95      0.00
   -3   -8   17     -5.69      0.00
   -2   -8   17     -0.13      0.00
   -1   -8   17      0.04      0.00
    0   -8   17     -2.13      0.00
    1   -8   17     -3.99      0.00
    2   -8   17      5.71      0.00
    3   -8   17     -7.45      0.00
    4   -8   17      5.59      0.00
    5   -8   17     -0.90      0.00
    6   -8   17      1.11      0.00
    7   -8   17     -1.97      0.00
    8   -8   17      3.67      0.00
    9   -8   17      0.89      0.00
   10   -8   17      2.82      0.00
  -14   -7   17     -2.03      0.00
  -13   -7   17     -6.09      0.00
  -12   -7   17      5.25      0.00
  -11   -7   17     -4.51      0.00
  -10   -7   17     -8.43      0.00
   -9   -7   17     -1.90      0.00
   -8   -7   17      3.88      0.00
   -7   -7   17      0.86      0.00
   -6   -7   17     -1.16      0.00
   -5   -7   17      5.31      0.00
   -4   -7   17      0.62      0.00
   -3   -7   17     -5.52      0.00
   -2   -7   17      2.24      0.00
   -1   -7   17      1.21      0.00
    0   -7   17      2.82      0.00
    1   -7   17     -0.37      0.00
    2   -7   17      8.59      0.00
    3   -7   17     -2.22      0.00
    4   -7   17     -0.04      0.00
    5   -7   17     -4.55      0.00
    6   -7   17      1.21      0.00
    7   -7   17     -0.86      0.00
    8   -7   17      0.93      0.00
    9   -7   17     -4.07      0.00
   10   -7   17      0.26      0.00
  -15   -6   17      0.23      0.00
  -14   -6   17      0.30      0.00
  -13   -6   17    -10.42      0.00
  -12   -6   17      3.28      0.00
  -11   -6   17     -4.95      0.00
  -10   -6   17     -0.35      0.00
   -9   -6   17      4.17      0.00
   -8   -6   17     -2.73      0.00
   -7   -6   17      4.82      0.00
   -6   -6   17     -0.36      0.00
   -5   -6   17      2.73      0.00
   -4   -6   17     -2.32      0.00
   -3   -6   17     -2.41      0.00
   -2   -6   17      0.25      0.00
   -1   -6   17     -2.88      0.00
    0   -6   17     -2.66      0.00
    1   -6   17     -4.43      0.00
    2   -6   17      3.42      0.00
    3   -6   17     -2.03      0.00
    4   -6   17      2.27      0.00
    5   -6   17     -2.37      0.00
    6   -6   17     -0.15      0.00
    7   -6   17      0.42      0.00
    8   -6   17      5.89      0.00
    9   -6   17     -2.36      0.00
   10   -6   17     -1.22      0.00
  -15   -5   17      1.36      0.00
  -14   -5   17      0.15      0.00
  -13   -5   17     -4.07      0.00
  -12   -5   17     -1.16      0.00
  -11   -5   17     -0.98      0.00
  -10   -5   17      3.55      0.00
   -9   -5   17      0.87      0.00
   -8   -5   17     -4.70      0.00
   -7   -5   17      7.23      0.00
   -6   -5   17     -1.29      0.00
   -5   -5   17     -0.90      0.00
   -4   -5   17     -0.99      0.00
   -3   -5   17     -3.16      0.00
   -2   -5   17      2.97      0.00
   -1   -5   17      4.46      0.00
    0   -5   17     -0.39      0.00
    1   -5   17      1.43      0.00
    2   -5   17      4.62      0.00
    3   -5   17     -2.68      0.00
    4   -5   17      1.86      0.00
    5   -5   17     -0.51      0.00
    6   -5   17     -3.38      0.00
    7   -5   17     -1.30      0.00
    8   -5   17      2.87      0.00
    9   -5   17     -2.61      0.00
   10   -5   17      1.94      0.00
  -16   -4   17     -1.46      0.00
  -15   -4   17     -4.53      0.00
  -14   -4   17     -3.74      0.00
  -13   -4   17      0.82      0.00
  -12   -4   17      0.22      0.00
  -11   -4   17     -2.99      0.00
  -10   -4   17      0.21      0.00
   -9   -4   17      5.91      0.00
   -8   -4   17     -2.10      0.00
   -7   -4   17      0.26      0.00
   -6   -4   17     -4.82      0.00
   -5   -4   17      4.93      0.00
   -4   -4   17     -0.05      0.00
   -3   -4   17     -4.09      0.00
   -2   -4   17     -9.46      0.00
   -1   -4   17      0.61      0.00
    0   -4   17      0.38      0.00
    1   -4   17     -3.29      0.00
    2   -4   17     -3.08      0.00
    3   -4   17      1.65      0.00
    4   -4   17     -3.07      0.00
    5   -4   17      1.12      0.00
    6   -4   17      4.87      0.00
    7   -4   17     -2.65      0.00
    8   -4   17      1.06      0.00
    9   -4   17     -1.78      0.00
   10   -4   17     -0.18      0.00
  -17   -3   17      4.41      0.00
  -16   -3   17     -0.29      0.00
  -15   -3   17     -0.65      0.00
  -14   -3   17      1.48      0.00
  -13   -3   17      2.71      0.00
  -12   -3   17     -1.18      0.00
  -11   -3   17      1.38      0.00
  -10   -3   17      0.32      0.00
   -9   -3   17      0.69      0.00
   -8   -3   17     -3.73      0.00
   -7   -3   17      5.12      0.00
   -6   -3   17     -1.13      0.00
   -5   -3   17     -4.16      0.00
   -4   -3   17      3.18      0.00
   -3   -3   17      3.75      0.00
   -2   -3   17      1.33      0.00
   -1   -3   17      5.35      0.00
    0   -3   17      1.24      0.00
    1   -3   17      2.20      0.00
    2   -3   17      4.30      0.00
    3   -3   17      0.87      0.00
    4   -3   17     -4.87      0.00
    5   -3   17      1.24      0.00
    6   -3   17      0.91      0.00
    7   -3   17     -0.75      0.00
    8   -3   17     -0.46      0.00
    9   -3   17     -0.12      0.00
   10   -3   17      2.42      0.00
  -17   -2   17     -2.91      0.00
  -16   -2   17     -2.51      0.00
  -15   -2   17      3.46      0.00
  -14   -2   17      3.07      0.00
  -13   -2   17     -1.19      0.00
  -12   -2   17      3.02      0.00
  -11   -2   17     -2.38      0.00
  -10   -2   17     -3.10      0.00
   -9   -2   17     -1.56      0.00
   -8   -2   17     -0.04      0.00
   -7   -2   17     -2.33      0.00
   -6   -2   17      4.33      0.00
   -5   -2   17     -2.08      0.00
   -4   -2   17     -3.30      0.00
   -3   -2   17     -1.63      0.00
   -2   -2   17     -1.95      0.00
   -1   -2   17     -0.55      0.00
    0   -2   17     -5.32      0.00
    1   -2   17     -7.09      0.00
    2   -2   17     -1.90      0.00
    3   -2   17      6.37      0.00
    4   -2   17     -4.34      0.00
    5   -2   17      0.54      0.00
    6   -2   17      1.38      0.00
    7   -2   17     -0.16      0.00
    8   -2   17      0.40      0.00
    9   -2   17      0.29      0.00
  -18   -1   17     -2.99      0.00
  -17   -1   17      4.78      0.00
  -16   -1   17      2.87      0.00
  -15   -1   17     -0.79      0.00
  -14   -1   17     -2.69      0.00
  -13   -1   17     -1.42      0.00
  -12   -1   17     -1.35      0.00
  -11   -1   17      2.50      0.00
  -10   -1   17      4.52      0.00
   -9   -1   17     -1.91      0.00
   -8   -1   17      1.91      0.00
   -7   -1   17     -4.53      0.00
   -6   -1   17     -1.82      0.00
   -5   -1   17     -2.41      0.00
   -4   -1   17     12.07      0.00
   -3   -1   17      2.50      0.00
   -2   -1   17     -1.05      0.00
   -1   -1   17     -0.23      0.00
    0   -1   17      7.74      0.00
    1   -1   17     -0.65      0.00
    2   -1   17     -2.34      0.00
    3   -1   17      2.27      0.00
    4   -1   17     -0.14      0.00
    5   -1   17      1.71      0.00
    6   -1   17      1.24      0.00
    7   -1   17      1.20      0.00
    8   -1   17     -0.98      0.00
    9   -1   17      0.06      0.00
  -18    0   17      1.22      0.00
  -17    0   17     -2.48      0.00
  -16    0   17      1.78      0.00
  -15    0   17     -0.15      0.00
  -14    0   17      6.12      0.00
  -13    0   17     -1.85      0.00
  -12    0   17     -0.94      0.00
  -11    0   17     -8.56      0.00
  -10    0   17      3.20      0.00
   -9    0   17     -3.65      0.00
   -8    0   17      2.99      0.00
   -7    0   17     -1.05      0.00
   -6    0   17     10.39      0.00
   -5    0   17     -9.92      0.00
   -4    0   17      4.25      0.00
   -3    0   17      0.78      0.00
   -2    0   17      2.32      0.00
   -1    0   17    -12.41      0.00
    0    0   17     -0.89      0.00
    1    0   17     -4.40      0.00
    2    0   17      2.05      0.00
    3    0   17      2.39      0.00
    4    0   17     -4.04      0.00
    5    0   17     -0.88      0.00
    6    0   17      0.22      0.00
    7    0   17      3.43      0.00
    8    0   17      0.11      0.00
  -19    1   17      1.24      0.00
  -18    1   17      0.11      0.00
  -17    1   17      5.10      0.00
  -16    1   17      1.83      0.00
  -15    1   17     -5.94      0.00
  -14    1   17     -6.24      0.00
  -13    1   17     -1.21      0.00
  -12    1   17      4.62      0.00
  -11    1   17     -2.00      0.00
  -10    1   17      7.68      0.00
   -9    1   17     -5.86      0.00
   -8    1   17      5.34      0.00
   -7    1   17     -5.33      0.00
   -6    1   17     10.04      0.00
   -5    1   17     -5.89      0.00
   -4    1   17      5.29      0.00
   -3    1   17     -2.98      0.00
   -2    1   17      2.13      0.00
   -1    1   17     -1.03      0.00
    0    1   17      7.80      0.00
    1    1   17     -4.97      0.00
    2    1   17     -0.74      0.00
    3    1   17      6.71      0.00
    4    1   17      3.45      0.00
    5    1   17     -2.16      0.00
    6    1   17     -0.16      0.00
    7    1   17      0.03      0.00
    8    1   17     -2.23      0.00
  -19    2   17      0.73      0.00
  -18    2   17     -0.35      0.00
  -17    2   17     -1.89      0.00
  -16    2   17      0.25      0.00
  -15    2   17      0.15      0.00
  -14    2   17      0.80      0.00
  -13    2   17      0.13      0.00
  -12    2   17      4.86      0.00
  -11    2   17     -7.24      0.00
  -10    2   17      1.51      0.00
   -9    2   17     -4.99      0.00
   -8    2   17      1.66      0.00
   -7    2   17     -5.46      0.00
   -6    2   17     10.81      0.00
   -5    2   17     -3.49      0.00
   -4    2   17      7.20      0.00
   -3    2   17     -5.03      0.00
   -2    2   17      0.54      0.00
   -1    2   17     -9.93      0.00
    0    2   17      7.64      0.00
    1    2   17     -2.45      0.00
    2    2   17      0.27      0.00
    3    2   17     -2.05      0.00
    4    2   17     -1.71      0.00
    5    2   17      0.09      0.00
    6    2   17      0.95      0.00
    7    2   17      0.02      0.00
  -20    3   17     -1.97      0.00
  -19    3   17      5.26      0.00
  -18    3   17     -3.29      0.00
  -17    3   17     -1.82      0.00
  -16    3   17     -2.87      0.00
  -15    3   17     -0.92      0.00
  -14    3   17      0.07      0.00
  -13    3   17     -3.12      0.00
  -12    3   17      6.42      0.00
  -11    3   17      0.91      0.00
  -10    3   17      2.75      0.00
   -9    3   17      3.51      0.00
   -8    3   17      8.74      0.00
   -7    3   17    -10.36      0.00
   -6    3   17      3.48      0.00
   -5    3   17     -1.14      0.00
   -4    3   17      0.63      0.00
   -3    3   17      3.59      0.00
   -2    3   17      5.85      0.00
   -1    3   17     -6.66      0.00
    0    3   17     -1.66      0.00
    1    3   17     -1.20      0.00
    2    3   17      4.72      0.00
    3    3   17      1.17      0.00
    4    3   17     -1.82      0.00
    5    3   17     -3.05      0.00
    6    3   17     -2.09      0.00
    7    3   17     -1.19      0.00
  -20    4   17     -4.94      0.00
  -19    4   17      0.66      0.00
  -18    4   17      1.07      0.00
  -17    4   17      0.12      0.00
  -16    4   17     -2.28      0.00
  -15    4   17      1.96      0.00
  -14    4   17     -1.26      0.00
  -13    4   17     -0.29      0.00
  -12    4   17      1.87      0.00
  -11    4   17     -0.13      0.00
  -10    4   17      0.01      0.00
   -9    4   17     -5.07      0.00
   -8    4   17     -1.44      0.00
   -7    4   17      2.64      0.00
   -6    4   17      6.05      0.00
   -5    4   17      0.97      0.00
   -4    4   17     -2.21      0.00
   -3    4   17     -0.33      0.00
   -2    4   17      4.77      0.00
   -1    4   17     -0.73      0.00
    0    4   17      0.83      0.00
    1    4   17     -2.23      0.00
    2    4   17     -5.33      0.00
    3    4   17      0.31      0.00
    4    4   17      2.87      0.00
    5    4   17     -3.45      0.00
    6    4   17     -1.13      0.00
  -20    5   17      0.40      0.00
  -19    5   17      0.54      0.00
  -18    5   17     -0.49      0.00
  -17    5   17      1.09      0.00
  -16    5   17     -2.22      0.00
  -15    5   17      0.92      0.00
  -14    5   17      2.85      0.00
  -13    5   17     -0.86      0.00
  -12    5   17     -0.50      0.00
  -11    5   17      3.71      0.00
  -10    5   17     -4.36      0.00
   -9    5   17      3.10      0.00
   -8    5   17     -0.81      0.00
   -7    5   17     -3.99      0.00
   -6    5   17     -0.02      0.00
   -5    5   17      6.34      0.00
   -4    5   17     -4.17      0.00
   -3    5   17     -0.83      0.00
   -2    5   17     -1.02      0.00
   -1    5   17     -3.28      0.00
    0    5   17      1.70      0.00
    1    5   17      1.36      0.00
    2    5   17     -2.64      0.00
    3    5   17     -0.72      0.00
    4    5   17      0.49      0.00
    5    5   17     -2.52      0.00
  -20    6   17      1.84      0.00
  -19    6   17      2.13      0.00
  -18    6   17     -3.71      0.00
  -17    6   17     -0.41      0.00
  -16    6   17     -4.91      0.00
  -15    6   17     -1.20      0.00
  -14    6   17      6.05      0.00
  -13    6   17      0.60      0.00
  -12    6   17      3.87      0.00
  -11    6   17      3.01      0.00
  -10    6   17     -3.92      0.00
   -9    6   17     -0.65      0.00
   -8    6   17      1.87      0.00
   -7    6   17      3.09      0.00
   -6    6   17     -2.67      0.00
   -5    6   17      6.42      0.00
   -4    6   17     -0.25      0.00
   -3    6   17      5.72      0.00
   -2    6   17     -1.22      0.00
   -1    6   17      0.18      0.00
    0    6   17     -4.42      0.00
    1    6   17      1.21      0.00
    2    6   17     -2.24      0.00
    3    6   17     -1.25      0.00
    4    6   17     -0.17      0.00
    5    6   17     -2.10      0.00
  -20    7   17      0.20      0.00
  -19    7   17      1.07      0.00
  -18    7   17     -0.91      0.00
  -17    7   17      2.18      0.00
  -16    7   17     -0.95      0.00
  -15    7   17     -1.70      0.00
  -14    7   17     -0.54      0.00
  -13    7   17      1.01      0.00
  -12    7   17     -1.13      0.00
  -11    7   17      0.76      0.00
  -10    7   17     -5.52      0.00
   -9    7   17      0.30      0.00
   -8    7   17     -2.24      0.00
   -7    7   17      5.75      0.00
   -6    7   17      1.29      0.00
   -5    7   17      1.72      0.00
   -4    7   17     -5.44      0.00
   -3    7   17     -1.02      0.00
   -2    7   17     -0.96      0.00
   -1    7   17      0.03      0.00
    0    7   17     -3.79      0.00
    1    7   17      1.83      0.00
    2    7   17      1.25      0.00
    3    7   17     -1.78      0.00
    4    7   17      1.02      0.00
  -21    8   17      0.65      0.00
  -20    8   17      2.56      0.00
  -19    8   17      0.99      0.00
  -18    8   17     -2.77      0.00
  -17    8   17     -7.67      0.00
  -16    8   17     -0.73      0.00
  -15    8   17      2.09      0.00
  -14    8   17      9.49      0.00
  -13    8   17     -1.53      0.00
  -12    8   17      0.76      0.00
  -11    8   17     -3.27      0.00
  -10    8   17      1.97      0.00
   -9    8   17      0.10      0.00
   -8    8   17      0.09      0.00
   -7    8   17     -1.99      0.00
   -6    8   17     -2.49      0.00
   -5    8   17     11.31      0.00
   -4    8   17      1.33      0.00
   -3    8   17     -0.49      0.00
   -2    8   17     -1.98      0.00
   -1    8   17      3.92      0.00
    0    8   17     -2.14      0.00
    1    8   17      3.68      0.00
    2    8   17     -0.56      0.00
    3    8   17     -3.36      0.00
  -20    9   17     -2.84      0.00
  -19    9   17     -0.90      0.00
  -18    9   17      1.13      0.00
  -17    9   17      0.39      0.00
  -16    9   17      4.57      0.00
  -15    9   17     -1.31      0.00
  -14    9   17      0.83      0.00
  -13    9   17     -3.87      0.00
  -12    9   17      2.13      0.00
  -11    9   17     -2.78      0.00
  -10    9   17     -0.32      0.00
   -9    9   17     -3.18      0.00
   -8    9   17      6.31      0.00
   -7    9   17      5.03      0.00
   -6    9   17     -2.84      0.00
   -5    9   17     -0.73      0.00
   -4    9   17     -2.64      0.00
   -3    9   17      0.80      0.00
   -2    9   17     -3.72      0.00
   -1    9   17      1.85      0.00
    0    9   17     -0.26      0.00
    1    9   17      4.84      0.00
    2    9   17      0.59      0.00
  -20   10   17      0.41      0.00
  -19   10   17     -0.77      0.00
  -18   10   17     -2.32      0.00
  -17   10   17     -0.86      0.00
  -16   10   17      1.53      0.00
  -15   10   17     -2.69      0.00
  -14   10   17      1.93      0.00
  -13   10   17     -1.08      0.00
  -12   10   17      3.35      0.00
  -11   10   17     -1.94      0.00
  -10   10   17      4.26      0.00
   -9   10   17     -1.99      0.00
   -8   10   17     -0.43      0.00
   -7   10   17      1.13      0.00
   -6   10   17      1.96      0.00
   -5   10   17      0.52      0.00
   -4   10   17     -1.77      0.00
   -3   10   17     -0.15      0.00
   -2   10   17      0.75      0.00
   -1   10   17      4.96      0.00
    0   10   17     -1.75      0.00
    1   10   17      0.35      0.00
  -20   11   17     -0.17      0.00
  -19   11   17     -3.44      0.00
  -18   11   17      7.49      0.00
  -17   11   17     -0.05      0.00
  -16   11   17      0.46      0.00
  -15   11   17     -1.60      0.00
  -14   11   17      2.17      0.00
  -13   11   17     -2.13      0.00
  -12   11   17      1.18      0.00
  -11   11   17     -6.34      0.00
  -10   11   17      5.30      0.00
   -9   11   17     -1.19      0.00
   -8   11   17      5.33      0.00
   -7   11   17      0.98      0.00
   -6   11   17     -1.02      0.00
   -5   11   17      3.42      0.00
   -4   11   17     -1.58      0.00
   -3   11   17     -0.01      0.00
   -2   11   17     -0.35      0.00
   -1   11   17      3.58      0.00
    0   11   17      0.97      0.00
    1   11   17      3.24      0.00
  -20   12   17      0.74      0.00
  -19   12   17      0.08      0.00
  -18   12   17     -0.60      0.00
  -17   12   17      0.22      0.00
  -16   12   17     -3.13      0.00
  -15   12   17      0.29      0.00
  -14   12   17      0.30      0.00
  -13   12   17     -1.31      0.00
  -12   12   17      4.07      0.00
  -11   12   17      0.34      0.00
  -10   12   17      0.70      0.00
   -9   12   17     -4.15      0.00
   -8   12   17      2.74      0.00
   -7   12   17     -1.70      0.00
   -6   12   17     -0.99      0.00
   -5   12   17     -2.43      0.00
   -4   12   17     -2.57      0.00
   -3   12   17      4.70      0.00
   -2   12   17      2.33      0.00
   -1   12   17      2.69      0.00
  -20   13   17      2.05      0.00
  -19   13   17      0.53      0.00
  -18   13   17      1.30      0.00
  -17   13   17     -2.27      0.00
  -16   13   17      1.74      0.00
  -15   13   17      0.40      0.00
  -14   13   17      1.25      0.00
  -13   13   17     -2.35      0.00
  -12   13   17      1.44      0.00
  -11   13   17     -3.33      0.00
  -10   13   17      4.78      0.00
   -9   13   17     -0.78      0.00
   -8   13   17      3.06      0.00
   -7   13   17      1.85      0.00
   -6   13   17      1.59      0.00
   -5   13   17      1.51      0.00
   -4   13   17      0.31      0.00
   -3   13   17     -0.58      0.00
   -2   13   17     -1.03      0.00
  -19   14   17     -2.84      0.00
  -18   14   17     -1.24      0.00
  -17   14   17      2.30      0.00
  -16   14   17     -0.90      0.00
  -15   14   17     -0.38      0.00
  -14   14   17     -1.97      0.00
  -13   14   17     -0.44      0.00
  -12   14   17      1.77      0.00
  -11   14   17     -0.03      0.00
  -10   14   17      5.21      0.00
   -9   14   17     -2.61      0.00
   -8   14   17      0.36      0.00
   -7   14   17     -2.82      0.00
   -6   14   17     -2.54      0.00
   -5   14   17     -0.18      0.00
   -4   14   17      1.47      0.00
   -3   14   17      0.89      0.00
  -19   15   17      2.74      0.00
  -18   15   17      0.32      0.00
  -17   15   17     -2.90      0.00
  -16   15   17      2.22      0.00
  -15   15   17     -2.63      0.00
  -14   15   17      2.66      0.00
  -13   15   17      0.86      0.00
  -12   15   17      0.03      0.00
  -11   15   17     -1.14      0.00
  -10   15   17      3.51      0.00
   -9   15   17      2.66      0.00
   -8   15   17      1.14      0.00
   -7   15   17      1.33      0.00
   -6   15   17     -2.96      0.00
   -5   15   17      1.75      0.00
  -17   16   17      1.32      0.00
  -16   16   17     -0.75      0.00
  -15   16   17      0.60      0.00
  -14   16   17      1.23      0.00
  -13   16   17     -1.11      0.00
  -12   16   17      2.51      0.00
  -11   16   17     -0.80      0.00
  -10   16   17      3.74      0.00
   -9   16   17     -2.50      0.00
   -8   16   17     -0.83      0.00
   -7   16   17     -0.91      0.00
  -16   17   17      1.94      0.00
  -15   17   17      1.10      0.00
  -14   17   17     -0.31      0.00
  -13   17   17      2.79      0.00
  -12   17   17      1.89      0.00
  -11   17   17      0.50      0.00
  -10   17   17     -0.07      0.00
   -9   17   17      3.83      0.00
   -3  -16   18     -3.48      0.00
   -2  -16   18     -2.25      0.00
   -1  -16   18     -1.30      0.00
    0  -16   18     -0.23      0.00
    1  -16   18     -1.08      0.00
    2  -16   18      3.18      0.00
    3  -16   18      2.24      0.00
    4  -16   18     -0.01      0.00
    5  -16   18     -0.56      0.00
    6  -16   18     -2.94      0.00
   -5  -15   18     -0.53      0.00
   -4  -15   18      0.48      0.00
   -3  -15   18      5.38      0.00
   -2  -15   18      0.35      0.00
   -1  -15   18      3.83      0.00
    0  -15   18     -0.45      0.00
    1  -15   18      0.30      0.00
    2  -15   18      0.24      0.00
    3  -15   18      0.13      0.00
    4  -15   18      1.65      0.00
    5  -15   18     -0.05      0.00
    6  -15   18      2.27      0.00
    7  -15   18     -3.11      0.00
   -6  -14   18      1.10      0.00
   -5  -14   18      2.37      0.00
   -4  -14   18     -5.10      0.00
   -3  -14   18     -5.71      0.00
   -2  -14   18     -1.64      0.00
   -1  -14   18      2.30      0.00
    0  -14   18      2.75      0.00
    1  -14   18      6.46      0.00
    2  -14   18     -4.81      0.00
    3  -14   18     -1.54      0.00
    4  -14   18     -4.52      0.00
    5  -14   18      2.00      0.00
    6  -14   18     -1.24      0.00
    7  -14   18      3.51      0.00
    8  -14   18     -2.20      0.00
   -8  -13   18     -1.26      0.00
   -7  -13   18      0.16      0.00
   -6  -13   18      1.38      0.00
   -5  -13   18      5.58      0.00
   -4  -13   18      3.71      0.00
   -3  -13   18     -1.26      0.00
   -2  -13   18      2.69      0.00
   -1  -13   18      5.40      0.00
    0  -13   18     -1.59      0.00
    1  -13   18      4.60      0.00
    2  -13   18      0.66      0.00
    3  -13   18     -2.23      0.00
    4  -13   18      1.46      0.00
    5  -13   18      2.48      0.00
    6  -13   18     -1.19      0.00
    7  -13   18     -0.64      0.00
    8  -13   18      2.09      0.00
   -9  -12   18      1.33      0.00
   -8  -12   18      3.90      0.00
   -7  -12   18      4.18      0.00
   -6  -12   18     -1.34      0.00
   -5  -12   18     -1.69      0.00
   -4  -12   18     -8.54      0.00
   -3  -12   18      2.90      0.00
   -2  -12   18      5.33      0.00
   -1  -12   18      2.50      0.00
    0  -12   18     -2.33      0.00
    1  -12   18      2.90      0.00
    2  -12   18     -4.11      0.00
    3  -12   18     -0.49      0.00
    4  -12   18     -4.44      0.00
    5  -12   18      4.66      0.00
    6  -12   18     -1.15      0.00
    7  -12   18      0.50      0.00
    8  -12   18      0.37      0.00
    9  -12   18     -0.11      0.00
  -10  -11   18      1.45      0.00
   -9  -11   18      2.29      0.00
   -8  -11   18      2.62      0.00
   -7  -11   18      0.69      0.00
   -6  -11   18      1.56      0.00
   -5  -11   18      6.63      0.00
   -4  -11   18      2.06      0.00
   -3  -11   18      3.41      0.00
   -2  -11   18     -1.88      0.00
   -1  -11   18      6.61      0.00
    0  -11   18     -2.87      0.00
    1  -11   18     -1.49      0.00
    2  -11   18      4.36      0.00
    3  -11   18     -0.09      0.00
    4  -11   18     -0.55      0.00
    5  -11   18      0.80      0.00
    6  -11   18      3.18      0.00
    7  -11   18      0.87      0.00
    8  -11   18     -0.71      0.00
    9  -11   18     -0.31      0.00
  -11  -10   18     -0.61      0.00
  -10  -10   18     -3.61      0.00
   -9  -10   18     -1.44      0.00
   -8  -10   18      4.30      0.00
   -7  -10   18      4.56      0.00
   -6  -10   18     -2.46      0.00
   -5  -10   18     -4.00      0.00
   -4  -10   18     -1.12      0.00
   -3  -10   18     -1.79      0.00
   -2  -10   18     -0.60      0.00
   -1  -10   18      5.95      0.00
    0  -10   18     -4.04      0.00
    1  -10   18      1.56      0.00
    2  -10   18     -0.03      0.00
    3  -10   18      4.15      0.00
    4  -10   18      0.00      0.00
    5  -10   18     -2.63      0.00
    6  -10   18      2.29      0.00
    7  -10   18     -1.22      0.00
    8  -10   18      3.22      0.00
    9  -10   18     -0.46      0.00
  -12   -9   18      3.45      0.00
  -11   -9   18      0.45      0.00
  -10   -9   18      0.98      0.00
   -9   -9   18     -0.05      0.00
   -8   -9   18      3.82      0.00
   -7   -9   18      6.85      0.00
   -6   -9   18      1.58      0.00
   -5   -9   18      3.10      0.00
   -4   -9   18      2.00      0.00
   -3   -9   18      0.44      0.00
   -2   -9   18     -2.43      0.00
   -1   -9   18      3.10      0.00
    0   -9   18     -1.23      0.00
    1   -9   18     -1.13      0.00
    2   -9   18      5.97      0.00
    3   -9   18     -2.85      0.00
    4   -9   18      2.94      0.00
    5   -9   18      0.84      0.00
    6   -9   18     -0.28      0.00
    7   -9   18     -0.81      0.00
    8   -9   18     -1.40      0.00
    9   -9   18     -3.31      0.00
  -13   -8   18     -5.13      0.00
  -12   -8   18     -4.37      0.00
  -11   -8   18      0.40      0.00
  -10   -8   18      2.94      0.00
   -9   -8   18      0.95      0.00
   -8   -8   18      4.06      0.00
   -7   -8   18     -3.35      0.00
   -6   -8   18     -3.22      0.00
   -5   -8   18     -5.99      0.00
   -4   -8   18     -5.79      0.00
   -3   -8   18     -1.81      0.00
   -2   -8   18      0.38      0.00
   -1   -8   18      5.67      0.00
    0   -8   18      1.81      0.00
    1   -8   18      0.83      0.00
    2   -8   18      2.15      0.00
    3   -8   18      0.18      0.00
    4   -8   18      3.23      0.00
    5   -8   18     -1.65      0.00
    6   -8   18      2.46      0.00
    7   -8   18     -0.67      0.00
    8   -8   18      4.63      0.00
    9   -8   18     -2.14      0.00
  -14   -7   18      2.89      0.00
  -13   -7   18     -2.85      0.00
  -12   -7   18      4.83      0.00
  -11   -7   18     -5.30      0.00
  -10   -7   18      3.07      0.00
   -9   -7   18      7.16      0.00
   -8   -7   18      0.52      0.00
   -7   -7   18     -0.43      0.00
   -6   -7   18      7.64      0.00
   -5   -7   18     -1.08      0.00
   -4   -7   18      1.54      0.00
   -3   -7   18      0.15      0.00
   -2   -7   18      2.29      0.00
   -1   -7   18      3.10      0.00
    0   -7   18      2.51      0.00
    1   -7   18     -4.44      0.00
    2   -7   18      2.99      0.00
    3   -7   18     -5.21      0.00
    4   -7   18      1.78      0.00
    5   -7   18      0.94      0.00
    6   -7   18      0.84      0.00
    7   -7   18     -4.78      0.00
    8   -7   18     -1.07      0.00
    9   -7   18     -1.24      0.00
  -14   -6   18     -1.26      0.00
  -13   -6   18     -2.67      0.00
  -12   -6   18      6.60      0.00
  -11   -6   18      0.17      0.00
  -10   -6   18      5.23      0.00
   -9   -6   18     -3.13      0.00
   -8   -6   18     -2.23      0.00
   -7   -6   18     -2.67      0.00
   -6   -6   18     -3.95      0.00
   -5   -6   18     -4.02      0.00
   -4   -6   18      1.03      0.00
   -3   -6   18      0.39      0.00
   -2   -6   18     -1.27      0.00
   -1   -6   18      3.09      0.00
    0   -6   18      6.32      0.00
    1   -6   18      1.40      0.00
    2   -6   18      7.58      0.00
    3   -6   18     -2.50      0.00
    4   -6   18     -0.02      0.00
    5   -6   18     -2.85      0.00
    6   -6   18      4.98      0.00
    7   -6   18     -1.06      0.00
    8   -6   18     -0.93      0.00
    9   -6   18     -2.33      0.00
  -15   -5   18     -3.01      0.00
  -14   -5   18      4.42      0.00
  -13   -5   18     -6.29      0.00
  -12   -5   18      3.09      0.00
  -11   -5   18      1.35      0.00
  -10   -5   18     -1.09      0.00
   -9   -5   18     -2.73      0.00
   -8   -5   18      3.03      0.00
   -7   -5   18      1.82      0.00
   -6   -5   18     -0.18      0.00
   -5   -5   18     -0.48      0.00
   -4   -5   18      6.61      0.00
   -3   -5   18      2.29      0.00
   -2   -5   18     -1.07      0.00
   -1   -5   18     -3.65      0.00
    0   -5   18      2.99      0.00
    1   -5   18     -5.00      0.00
    2   -5   18      1.69      0.00
    3   -5   18     -2.07      0.00
    4   -5   18      1.41      0.00
    5   -5   18     -4.61      0.00
    6   -5   18      4.19      0.00
    7   -5   18     -1.88      0.00
    8   -5   18     -0.41      0.00
    9   -5   18      0.15      0.00
  -16   -4   18     -1.50      0.00
  -15   -4   18     -2.41      0.00
  -14   -4   18      6.61      0.00
  -13   -4   18     -0.04      0.00
  -12   -4   18      0.50      0.00
  -11   -4   18      0.54      0.00
  -10   -4   18      2.85      0.00
   -9   -4   18     -0.34      0.00
   -8   -4   18     -5.70      0.00
   -7   -4   18      4.21      0.00
   -6   -4   18      1.97      0.00
   -5   -4   18     -0.81      0.00
   -4   -4   18     -2.04      0.00
   -3   -4   18      1.36      0.00
   -2   -4   18     -0.34      0.00
   -1   -4   18      5.31      0.00
    0   -4   18      5.64      0.00
    1   -4   18     -0.38      0.00
    2   -4   18      4.68      0.00
    3   -4   18     -2.07      0.00
    4   -4   18      2.60      0.00
    5   -4   18     -0.54      0.00
    6   -4   18      0.08      0.00
    7   -4   18     -3.81      0.00
    8   -4   18     -0.23      0.00
    9   -4   18     -1.21      0.00
  -16   -3   18     -1.89      0.00
  -15   -3   18     -1.77      0.00
  -14   -3   18      3.98      0.00
  -13   -3   18     -2.00      0.00
  -12   -3   18      0.11      0.00
  -11   -3   18     -2.94      0.00
  -10   -3   18     -5.13      0.00
   -9   -3   18      1.43      0.00
   -8   -3   18      1.33      0.00
   -7   -3   18      1.61      0.00
   -6   -3   18     -0.94      0.00
   -5   -3   18      1.12      0.00
   -4   -3   18      1.32      0.00
   -3   -3   18      4.16      0.00
   -2   -3   18     -4.97      0.00
   -1   -3   18     -4.98      0.00
    0   -3   18      0.92      0.00
    1   -3   18     -3.82      0.00
    2   -3   18     -4.35      0.00
    3   -3   18     -3.06      0.00
    4   -3   18      0.35      0.00
    5   -3   18     -2.15      0.00
    6   -3   18      2.72      0.00
    7   -3   18     -2.13      0.00
    8   -3   18      1.08      0.00
    9   -3   18     -1.45      0.00
  -17   -2   18      1.37      0.00
  -16   -2   18      3.29      0.00
  -15   -2   18      4.65      0.00
  -14   -2   18     -3.61      0.00
  -13   -2   18     -0.40      0.00
  -12   -2   18     -2.50      0.00
  -11   -2   18     -1.30      0.00
  -10   -2   18     -2.05      0.00
   -9   -2   18      5.08      0.00
   -8   -2   18     -4.06      0.00
   -7   -2   18      6.56      0.00
   -6   -2   18     -1.03      0.00
   -5   -2   18     -3.56      0.00
   -4   -2   18     -5.14      0.00
   -3   -2   18      7.78      0.00
   -2   -2   18     -1.68      0.00
   -1   -2   18      0.01      0.00
    0   -2   18      1.51      0.00
    1   -2   18      4.71      0.00
    2   -2   18      2.77      0.00
    3   -2   18      1.22      0.00
    4   -2   18      0.60      0.00
    5   -2   18     -3.37      0.00
    6   -2   18      1.86      0.00
    7   -2   18     -0.09      0.00
    8   -2   18     -0.44      0.00
  -17   -1   18      0.23      0.00
  -16   -1   18     -2.80      0.00
  -15   -1   18     -1.34      0.00
  -14   -1   18      1.12      0.00
  -13   -1   18      0.89      0.00
  -12   -1   18      2.32      0.00
  -11   -1   18      0.50      0.00
  -10   -1   18     -3.61      0.00
   -9   -1   18      3.46      0.00
   -8   -1   18     -2.55      0.00
   -7   -1   18     -2.05      0.00
   -6   -1   18      3.21      0.00
   -5   -1   18      5.53      0.00
   -4   -1   18     -7.98      0.00
   -3   -1   18     -0.42      0.00
   -2   -1   18     -2.39      0.00
   -1   -1   18     -3.00      0.00
    0   -1   18     -4.06      0.00
    1   -1   18     -3.19      0.00
    2   -1   18     -5.86      0.00
    3   -1   18      2.47      0.00
    4   -1   18      0.01      0.00
    5   -1   18     -3.81      0.00
    6   -1   18      0.13      0.00
    7   -1   18     -0.80      0.00
    8   -1   18     -0.60      0.00
  -18    0   18     -1.29      0.00
  -17    0   18      4.45      0.00
  -16    0   18      3.64      0.00
  -15    0   18      2.63      0.00
  -14    0   18     -4.94      0.00
  -13    0   18     -6.87      0.00
  -12    0   18     -0.87      0.00
  -11    0   18     -0.31      0.00
  -10    0   18      1.84      0.00
   -9    0   18      0.47      0.00
   -8    0   18      1.07      0.00
   -7    0   18      1.50      0.00
   -6    0   18     -4.91      0.00
   -5    0   18      0.82      0.00
   -4    0   18     -2.10      0.00
   -3    0   18      0.16      0.00
   -2    0   18     -6.69      0.00
   -1    0   18     -1.34      0.00
    0    0   18      3.52      0.00
    1    0   18      7.92      0.00
    2    0   18     -1.82      0.00
    3    0   18      0.02      0.00
    4    0   18      4.31      0.00
    5    0   18     -2.37      0.00
    6    0   18      1.05      0.00
    7    0   18      0.93      0.00
    8    0   18     -0.87      0.00
  -18    1   18      2.04      0.00
  -17    1   18     -2.22      0.00
  -16    1   18     -3.24      0.00
  -15    1   18     -1.06      0.00
  -14    1   18      5.23      0.00
  -13    1   18     -0.65      0.00
  -12    1   18      2.80      0.00
  -11    1   18      0.22      0.00
  -10    1   18     -1.46      0.00
   -9    1   18     -3.35      0.00
   -8    1   18      2.53      0.00
   -7    1   18     -2.98      0.00
   -6    1   18      0.32      0.00
   -5    1   18     -2.26      0.00
   -4    1   18     -1.45      0.00
   -3    1   18     -0.30      0.00
   -2    1   18      6.46      0.00
   -1    1   18     -6.01      0.00
    0    1   18     -4.38      0.00
    1    1   18      0.81      0.00
    2    1   18     -0.58      0.00
    3    1   18     -1.25      0.00
    4    1   18     -3.94      0.00
    5    1   18     -2.30      0.00
    6    1   18     -2.16      0.00
    7    1   18      0.96      0.00
  -19    2   18      1.35      0.00
  -18    2   18      1.79      0.00
  -17    2   18     -1.08      0.00
  -16    2   18      2.50      0.00
  -15    2   18     -2.88      0.00
  -14    2   18     -0.44      0.00
  -13    2   18     -6.28      0.00
  -12    2   18      1.81      0.00
  -11    2   18     -4.10      0.00
  -10    2   18      2.05      0.00
   -9    2   18     -3.83      0.00
   -8    2   18      3.82      0.00
   -7    2   18     -4.21      0.00
   -6    2   18      0.82      0.00
   -5    2   18      0.59      0.00
   -4    2   18     -3.89      0.00
   -3    2   18     -7.80      0.00
   -2    2   18      5.61      0.00
   -1    2   18     -1.65      0.00
    0    2   18      2.80      0.00
    1    2   18     -0.90      0.00
    2    2   18      1.08      0.00
    3    2   18     -1.29      0.00
    4    2   18      4.58      0.00
    5    2   18      1.67      0.00
    6    2   18     -0.09      0.00
    7    2   18      0.71      0.00
  -19    3   18     -1.54      0.00
  -18    3   18     -0.82      0.00
  -17    3   18      0.19      0.00
  -16    3   18      1.19      0.00
  -15    3   18      0.16      0.00
  -14    3   18      1.49      0.00
  -13    3   18     -4.50      0.00
  -12    3   18      5.26      0.00
  -11    3   18     -5.38      0.00
  -10    3   18      5.26      0.00
   -9    3   18     -6.18      0.00
   -8    3   18     -0.68      0.00
   -7    3   18     -7.79      0.00
   -6    3   18      5.80      0.00
   -5    3   18     -2.59      0.00
   -4    3   18      4.15      0.00
   -3    3   18     -4.13      0.00
   -2    3   18      2.82      0.00
   -1    3   18     -7.69      0.00
    0    3   18      2.28      0.00
    1    3   18      2.76      0.00
    2    3   18     -4.11      0.00
    3    3   18     -6.93      0.00
    4    3   18     -0.83      0.00
    5    3   18      1.02      0.00
    6    3   18     -1.04      0.00
  -20    4   18      0.04      0.00
  -19    4   18      3.93      0.00
  -18    4   18     -0.90      0.00
  -17    4   18     -1.29      0.00
  -16    4   18      0.92      0.00
  -15    4   18     -4.05      0.00
  -14    4   18      2.08      0.00
  -13    4   18     -3.49      0.00
  -12    4   18      0.46      0.00
  -11    4   18     -0.85      0.00
  -10    4   18     -0.98      0.00
   -9    4   18     -7.71      0.00
   -8    4   18     10.93      0.00
   -7    4   18     -3.32      0.00
   -6    4   18      1.09      0.00
   -5    4   18     -2.10      0.00
   -4    4   18      3.55      0.00
   -3    4   18     -6.33      0.00
   -2    4   18      6.18      0.00
   -1    4   18     -8.02      0.00
    0    4   18     -1.67      0.00
    1    4   18     -4.58      0.00
    2    4   18      4.74      0.00
    3    4   18      2.76      0.00
    4    4   18      1.32      0.00
    5    4   18     -0.02      0.00
  -20    5   18     -2.89      0.00
  -19    5   18      1.62      0.00
  -18    5   18     -2.56      0.00
  -17    5   18     -0.25      0.00
  -16    5   18     -2.15      0.00
  -15    5   18     -1.41      0.00
  -14    5   18      3.85      0.00
  -13    5   18     -3.88      0.00
  -12    5   18     -2.05      0.00
  -11    5   18     -4.63      0.00
  -10    5   18      0.88      0.00
   -9    5   18     -9.00      0.00
   -8    5   18      2.76      0.00
   -7    5   18     -3.09      0.00
   -6    5   18      2.79      0.00
   -5    5   18     -2.19      0.00
   -4    5   18      3.66      0.00
   -3    5   18     -5.79      0.00
   -2    5   18      2.71      0.00
   -1    5   18      3.10      0.00
    0    5   18      0.48      0.00
    1    5   18     -3.04      0.00
    2    5   18     -1.62      0.00
    3    5   18     -1.83      0.00
    4    5   18     -0.26      0.00
    5    5   18      2.13      0.00
  -20    6   18      0.59      0.00
  -19    6   18     -0.04      0.00
  -18    6   18     -4.31      0.00
  -17    6   18      1.30      0.00
  -16    6   18     -1.51      0.00
  -15    6   18      3.61      0.00
  -14    6   18      3.34      0.00
  -13    6   18      2.75      0.00
  -12    6   18     -1.19      0.00
  -11    6   18     -2.01      0.00
  -10    6   18     -2.83      0.00
   -9    6   18     -0.52      0.00
   -8    6   18      3.46      0.00
   -7    6   18     -1.87      0.00
   -6    6   18      1.76      0.00
   -5    6   18     -0.85      0.00
   -4    6   18      3.64      0.00
   -3    6   18     -6.94      0.00
   -2    6   18     -3.05      0.00
   -1    6   18     -5.96      0.00
    0    6   18     -1.25      0.00
    1    6   18     -0.34      0.00
    2    6   18      2.38      0.00
    3    6   18     -3.36      0.00
    4    6   18      1.61      0.00
  -20    7   18     -2.32      0.00
  -19    7   18      3.92      0.00
  -18    7   18     -1.68      0.00
  -17    7   18     -0.91      0.00
  -16    7   18     -1.41      0.00
  -15    7   18     -2.00      0.00
  -14    7   18      1.64      0.00
  -13    7   18      0.82      0.00
  -12    7   18     -5.06      0.00
  -11    7   18     -4.99      0.00
  -10    7   18     -0.39      0.00
   -9    7   18     -1.25      0.00
   -8    7   18      5.08      0.00
   -7    7   18      3.29      0.00
   -6    7   18     -4.18      0.00
   -5    7   18     -2.14      0.00
   -4    7   18      0.83      0.00
   -3    7   18     -1.43      0.00
   -2    7   18     -0.81      0.00
   -1    7   18      2.42      0.00
    0    7   18      1.21      0.00
    1    7   18      2.67      0.00
    2    7   18      1.19      0.00
    3    7   18     -1.93      0.00
  -20    8   18     -3.98      0.00
  -19    8   18      0.16      0.00
  -18    8   18     -3.62      0.00
  -17    8   18      5.68      0.00
  -16    8   18      7.15      0.00
  -15    8   18     -0.47      0.00
  -14    8   18     -1.91      0.00
  -13    8   18     -1.77      0.00
  -12    8   18     -4.26      0.00
  -11    8   18      0.77      0.00
  -10    8   18     -1.54      0.00
   -9    8   18     -1.54      0.00
   -8    8   18     -2.49      0.00
   -7    8   18      4.59      0.00
   -6    8   18      5.02      0.00
   -5    8   18     -0.05      0.00
   -4    8   18     -3.74      0.00
   -3    8   18     -3.77      0.00
   -2    8   18     -1.77      0.00
   -1    8   18     -2.50      0.00
    0    8   18     -1.41      0.00
    1    8   18     -0.61      0.00
    2    8   18      1.54      0.00
  -20    9   18     -3.37      0.00
  -19    9   18      2.70      0.00
  -18    9   18     -1.55      0.00
  -17    9   18      3.85      0.00
  -16    9   18      0.64      0.00
  -15    9   18     -0.18      0.00
  -14    9   18     -1.55      0.00
  -13    9   18      1.65      0.00
  -12    9   18     -1.19      0.00
  -11    9   18     -2.30      0.00
  -10    9   18      0.57      0.00
   -9    9   18      4.39      0.00
   -8    9   18      0.32      0.00
   -7    9   18      0.04      0.00
   -6    9   18     -3.65      0.00
   -5    9   18     -0.43      0.00
   -4    9   18      0.82      0.00
   -3    9   18      1.27      0.00
   -2    9   18      1.29      0.00
   -1    9   18      5.04      0.00
    0    9   18     -0.13      0.00
    1    9   18     -1.22      0.00
  -20   10   18      0.69      0.00
  -19   10   18     -3.21      0.00
  -18   10   18      4.59      0.00
  -17   10   18     -0.17      0.00
  -16   10   18      0.65      0.00
  -15   10   18     -2.88      0.00
  -14   10   18     -0.22      0.00
  -13   10   18     -2.32      0.00
  -12   10   18      1.64      0.00
  -11   10   18     -0.95      0.00
  -10   10   18     -0.10      0.00
   -9   10   18     -0.79      0.00
   -8   10   18      1.22      0.00
   -7   10   18      3.92      0.00
   -6   10   18     -4.13      0.00
   -5   10   18     -2.85      0.00
   -4   10   18      0.04      0.00
   -3   10   18      0.22      0.00
   -2   10   18     -0.60      0.00
   -1   10   18      0.93      0.00
    0   10   18     -2.45      0.00
  -20   11   18     -1.83      0.00
  -19   11   18      3.59      0.00
  -18   11   18     -1.86      0.00
  -17   11   18     -1.20      0.00
  -16   11   18     -0.14      0.00
  -15   11   18      3.73      0.00
  -14   11   18      1.08      0.00
  -13   11   18     -2.56      0.00
  -12   11   18     -0.72      0.00
  -11   11   18      2.26      0.00
  -10   11   18      2.93      0.00
   -9   11   18      1.29      0.00
   -8   11   18      0.62      0.00
   -7   11   18      0.81      0.00
   -6   11   18      1.13      0.00
   -5   11   18     -0.58      0.00
   -4   11   18     -2.57      0.00
   -3   11   18      3.07      0.00
   -2   11   18      0.18      0.00
   -1   11   18      4.04      0.00
  -20   12   18      2.59      0.00
  -19   12   18      0.11      0.00
  -18   12   18      2.82      0.00
  -17   12   18     -2.00      0.00
  -16   12   18      0.70      0.00
  -15   12   18     -1.28      0.00
  -14   12   18     -0.05      0.00
  -13   12   18     -3.23      0.00
  -12   12   18      1.52      0.00
  -11   12   18     -4.80      0.00
  -10   12   18      3.09      0.00
   -9   12   18      0.72      0.00
   -8   12   18     -0.44      0.00
   -7   12   18     -2.44      0.00
   -6   12   18     -0.50      0.00
   -5   12   18     -0.24      0.00
   -4   12   18      2.43      0.00
   -3   12   18      1.78      0.00
   -2   12   18     -5.80      0.00
  -19   13   18     -0.05      0.00
  -18   13   18     -2.67      0.00
  -17   13   18      3.94      0.00
  -16   13   18     -1.13      0.00
  -15   13   18      0.48      0.00
  -14   13   18      0.43      0.00
  -13   13   18      0.40      0.00
  -12   13   18      2.97      0.00
  -11   13   18     -1.92      0.00
  -10   13   18      4.18      0.00
   -9   13   18     -0.86      0.00
   -8   13   18      0.50      0.00
   -7   13   18     -0.81      0.00
   -6   13   18     -2.06      0.00
   -5   13   18     -1.19      0.00
   -4   13   18     -1.51      0.00
   -3   13   18      1.05      0.00
  -19   14   18      3.74      0.00
  -18   14   18      2.69      0.00
  -17   14   18      0.68      0.00
  -16   14   18     -0.18      0.00
  -15   14   18     -4.09      0.00
  -14   14   18      1.80      0.00
  -13   14   18     -1.06      0.00
  -12   14   18      3.45      0.00
  -11   14   18     -2.86      0.00
  -10   14   18      1.66      0.00
   -9   14   18     -1.98      0.00
   -8   14   18     -0.60      0.00
   -7   14   18     -2.40      0.00
   -6   14   18     -2.72      0.00
   -5   14   18      1.70      0.00
   -4   14   18     -1.63      0.00
  -18   15   18     -4.69      0.00
  -17   15   18      1.43      0.00
  -16   15   18     -1.47      0.00
  -15   15   18      0.64      0.00
  -14   15   18      1.86      0.00
  -13   15   18     -2.56      0.00
  -12   15   18      5.28      0.00
  -11   15   18     -2.18      0.00
  -10   15   18      0.76      0.00
   -9   15   18     -2.38      0.00
   -8   15   18     -1.84      0.00
   -7   15   18     -2.59      0.00
   -6   15   18     -1.13      0.00
  -16   16   18      3.24      0.00
  -15   16   18     -0.08      0.00
  -14   16   18     -0.45      0.00
  -13   16   18     -3.02      0.00
  -12   16   18      2.59      0.00
  -11   16   18     -2.28      0.00
  -10   16   18     -1.14      0.00
   -9   16   18     -0.15      0.00
    1  -16   19      1.20      0.00
    2  -16   19     -1.62      0.00
   -4  -15   19      3.44      0.00
   -3  -15   19     -3.22      0.00
   -2  -15   19     -1.53      0.00
   -1  -15   19     -4.37      0.00
    0  -15   19     -1.37      0.00
    1  -15   19      2.14      0.00
    2  -15   19     -0.45      0.00
    3  -15   19      0.32      0.00
    4  -15   19     -2.43      0.00
    5  -15   19      2.78      0.00
   -5  -14   19     -3.84      0.00
   -4  -14   19     -0.12      0.00
   -3  -14   19      4.48      0.00
   -2  -14   19      4.99      0.00
   -1  -14   19      3.86      0.00
    0  -14   19     -0.06      0.00
    1  -14   19     -5.67      0.00
    2  -14   19     -1.62      0.00
    3  -14   19     -3.39      0.00
    4  -14   19      0.28      0.00
    5  -14   19      0.65      0.00
    6  -14   19      2.26      0.00
   -7  -13   19      4.91      0.00
   -6  -13   19      2.72      0.00
   -5  -13   19     -0.19      0.00
   -4  -13   19     -4.13      0.00
   -3  -13   19     -1.16      0.00
   -2  -13   19      1.08      0.00
   -1  -13   19     -1.48      0.00
    0  -13   19     -1.04      0.00
    1  -13   19     -0.26      0.00
    2  -13   19     -3.24      0.00
    3  -13   19      4.94      0.00
    4  -13   19     -0.85      0.00
    5  -13   19     -0.37      0.00
    6  -13   19     -2.16      0.00
    7  -13   19      2.35      0.00
   -8  -12   19     -0.89      0.00
   -7  -12   19     -2.97      0.00
   -6  -12   19     -4.79      0.00
   -5  -12   19     -2.45      0.00
   -4  -12   19      6.00      0.00
   -3  -12   19      7.85      0.00
   -2  -12   19     -1.69      0.00
   -1  -12   19      1.81      0.00
    0  -12   19     -0.37      0.00
    1  -12   19     -3.06      0.00
    2  -12   19      3.17      0.00
    3  -12   19      0.34      0.00
    4  -12   19     -0.86      0.00
    5  -12   19     -1.34      0.00
    6  -12   19     -1.47      0.00
    7  -12   19      2.17      0.00
    8  -12   19     -0.82      0.00
  -10  -11   19     -3.90      0.00
   -9  -11   19     -2.24      0.00
   -8  -11   19     -0.66      0.00
   -7  -11   19      3.62      0.00
   -6  -11   19      3.27      0.00
   -5  -11   19     -0.45      0.00
   -4  -11   19     -1.84      0.00
   -3  -11   19     -1.93      0.00
   -2  -11   19     -0.53      0.00
   -1  -11   19      2.48      0.00
    0  -11   19     -3.74      0.00
    1  -11   19      0.78      0.00
    2  -11   19     -1.38      0.00
    3  -11   19      3.49      0.00
    4  -11   19     -2.57      0.00
    5  -11   19      1.53      0.00
    6  -11   19     -1.54      0.00
    7  -11   19     -2.57      0.00
    8  -11   19      0.38      0.00
  -11  -10   19      0.69      0.00
  -10  -10   19      0.47      0.00
   -9  -10   19      2.87      0.00
   -8  -10   19     -1.90      0.00
   -7  -10   19     -1.24      0.00
   -6  -10   19     -4.92      0.00
   -5  -10   19      1.51      0.00
   -4  -10   19     -1.85      0.00
   -3  -10   19      0.60      0.00
   -2  -10   19     -0.28      0.00
   -1  -10   19      1.16      0.00
    0  -10   19      3.43      0.00
    1  -10   19     -0.23      0.00
    2  -10   19      0.52      0.00
    3  -10   19      1.52      0.00
    4  -10   19     -6.44      0.00
    5  -10   19     -0.03      0.00
    6  -10   19      0.93      0.00
    7  -10   19      1.32      0.00
    8  -10   19     -1.63      0.00
  -12   -9   19     -4.82      0.00
  -11   -9   19      2.68      0.00
  -10   -9   19     -0.80      0.00
   -9   -9   19      1.26      0.00
   -8   -9   19      2.56      0.00
   -7   -9   19      2.32      0.00
   -6   -9   19     -3.10      0.00
   -5   -9   19      0.30      0.00
   -4   -9   19     -3.38      0.00
   -3   -9   19      3.18      0.00
   -2   -9   19     -3.96      0.00
   -1   -9   19      2.48      0.00
    0   -9   19      0.20      0.00
    1   -9   19      1.54      0.00
    2   -9   19     -5.64      0.00
    3   -9   19      3.34      0.00
    4   -9   19      0.23      0.00
    5   -9   19     -2.98      0.00
    6   -9   19     -0.19      0.00
    7   -9   19     -2.64      0.00
    8   -9   19      0.58      0.00
  -12   -8   19      0.12      0.00
  -11   -8   19      5.70      0.00
  -10   -8   19      2.44      0.00
   -9   -8   19      3.16      0.00
   -8   -8   19     -3.15      0.00
   -7   -8   19     -3.36      0.00
   -6   -8   19     -2.02      0.00
   -5   -8   19     -4.74      0.00
   -4   -8   19     -2.66      0.00
   -3   -8   19      4.27      0.00
   -2   -8   19     -2.46      0.00
   -1   -8   19      4.56      0.00
    0   -8   19      1.04      0.00
    1   -8   19     -1.50      0.00
    2   -8   19     -3.86      0.00
    3   -8   19     -1.28      0.00
    4   -8   19     -1.16      0.00
    5   -8   19      2.61      0.00
    6   -8   19      1.36      0.00
    7   -8   19     -0.71      0.00
    8   -8   19     -1.99      0.00
  -13   -7   19      5.32      0.00
  -12   -7   19     -4.17      0.00
  -11   -7   19      4.42      0.00
  -10   -7   19      5.68      0.00
   -9   -7   19      0.19      0.00
   -8   -7   19     -1.61      0.00
   -7   -7   19      2.19      0.00
   -6   -7   19     -3.05      0.00
   -5   -7   19     -1.95      0.00
   -4   -7   19     -3.21      0.00
   -3   -7   19      6.65      0.00
   -2   -7   19     -4.33      0.00
   -1   -7   19      1.51      0.00
    0   -7   19     -2.28      0.00
    1   -7   19      1.22      0.00
    2   -7   19     -2.22      0.00
    3   -7   19      0.15      0.00
    4   -7   19      0.09      0.00
    5   -7   19     -1.43      0.00
    6   -7   19      0.83      0.00
    7   -7   19     -0.84      0.00
    8   -7   19      1.17      0.00
  -14   -6   19      4.06      0.00
  -13   -6   19      6.65      0.00
  -12   -6   19      1.25      0.00
  -11   -6   19      2.46      0.00
  -10   -6   19     -2.68      0.00
   -9   -6   19     -4.32      0.00
   -8   -6   19      2.53      0.00
   -7   -6   19     -5.04      0.00
   -6   -6   19     -0.37      0.00
   -5   -6   19     -1.57      0.00
   -4   -6   19     -0.25      0.00
   -3   -6   19      4.44      0.00
   -2   -6   19     -1.69      0.00
   -1   -6   19      1.92      0.00
    0   -6   19      2.36      0.00
    1   -6   19      0.22      0.00
    2   -6   19     -1.98      0.00
    3   -6   19     -2.41      0.00
    4   -6   19     -0.03      0.00
    5   -6   19      3.30      0.00
    6   -6   19      1.77      0.00
    7   -6   19     -3.75      0.00
    8   -6   19     -2.63      0.00
  -15   -5   19      0.38      0.00
  -14   -5   19     -2.28      0.00
  -13   -5   19      1.18      0.00
  -12   -5   19      1.67      0.00
  -11   -5   19      0.82      0.00
  -10   -5   19      0.62      0.00
   -9   -5   19     -1.75      0.00
   -8   -5   19      0.80      0.00
   -7   -5   19     -4.45      0.00
   -6   -5   19     -1.58      0.00
   -5   -5   19      0.50      0.00
   -4   -5   19     -3.51      0.00
   -3   -5   19      2.47      0.00
   -2   -5   19     -3.46      0.00
   -1   -5   19     -0.35      0.00
    0   -5   19      0.28      0.00
    1   -5   19      0.55      0.00
    2   -5   19      2.60      0.00
    3   -5   19     -0.17      0.00
    4   -5   19      0.76      0.00
    5   -5   19      0.04      0.00
    6   -5   19      1.90      0.00
    7   -5   19     -0.65      0.00
    8   -5   19     -2.46      0.00
  -15   -4   19      1.83      0.00
  -14   -4   19      6.75      0.00
  -13   -4   19     -1.28      0.00
  -12   -4   19      1.78      0.00
  -11   -4   19      1.14      0.00
  -10   -4   19     -0.93      0.00
   -9   -4   19     -7.05      0.00
   -8   -4   19      3.78      0.00
   -7   -4   19     -0.47      0.00
   -6   -4   19     -1.71      0.00
   -5   -4   19     -4.03      0.00
   -4   -4   19      1.69      0.00
   -3   -4   19      4.73      0.00
   -2   -4   19      6.89      0.00
   -1   -4   19     -2.10      0.00
    0   -4   19      2.75      0.00
    1   -4   19     -2.66      0.00
    2   -4   19      0.57      0.00
    3   -4   19      0.17      0.00
    4   -4   19      4.08      0.00
    5   -4   19     -4.47      0.00
    6   -4   19     -0.27      0.00
    7   -4   19      1.01      0.00
    8   -4   19     -0.28      0.00
  -16   -3   19     -0.12      0.00
  -15   -3   19      0.44      0.00
  -14   -3   19     -0.27      0.00
  -13   -3   19     -4.28      0.00
  -12   -3   19     -2.12      0.00
  -11   -3   19     -4.20      0.00
  -10   -3   19      3.82      0.00
   -9   -3   19      2.02      0.00
   -8   -3   19     -0.75      0.00
   -7   -3   19     -2.88      0.00
   -6   -3   19      2.45      0.00
   -5   -3   19     -0.44      0.00
   -4   -3   19     -3.58      0.00
   -3   -3   19     -2.39      0.00
   -2   -3   19     -0.21      0.00
   -1   -3   19     -0.06      0.00
    0   -3   19      1.03      0.00
    1   -3   19     -2.26      0.00
    2   -3   19      2.42      0.00
    3   -3   19     -1.82      0.00
    4   -3   19      5.09      0.00
    5   -3   19     -3.99      0.00
    6   -3   19     -2.45      0.00
    7   -3   19      0.23      0.00
    8   -3   19     -1.68      0.00
  -16   -2   19      3.08      0.00
  -15   -2   19     -4.33      0.00
  -14   -2   19      0.17      0.00
  -13   -2   19      2.70      0.00
  -12   -2   19      3.24      0.00
  -11   -2   19      1.03      0.00
  -10   -2   19     -1.00      0.00
   -9   -2   19     -0.70      0.00
   -8   -2   19     -0.57      0.00
   -7   -2   19     -2.30      0.00
   -6   -2   19     -2.03      0.00
   -5   -2   19      3.56      0.00
   -4   -2   19      3.30      0.00
   -3   -2   19      1.58      0.00
   -2   -2   19      4.35      0.00
   -1   -2   19     -1.69      0.00
    0   -2   19      3.55      0.00
    1   -2   19      2.38      0.00
    2   -2   19      1.97      0.00
    3   -2   19     -4.73      0.00
    4   -2   19      4.43      0.00
    5   -2   19     -2.44      0.00
    6   -2   19      0.48      0.00
    7   -2   19     -3.39      0.00
  -17   -1   19     -2.79      0.00
  -16   -1   19      2.09      0.00
  -15   -1   19      2.04      0.00
  -14   -1   19     -0.02      0.00
  -13   -1   19     -2.78      0.00
  -12   -1   19      0.88      0.00
  -11   -1   19     -1.01      0.00
  -10   -1   19      0.34      0.00
   -9   -1   19     -0.55      0.00
   -8   -1   19     -1.59      0.00
   -7   -1   19      4.07      0.00
   -6   -1   19      1.78      0.00
   -5   -1   19      0.13      0.00
   -4   -1   19     -5.32      0.00
   -3   -1   19     -0.42      0.00
   -2   -1   19     -1.95      0.00
   -1   -1   19     -2.69      0.00
    0   -1   19     -3.04      0.00
    1   -1   19      2.80      0.00
    2   -1   19      4.81      0.00
    3   -1   19     -4.69      0.00
    4   -1   19      2.29      0.00
    5   -1   19     -1.99      0.00
    6   -1   19     -1.00      0.00
    7   -1   19     -2.32      0.00
  -17    0   19      2.87      0.00
  -16    0   19     -4.20      0.00
  -15    0   19     -0.38      0.00
  -14    0   19     -1.75      0.00
  -13    0   19      5.58      0.00
  -12    0   19      5.44      0.00
  -11    0   19      9.27      0.00
  -10    0   19     -4.20      0.00
   -9    0   19      0.33      0.00
   -8    0   19     -2.64      0.00
   -7    0   19     -2.54      0.00
   -6    0   19     -3.69      0.00
   -5    0   19      6.80      0.00
   -4    0   19     -2.63      0.00
   -3    0   19     -2.52      0.00
   -2    0   19      3.26      0.00
   -1    0   19      5.26      0.00
    0    0   19      0.11      0.00
    1    0   19      0.58      0.00
    2    0   19     -0.10      0.00
    3    0   19     -2.23      0.00
    4    0   19      0.62      0.00
    5    0   19     -1.81      0.00
    6    0   19      1.35      0.00
    7    0   19     -1.88      0.00
  -18    1   19      0.29      0.00
  -17    1   19     -1.52      0.00
  -16    1   19      3.97      0.00
  -15    1   19      4.63      0.00
  -14    1   19      0.16      0.00
  -13    1   19     -5.60      0.00
  -12    1   19     -1.09      0.00
  -11    1   19     -0.82      0.00
  -10    1   19     -4.90      0.00
   -9    1   19      4.40      0.00
   -8    1   19     -0.82      0.00
   -7    1   19      6.52      0.00
   -6    1   19     -6.54      0.00
   -5    1   19      4.19      0.00
   -4    1   19     -2.26      0.00
   -3    1   19     -3.60      0.00
   -2    1   19     -5.72      0.00
   -1    1   19      0.28      0.00
    0    1   19      0.20      0.00
    1    1   19      3.18      0.00
    2    1   19      1.02      0.00
    3    1   19     -7.05      0.00
    4    1   19      2.39      0.00
    5    1   19     -0.09      0.00
    6    1   19      2.11      0.00
  -18    2   19     -0.99      0.00
  -17    2   19      2.98      0.00
  -16    2   19     -1.97      0.00
  -15    2   19      0.69      0.00
  -14    2   19      5.33      0.00
  -13    2   19      2.86      0.00
  -12    2   19     -0.40      0.00
  -11    2   19      3.55      0.00
  -10    2   19     -1.54      0.00
   -9    2   19      1.45      0.00
   -8    2   19     -4.35      0.00
   -7    2   19      1.79      0.00
   -6    2   19     -2.66      0.00
   -5    2   19     -1.44      0.00
   -4    2   19     -4.03      0.00
   -3    2   19      2.45      0.00
   -2    2   19      0.96      0.00
   -1    2   19      3.80      0.00
    0    2   19     -5.10      0.00
    1    2   19      2.89      0.00
    2    2   19      1.36      0.00
    3    2   19     -0.79      0.00
    4    2   19      0.79      0.00
    5    2   19      0.64      0.00
    6    2   19     -1.75      0.00
  -19    3   19     -0.55      0.00
  -18    3   19      4.19      0.00
  -17    3   19      0.39      0.00
  -16    3   19      4.01      0.00
  -15    3   19     -3.28      0.00
  -14    3   19      2.58      0.00
  -13    3   19      0.53      0.00
  -12    3   19     -5.09      0.00
  -11    3   19     -1.94      0.00
  -10    3   19     -1.74      0.00
   -9    3   19     -2.19      0.00
   -8    3   19     -1.19      0.00
   -7    3   19      5.93      0.00
   -6    3   19     -3.36      0.00
   -5    3   19     -2.28      0.00
   -4    3   19      0.65      0.00
   -3    3   19     -9.45      0.00
   -2    3   19     -2.61      0.00
   -1    3   19      3.30      0.00
    0    3   19      2.01      0.00
    1    3   19     -3.35      0.00
    2    3   19     -0.83      0.00
    3    3   19      2.14      0.00
    4    3   19      4.62      0.00
    5    3   19      1.25      0.00
  -19    4   19      0.52      0.00
  -18    4   19      0.14      0.00
  -17    4   19      1.85      0.00
  -16    4   19     -1.46      0.00
  -15    4   19     -3.31      0.00
  -14    4   19      2.55      0.00
  -13    4   19      1.83      0.00
  -12    4   19     -0.56      0.00
  -11    4   19     -1.45      0.00
  -10    4   19      1.09      0.00
   -9    4   19      4.11      0.00
   -8    4   19     -1.12      0.00
   -7    4   19     -4.50      0.00
   -6    4   19     -3.64      0.00
   -5    4   19     -3.82      0.00
   -4    4   19      4.17      0.00
   -3    4   19     -0.77      0.00
   -2    4   19     -2.68      0.00
   -1    4   19      0.36      0.00
    0    4   19      0.62      0.00
    1    4   19      3.89      0.00
    2    4   19      1.73      0.00
    3    4   19     -1.80      0.00
    4    4   19     -3.90      0.00
  -20    5   19      0.66      0.00
  -19    5   19      1.36      0.00
  -18    5   19      1.84      0.00
  -17    5   19     -1.72      0.00
  -16    5   19      3.45      0.00
  -15    5   19     -0.52      0.00
  -14    5   19     -0.74      0.00
  -13    5   19     -2.95      0.00
  -12    5   19      0.42      0.00
  -11    5   19     -3.32      0.00
  -10    5   19      0.38      0.00
   -9    5   19     -1.68      0.00
   -8    5   19      4.79      0.00
   -7    5   19      0.39      0.00
   -6    5   19      0.55      0.00
   -5    5   19     -5.24      0.00
   -4    5   19      1.81      0.00
   -3    5   19     -2.95      0.00
   -2    5   19      4.29      0.00
   -1    5   19     -1.69      0.00
    0    5   19     -1.60      0.00
    1    5   19     -0.99      0.00
    2    5   19      4.31      0.00
    3    5   19      1.25      0.00
    4    5   19      1.31      0.00
  -20    6   19     -5.53      0.00
  -19    6   19      1.37      0.00
  -18    6   19      4.59      0.00
  -17    6   19      1.02      0.00
  -16    6   19      3.73      0.00
  -15    6   19     -0.05      0.00
  -14    6   19     -5.12      0.00
  -13    6   19      1.19      0.00
  -12    6   19     -1.69      0.00
  -11    6   19     -5.15      0.00
  -10    6   19      5.70      0.00
   -9    6   19     -2.84      0.00
   -8    6   19     -1.64      0.00
   -7    6   19     -2.54      0.00
   -6    6   19      0.59      0.00
   -5    6   19     -6.33      0.00
   -4    6   19      2.90      0.00
   -3    6   19     -4.74      0.00
   -2    6   19     -0.58      0.00
   -1    6   19      1.91      0.00
    0    6   19      2.90      0.00
    1    6   19      0.14      0.00
    2    6   19     -1.67      0.00
    3    6   19      2.17      0.00
  -20    7   19      0.55      0.00
  -19    7   19      0.32      0.00
  -18    7   19     -3.10      0.00
  -17    7   19     -0.09      0.00
  -16    7   19      1.72      0.00
  -15    7   19     -0.04      0.00
  -14    7   19     -1.01      0.00
  -13    7   19     -0.62      0.00
  -12    7   19     -0.67      0.00
  -11    7   19      0.77      0.00
  -10    7   19      4.77      0.00
   -9    7   19     -1.19      0.00
   -8    7   19      2.49      0.00
   -7    7   19     -4.84      0.00
   -6    7   19      4.00      0.00
   -5    7   19     -2.08      0.00
   -4    7   19      3.45      0.00
   -3    7   19     -1.12      0.00
   -2    7   19      1.48      0.00
   -1    7   19     -2.30      0.00
    0    7   19      0.91      0.00
    1    7   19     -2.70      0.00
    2    7   19      0.93      0.00
  -20    8   19     -0.56      0.00
  -19    8   19      4.87      0.00
  -18    8   19      3.50      0.00
  -17    8   19      4.59      0.00
  -16    8   19     -4.48      0.00
  -15    8   19     -0.32      0.00
  -14    8   19     -4.57      0.00
  -13    8   19     -0.65      0.00
  -12    8   19      0.31      0.00
  -11    8   19      2.09      0.00
  -10    8   19      1.18      0.00
   -9    8   19     -1.75      0.00
   -8    8   19      4.81      0.00
   -7    8   19     -0.70      0.00
   -6    8   19      1.29      0.00
   -5    8   19     -8.54      0.00
   -4    8   19      1.86      0.00
   -3    8   19     -0.10      0.00
   -2    8   19      0.78      0.00
   -1    8   19      0.24      0.00
    0    8   19      1.37      0.00
    1    8   19     -1.73      0.00
  -20    9   19      1.18      0.00
  -19    9   19      1.02      0.00
  -18    9   19     -1.58      0.00
  -17    9   19     -1.24      0.00
  -16    9   19     -2.60      0.00
  -15    9   19      0.81      0.00
  -14    9   19     -0.27      0.00
  -13    9   19      0.49      0.00
  -12    9   19     -1.61      0.00
  -11    9   19      1.41      0.00
  -10    9   19      2.13      0.00
   -9    9   19     -2.30      0.00
   -8    9   19     -1.54      0.00
   -7    9   19     -2.03      0.00
   -6    9   19      3.21      0.00
   -5    9   19     -1.20      0.00
   -4    9   19      3.31      0.00
   -3    9   19     -1.03      0.00
   -2    9   19      0.27      0.00
   -1    9   19     -3.01      0.00
    0    9   19      0.26      0.00
  -20   10   19     -1.52      0.00
  -19   10   19      6.44      0.00
  -18   10   19     -0.96      0.00
  -17   10   19     -0.93      0.00
  -16   10   19     -1.47      0.00
  -15   10   19      3.37      0.00
  -14   10   19     -0.49      0.00
  -13   10   19      3.03      0.00
  -12   10   19     -2.86      0.00
  -11   10   19     -0.14      0.00
  -10   10   19      1.98      0.00
   -9   10   19      2.72      0.00
   -8   10   19      3.98      0.00
   -7   10   19     -5.28      0.00
   -6   10   19      0.68      0.00
   -5   10   19     -0.98      0.00
   -4   10   19      1.39      0.00
   -3   10   19     -0.28      0.00
   -2   10   19      0.47      0.00
   -1   10   19     -0.63      0.00
  -19   11   19      1.00      0.00
  -18   11   19     -3.85      0.00
  -17   11   19      0.68      0.00
  -16   11   19      0.07      0.00
  -15   11   19      0.41      0.00
  -14   11   19     -2.08      0.00
  -13   11   19     -1.03      0.00
  -12   11   19      3.91      0.00
  -11   11   19     -0.55      0.00
  -10   11   19     -1.49      0.00
   -9   11   19     -0.39      0.00
   -8   11   19     -2.25      0.00
   -7   11   19     -0.79      0.00
   -6   11   19     -0.07      0.00
   -5   11   19     -2.60      0.00
   -4   11   19      1.80      0.00
   -3   11   19      1.14      0.00
   -2   11   19     -1.77      0.00
  -19   12   19      0.07      0.00
  -18   12   19     -1.68      0.00
  -17   12   19      1.96      0.00
  -16   12   19      0.65      0.00
  -15   12   19      0.87      0.00
  -14   12   19     -1.24      0.00
  -13   12   19     -0.39      0.00
  -12   12   19      0.88      0.00
  -11   12   19      0.60      0.00
  -10   12   19      1.48      0.00
   -9   12   19      0.09      0.00
   -8   12   19     -0.66      0.00
   -7   12   19      1.60      0.00
   -6   12   19      2.64      0.00
   -5   12   19     -0.06      0.00
   -4   12   19      0.83      0.00
   -3   12   19     -1.62      0.00
  -18   13   19      1.06      0.00
  -17   13   19     -0.02      0.00
  -16   13   19     -1.31      0.00
  -15   13   19     -0.66      0.00
  -14   13   19      2.09      0.00
  -13   13   19     -0.16      0.00
  -12   13   19      0.50      0.00
  -11   13   19     -0.03      0.00
  -10   13   19     -2.33      0.00
   -9   13   19     -1.26      0.00
   -8   13   19     -2.00      0.00
   -7   13   19     -2.22      0.00
   -6   13   19     -2.46      0.00
   -5   13   19      1.20      0.00
   -4   13   19     -0.84      0.00
  -18   14   19     -1.57      0.00
  -17   14   19      0.44      0.00
  -16   14   19      0.24      0.00
  -15   14   19      1.36      0.00
  -14   14   19      2.22      0.00
  -13   14   19     -3.29      0.00
  -12   14   19      1.26      0.00
  -11   14   19     -0.34      0.00
  -10   14   19     -2.03      0.00
   -9   14   19      1.47      0.00
   -8   14   19      0.91      0.00
   -7   14   19     -0.15      0.00
   -6   14   19      3.17      0.00
  -16   15   19      1.16      0.00
  -15   15   19      0.42      0.00
  -14   15   19     -0.68      0.00
  -13   15   19     -1.29      0.00
  -12   15   19     -0.74      0.00
  -11   15   19     -3.23      0.00
  -10   15   19     -1.48      0.00
   -9   15   19     -1.79      0.00
   -8   15   19     -0.56      0.00
  -14   16   19      1.31      0.00
  -13   16   19     -0.50      0.00
  -12   16   19     -0.64      0.00
  -11   16   19      0.77      0.00
   -2  -15   20      1.37      0.00
   -1  -15   20     -0.27      0.00
    0  -15   20     -0.46      0.00
    1  -15   20     -3.29      0.00
    2  -15   20     -3.37      0.00
   -4  -14   20      2.96      0.00
   -3  -14   20     -0.69      0.00
   -2  -14   20     -0.65      0.00
   -1  -14   20     -2.50      0.00
    0  -14   20     -5.59      0.00
    1  -14   20     -0.69      0.00
    2  -14   20      0.91      0.00
    3  -14   20      4.38      0.00
    4  -14   20      1.92      0.00
   -6  -13   20     -4.44      0.00
   -5  -13   20     -6.19      0.00
   -4  -13   20      0.40      0.00
   -3  -13   20      2.36      0.00
   -2  -13   20      0.03      0.00
   -1  -13   20      0.71      0.00
    0  -13   20     -2.28      0.00
    1  -13   20     -6.50      0.00
    2  -13   20      0.33      0.00
    3  -13   20      1.07      0.00
    4  -13   20     -3.39      0.00
    5  -13   20     -2.58      0.00
    6  -13   20      2.32      0.00
   -8  -12   20     -3.48      0.00
   -7  -12   20     -2.69      0.00
   -6  -12   20      4.70      0.00
   -5  -12   20      1.86      0.00
   -4  -12   20      2.47      0.00
   -3  -12   20     -6.12      0.00
   -2  -12   20     -3.86      0.00
   -1  -12   20     -1.04      0.00
    0  -12   20      2.02      0.00
    1  -12   20      3.01      0.00
    2  -12   20     -1.69      0.00
    3  -12   20      2.80      0.00
    4  -12   20      1.57      0.00
    5  -12   20     -0.61      0.00
    6  -12   20      0.09      0.00
   -9  -11   20      1.81      0.00
   -8  -11   20     -2.56      0.00
   -7  -11   20     -3.61      0.00
   -6  -11   20     -4.19      0.00
   -5  -11   20     -5.39      0.00
   -4  -11   20      0.80      0.00
   -3  -11   20      2.49      0.00
   -2  -11   20      3.93      0.00
   -1  -11   20     -5.34      0.00
    0  -11   20      1.22      0.00
    1  -11   20     -0.19      0.00
    2  -11   20     -5.85      0.00
    3  -11   20      0.11      0.00
    4  -11   20     -1.92      0.00
    5  -11   20      0.19      0.00
    6  -11   20     -3.36      0.00
    7  -11   20      2.57      0.00
  -10  -10   20     -1.84      0.00
   -9  -10   20     -3.10      0.00
   -8  -10   20     -0.45      0.00
   -7  -10   20      0.11      0.00
   -6  -10   20      5.50      0.00
   -5  -10   20      1.76      0.00
   -4  -10   20     -1.37      0.00
   -3  -10   20      1.45      0.00
   -2  -10   20      0.47      0.00
   -1  -10   20     -0.64      0.00
    0  -10   20      1.37      0.00
    1  -10   20      1.46      0.00
    2  -10   20     -3.18      0.00
    3  -10   20     -0.66      0.00
    4  -10   20     -0.35      0.00
    5  -10   20      3.21      0.00
    6  -10   20     -2.17      0.00
    7  -10   20     -4.20      0.00
  -11   -9   20     -0.54      0.00
  -10   -9   20     -1.78      0.00
   -9   -9   20      0.84      0.00
   -8   -9   20     -1.63      0.00
   -7   -9   20     -8.03      0.00
   -6   -9   20     -2.78      0.00
   -5   -9   20      0.23      0.00
   -4   -9   20      2.07      0.00
   -3   -9   20     -0.62      0.00
   -2   -9   20      0.49      0.00
   -1   -9   20     -0.60      0.00
    0   -9   20     -1.58      0.00
    1   -9   20      0.94      0.00
    2   -9   20     -3.94      0.00
    3   -9   20      0.54      0.00
    4   -9   20     -6.04      0.00
    5   -9   20     -0.41      0.00
    6   -9   20      1.70      0.00
    7   -9   20      1.76      0.00
  -12   -8   20     -2.31      0.00
  -11   -8   20      3.08      0.00
  -10   -8   20     -2.11      0.00
   -9   -8   20     -1.09      0.00
   -8   -8   20      0.24      0.00
   -7   -8   20      6.42      0.00
   -6   -8   20     -1.34      0.00
   -5   -8   20      4.68      0.00
   -4   -8   20      2.75      0.00
   -3   -8   20      3.64      0.00
   -2   -8   20     -0.16      0.00
   -1   -8   20     -2.53      0.00
    0   -8   20     -7.28      0.00
    1   -8   20      1.34      0.00
    2   -8   20     -3.50      0.00
    3   -8   20      4.43      0.00
    4   -8   20      2.18      0.00
    5   -8   20     -3.39      0.00
    6   -8   20     -2.62      0.00
    7   -8   20     -1.67      0.00
  -13   -7   20      1.76      0.00
  -12   -7   20     -4.12      0.00
  -11   -7   20      4.07      0.00
  -10   -7   20     -0.62      0.00
   -9   -7   20     -4.60      0.00
   -8   -7   20     -0.98      0.00
   -7   -7   20     -0.81      0.00
   -6   -7   20     -6.66      0.00
   -5   -7   20     -1.96      0.00
   -4   -7   20     -2.37      0.00
   -3   -7   20      2.86      0.00
   -2   -7   20     -3.15      0.00
   -1   -7   20      0.49      0.00
    0   -7   20     -1.92      0.00
    1   -7   20      2.39      0.00
    2   -7   20     -4.45      0.00
    3   -7   20     -0.04      0.00
    4   -7   20     -1.36      0.00
    5   -7   20      2.01      0.00
    6   -7   20      3.01      0.00
    7   -7   20      3.08      0.00
  -13   -6   20      4.05      0.00
  -12   -6   20     -8.83      0.00
  -11   -6   20     -1.16      0.00
  -10   -6   20     -1.15      0.00
   -9   -6   20      4.82      0.00
   -8   -6   20     -1.59      0.00
   -7   -6   20      4.18      0.00
   -6   -6   20     -0.83      0.00
   -5   -6   20      5.04      0.00
   -4   -6   20     -5.61      0.00
   -3   -6   20      2.78      0.00
   -2   -6   20     -4.41      0.00
   -1   -6   20      0.25      0.00
    0   -6   20     -6.09      0.00
    1   -6   20      1.00      0.00
    2   -6   20     -2.21      0.00
    3   -6   20      2.22      0.00
    4   -6   20      1.73      0.00
    5   -6   20     -2.11      0.00
    6   -6   20     -4.77      0.00
    7   -6   20      1.36      0.00
  -14   -5   20     -2.84      0.00
  -13   -5   20      7.08      0.00
  -12   -5   20     -1.83      0.00
  -11   -5   20      0.37      0.00
  -10   -5   20     -1.66      0.00
   -9   -5   20     -2.47      0.00
   -8   -5   20     -3.12      0.00
   -7   -5   20     -0.82      0.00
   -6   -5   20     -4.25      0.00
   -5   -5   20     -1.14      0.00
   -4   -5   20     -5.93      0.00
   -3   -5   20      2.64      0.00
   -2   -5   20      2.13      0.00
   -1   -5   20      3.75      0.00
    0   -5   20      0.24      0.00
    1   -5   20      5.03      0.00
    2   -5   20     -3.42      0.00
    3   -5   20      1.69      0.00
    4   -5   20      0.36      0.00
    5   -5   20      1.40      0.00
    6   -5   20     -2.56      0.00
    7   -5   20      0.99      0.00
  -15   -4   20      4.65      0.00
  -14   -4   20     -7.35      0.00
  -13   -4   20      0.37      0.00
  -12   -4   20     -1.40      0.00
  -11   -4   20     -2.96      0.00
  -10   -4   20     -2.06      0.00
   -9   -4   20      3.01      0.00
   -8   -4   20      1.67      0.00
   -7   -4   20     -4.78      0.00
   -6   -4   20     -3.58      0.00
   -5   -4   20      5.42      0.00
   -4   -4   20     -3.80      0.00
   -3   -4   20     -0.58      0.00
   -2   -4   20     -4.12      0.00
   -1   -4   20     -0.48      0.00
    0   -4   20     -5.73      0.00
    1   -4   20      0.78      0.00
    2   -4   20      1.00      0.00
    3   -4   20      1.71      0.00
    4   -4   20     -0.08      0.00
    5   -4   20     -0.11      0.00
    6   -4   20     -1.17      0.00
    7   -4   20      1.06      0.00
  -15   -3   20      0.73      0.00
  -14   -3   20     -6.14      0.00
  -13   -3   20      1.97      0.00
  -12   -3   20      2.48      0.00
  -11   -3   20      2.45      0.00
  -10   -3   20      1.59      0.00
   -9   -3   20     -3.84      0.00
   -8   -3   20     -4.18      0.00
   -7   -3   20     -0.71      0.00
   -6   -3   20     -2.01      0.00
   -5   -3   20      0.21      0.00
   -4   -3   20      0.90      0.00
   -3   -3   20      0.05      0.00
   -2   -3   20      5.77      0.00
   -1   -3   20      5.11      0.00
    0   -3   20     -0.03      0.00
    1   -3   20      3.13      0.00
    2   -3   20      0.80      0.00
    3   -3   20     -0.37      0.00
    4   -3   20      0.10      0.00
    5   -3   20     -0.14      0.00
    6   -3   20      0.55      0.00
    7   -3   20      0.04      0.00
  -16   -2   20     -1.75      0.00
  -15   -2   20     -2.22      0.00
  -14   -2   20      1.26      0.00
  -13   -2   20     -2.04      0.00
  -12   -2   20     -0.33      0.00
  -11   -2   20     -2.45      0.00
  -10   -2   20      3.13      0.00
   -9   -2   20     -3.34      0.00
   -8   -2   20      0.94      0.00
   -7   -2   20     -1.75      0.00
   -6   -2   20      2.56      0.00
   -5   -2   20      1.71      0.00
   -4   -2   20      1.56      0.00
   -3   -2   20     -2.54      0.00
   -2   -2   20     -1.70      0.00
   -1   -2   20      0.66      0.00
    0   -2   20      0.30      0.00
    1   -2   20     -3.15      0.00
    2   -2   20      0.42      0.00
    3   -2   20     -2.62      0.00
    4   -2   20      1.98      0.00
    5   -2   20      0.91      0.00
    6   -2   20     -1.87      0.00
  -17   -1   20      2.26      0.00
  -16   -1   20     -1.38      0.00
  -15   -1   20     -0.80      0.00
  -14   -1   20     -2.79      0.00
  -13   -1   20      0.13      0.00
  -12   -1   20      0.84      0.00
  -11   -1   20      2.08      0.00
  -10   -1   20     -0.73      0.00
   -9   -1   20     -3.65      0.00
   -8   -1   20      2.71      0.00
   -7   -1   20     -0.81      0.00
   -6   -1   20     -2.30      0.00
   -5   -1   20     -3.08      0.00
   -4   -1   20      3.73      0.00
   -3   -1   20     -0.77      0.00
   -2   -1   20      1.24      0.00
   -1   -1   20      3.39      0.00
    0   -1   20      6.67      0.00
    1   -1   20      1.87      0.00
    2   -1   20      3.32      0.00
    3   -1   20     -3.10      0.00
    4   -1   20      2.22      0.00
    5   -1   20     -0.58      0.00
    6   -1   20      2.05      0.00
  -17    0   20     -7.20      0.00
  -16    0   20     -1.62      0.00
  -15    0   20      1.01      0.00
  -14    0   20      4.67      0.00
  -13    0   20      1.97      0.00
  -12    0   20     -1.19      0.00
  -11    0   20     -4.53      0.00
  -10    0   20     -1.74      0.00
   -9    0   20      1.72      0.00
   -8    0   20     -0.56      0.00
   -7    0   20      3.64      0.00
   -6    0   20      4.64      0.00
   -5    0   20     -0.31      0.00
   -4    0   20      1.15      0.00
   -3    0   20     -0.03      0.00
   -2    0   20      0.31      0.00
   -1    0   20      0.18      0.00
    0    0   20     -1.51      0.00
    1    0   20     -5.98      0.00
    2    0   20      5.14      0.00
    3    0   20     -4.54      0.00
    4    0   20      1.44      0.00
    5    0   20      0.02      0.00
    6    0   20      2.19      0.00
  -17    1   20      2.93      0.00
  -16    1   20     -4.85      0.00
  -15    1   20     -2.92      0.00
  -14    1   20     -0.76      0.00
  -13    1   20      5.67      0.00
  -12    1   20     -0.68      0.00
  -11    1   20      1.11      0.00
  -10    1   20      2.33      0.00
   -9    1   20      2.62      0.00
   -8    1   20     -0.32      0.00
   -7    1   20     -3.15      0.00
   -6    1   20     -0.03      0.00
   -5    1   20      0.20      0.00
   -4    1   20     -2.75      0.00
   -3    1   20     -0.78      0.00
   -2    1   20     -0.26      0.00
   -1    1   20      7.31      0.00
    0    1   20      0.26      0.00
    1    1   20     -2.05      0.00
    2    1   20      2.20      0.00
    3    1   20      2.19      0.00
    4    1   20      3.59      0.00
    5    1   20     -1.01      0.00
  -18    2   20     -0.58      0.00
  -17    2   20     -0.82      0.00
  -16    2   20     -1.88      0.00
  -15    2   20      3.99      0.00
  -14    2   20      1.18      0.00
  -13    2   20      1.74      0.00
  -12    2   20     -4.03      0.00
  -11    2   20      0.44      0.00
  -10    2   20     -2.94      0.00
   -9    2   20      4.08      0.00
   -8    2   20     -1.84      0.00
   -7    2   20      4.51      0.00
   -6    2   20     -0.92      0.00
   -5    2   20     -2.71      0.00
   -4    2   20      6.28      0.00
   -3    2   20      2.41      0.00
   -2    2   20     -4.39      0.00
   -1    2   20      0.89      0.00
    0    2   20      1.19      0.00
    1    2   20     -1.23      0.00
    2    2   20      0.76      0.00
    3    2   20     -2.91      0.00
    4    2   20      2.62      0.00
    5    2   20     -4.35      0.00
  -19    3   20      2.06      0.00
  -18    3   20     -1.90      0.00
  -17    3   20      1.98      0.00
  -16    3   20     -4.63      0.00
  -15    3   20     -0.88      0.00
  -14    3   20      1.34      0.00
  -13    3   20      5.36      0.00
  -12    3   20     -3.35      0.00
  -11    3   20      5.37      0.00
  -10    3   20     -3.75      0.00
   -9    3   20      6.00      0.00
   -8    3   20     -1.05      0.00
   -7    3   20      1.20      0.00
   -6    3   20     -3.10      0.00
   -5    3   20     -2.25      0.00
   -4    3   20     -5.71      0.00
   -3    3   20      4.30      0.00
   -2    3   20     -1.72      0.00
   -1    3   20      5.48      0.00
    0    3   20     -1.42      0.00
    1    3   20      1.34      0.00
    2    3   20      6.59      0.00
    3    3   20      2.69      0.00
    4    3   20     -0.12      0.00
  -19    4   20     -2.62      0.00
  -18    4   20      0.91      0.00
  -17    4   20     -3.32      0.00
  -16    4   20      2.31      0.00
  -15    4   20      2.98      0.00
  -14    4   20     -0.65      0.00
  -13    4   20     -0.16      0.00
  -12    4   20     -2.23      0.00
  -11    4   20      1.33      0.00
  -10    4   20     -0.78      0.00
   -9    4   20      1.18      0.00
   -8    4   20     -4.08      0.00
   -7    4   20      2.75      0.00
   -6    4   20      1.24      0.00
   -5    4   20      1.42      0.00
   -4    4   20     -1.06      0.00
   -3    4   20      0.83      0.00
   -2    4   20     -3.00      0.00
   -1    4   20      5.18      0.00
    0    4   20      2.25      0.00
    1    4   20     -2.00      0.00
    2    4   20     -1.03      0.00
    3    4   20     -3.20      0.00
  -19    5   20     -1.81      0.00
  -18    5   20     -0.49      0.00
  -17    5   20      0.10      0.00
  -16    5   20      2.08      0.00
  -15    5   20      0.99      0.00
  -14    5   20     -6.63      0.00
  -13    5   20      4.37      0.00
  -12    5   20      0.39      0.00
  -11    5   20      1.96      0.00
  -10    5   20     -0.35      0.00
   -9    5   20      5.98      0.00
   -8    5   20     -2.85      0.00
   -7    5   20     -0.05      0.00
   -6    5   20     -0.95      0.00
   -5    5   20     -1.82      0.00
   -4    5   20      0.22      0.00
   -3    5   20      4.99      0.00
   -2    5   20     -3.97      0.00
   -1    5   20     -1.14      0.00
    0    5   20      0.97      0.00
    1    5   20      4.01      0.00
    2    5   20      0.44      0.00
    3    5   20     -0.30      0.00
  -19    6   20      0.01      0.00
  -18    6   20     -0.69      0.00
  -17    6   20     -3.27      0.00
  -16    6   20      1.20      0.00
  -15    6   20     -1.14      0.00
  -14    6   20     -1.77      0.00
  -13    6   20     -2.62      0.00
  -12    6   20     -4.09      0.00
  -11    6   20      1.79      0.00
  -10    6   20      2.16      0.00
   -9    6   20     -2.57      0.00
   -8    6   20      0.13      0.00
   -7    6   20      0.16      0.00
   -6    6   20      0.14      0.00
   -5    6   20      1.02      0.00
   -4    6   20     -1.42      0.00
   -3    6   20      3.51      0.00
   -2    6   20      6.13      0.00
   -1    6   20      2.17      0.00
    0    6   20      0.14      0.00
    1    6   20     -2.78      0.00
    2    6   20      0.07      0.00
  -19    7   20     -2.99      0.00
  -18    7   20      2.80      0.00
  -17    7   20     -2.12      0.00
  -16    7   20     -3.40      0.00
  -15    7   20      0.93      0.00
  -14    7   20     -1.15      0.00
  -13    7   20     -1.63      0.00
  -12    7   20      2.44      0.00
  -11    7   20      3.50      0.00
  -10    7   20      0.46      0.00
   -9    7   20      1.10      0.00
   -8    7   20     -2.46      0.00
   -7    7   20     -1.59      0.00
   -6    7   20      3.00      0.00
   -5    7   20     -3.28      0.00
   -4    7   20      0.46      0.00
   -3    7   20     -1.57      0.00
   -2    7   20     -0.73      0.00
   -1    7   20     -0.54      0.00
    0    7   20     -0.11      0.00
    1    7   20     -0.39      0.00
  -19    8   20     -0.87      0.00
  -18    8   20     -2.31      0.00
  -17    8   20     -4.48      0.00
  -16    8   20     -4.38      0.00
  -15    8   20      2.24      0.00
  -14    8   20     -1.54      0.00
  -13    8   20     -0.47      0.00
  -12    8   20      2.75      0.00
  -11    8   20     -3.08      0.00
  -10    8   20      0.55      0.00
   -9    8   20      1.44      0.00
   -8    8   20      2.55      0.00
   -7    8   20     -3.70      0.00
   -6    8   20      0.72      0.00
   -5    8   20     -0.06      0.00
   -4    8   20      3.59      0.00
   -3    8   20      0.24      0.00
   -2    8   20      2.23      0.00
   -1    8   20     -0.89      0.00
    0    8   20      1.50      0.00
  -19    9   20     -1.15      0.00
  -18    9   20      1.14      0.00
  -17    9   20     -2.55      0.00
  -16    9   20     -2.48      0.00
  -15    9   20     -1.17      0.00
  -14    9   20     -1.98      0.00
  -13    9   20      0.49      0.00
  -12    9   20     -0.08      0.00
  -11    9   20      0.19      0.00
  -10    9   20      0.04      0.00
   -9    9   20     -4.29      0.00
   -8    9   20      3.38      0.00
   -7    9   20     -2.99      0.00
   -6    9   20      3.90      0.00
   -5    9   20     -2.11      0.00
   -4    9   20      1.91      0.00
   -3    9   20     -2.73      0.00
   -2    9   20     -0.72      0.00
   -1    9   20     -2.23      0.00
  -19   10   20     -0.23      0.00
  -18   10   20     -6.88      0.00
  -17   10   20      2.22      0.00
  -16   10   20     -0.92      0.00
  -15   10   20      1.73      0.00
  -14   10   20      0.41      0.00
  -13   10   20     -1.95      0.00
  -12   10   20     -0.05      0.00
  -11   10   20     -0.35      0.00
  -10   10   20      2.20      0.00
   -9   10   20     -2.29      0.00
   -8   10   20     -2.88      0.00
   -7   10   20     -3.25      0.00
   -6   10   20      4.66      0.00
   -5   10   20     -1.25      0.00
   -4   10   20      2.55      0.00
   -3   10   20      1.09      0.00
   -2   10   20      2.15      0.00
  -19   11   20     -1.62      0.00
  -18   11   20      0.11      0.00
  -17   11   20      0.84      0.00
  -16   11   20     -1.77      0.00
  -15   11   20     -2.42      0.00
  -14   11   20     -3.48      0.00
  -13   11   20      3.99      0.00
  -12   11   20     -0.20      0.00
  -11   11   20     -2.37      0.00
  -10   11   20      0.44      0.00
   -9   11   20     -2.81      0.00
   -8   11   20      2.87      0.00
   -7   11   20     -1.45      0.00
   -6   11   20      3.13      0.00
   -5   11   20     -2.74      0.00
   -4   11   20      2.58      0.00
   -3   11   20     -2.21      0.00
  -18   12   20     -2.80      0.00
  -17   12   20      0.39      0.00
  -16   12   20     -1.57      0.00
  -15   12   20      0.18      0.00
  -14   12   20      0.83      0.00
  -13   12   20      1.27      0.00
  -12   12   20     -0.08      0.00
  -11   12   20     -0.73      0.00
  -10   12   20     -2.76      0.00
   -9   12   20     -1.36      0.00
   -8   12   20      2.54      0.00
   -7   12   20      1.95      0.00
   -6   12   20      1.08      0.00
   -5   12   20      0.89      0.00
   -4   12   20     -0.55      0.00
  -18   13   20     -0.77      0.00
  -17   13   20     -1.81      0.00
  -16   13   20      0.41      0.00
  -15   13   20      2.08      0.00
  -14   13   20      0.44      0.00
  -13   13   20     -3.69      0.00
  -12   13   20     -2.33      0.00
  -11   13   20      1.44      0.00
  -10   13   20     -2.25      0.00
   -9   13   20      1.19      0.00
   -8   13   20      0.83      0.00
   -7   13   20     -1.34      0.00
   -6   13   20      6.17      0.00
  -16   14   20     -1.13      0.00
  -15   14   20      1.89      0.00
  -14   14   20      0.28      0.00
  -13   14   20      1.45      0.00
  -12   14   20     -2.92      0.00
  -11   14   20     -1.14      0.00
  -10   14   20      0.31      0.00
   -9   14   20      1.08      0.00
   -8   14   20      0.24      0.00
  -14   15   20     -0.57      0.00
  -13   15   20      0.43      0.00
  -12   15   20     -4.53      0.00
  -11   15   20      3.60      0.00
  -10   15   20      1.22      0.00
   -2  -14   21     -1.66      0.00
   -1  -14   21     -1.60      0.00
    0  -14   21      0.88      0.00
    1  -14   21      3.48      0.00
    2  -14   21      1.06      0.00
   -5  -13   21      1.47      0.00
   -4  -13   21      3.37      0.00
   -3  -13   21     -0.56      0.00
   -2  -13   21      0.68      0.00
   -1  -13   21     -1.57      0.00
    0  -13   21     -1.73      0.00
    1  -13   21      4.50      0.00
    2  -13   21     -0.23      0.00
    3  -13   21     -3.39      0.00
    4  -13   21      1.18      0.00
   -7  -12   21      3.40      0.00
   -6  -12   21     -0.36      0.00
   -5  -12   21     -1.12      0.00
   -4  -12   21     -2.75      0.00
   -3  -12   21     -0.43      0.00
   -2  -12   21      2.92      0.00
   -1  -12   21      2.48      0.00
    0  -12   21     -1.29      0.00
    1  -12   21     -1.00      0.00
    2  -12   21     -3.43      0.00
    3  -12   21      1.86      0.00
    4  -12   21     -0.65      0.00
    5  -12   21      0.51      0.00
   -8  -11   21      0.01      0.00
   -7  -11   21     -4.22      0.00
   -6  -11   21      1.41      0.00
   -5  -11   21      2.12      0.00
   -4  -11   21      2.65      0.00
   -3  -11   21     -0.23      0.00
   -2  -11   21     -4.91      0.00
   -1  -11   21     -0.69      0.00
    0  -11   21      0.44      0.00
    1  -11   21      0.15      0.00
    2  -11   21     -1.41      0.00
    3  -11   21     -0.13      0.00
    4  -11   21      1.68      0.00
    5  -11   21     -0.20      0.00
   -9  -10   21      2.07      0.00
   -8  -10   21      2.78      0.00
   -7  -10   21     -0.63      0.00
   -6  -10   21     -0.38      0.00
   -5  -10   21     -1.22      0.00
   -4  -10   21      5.52      0.00
   -3  -10   21      3.31      0.00
   -2  -10   21      2.11      0.00
   -1  -10   21     -0.27      0.00
    0  -10   21     -6.26      0.00
    1  -10   21      4.04      0.00
    2  -10   21     -3.09      0.00
    3  -10   21      0.80      0.00
    4  -10   21      1.16      0.00
    5  -10   21     -0.52      0.00
    6  -10   21     -3.56      0.00
  -11   -9   21      1.14      0.00
  -10   -9   21      1.03      0.00
   -9   -9   21     -3.52      0.00
   -8   -9   21     -5.59      0.00
   -7   -9   21     -0.25      0.00
   -6   -9   21      5.01      0.00
   -5   -9   21      0.05      0.00
   -4   -9   21     -0.75      0.00
   -3   -9   21     -2.81      0.00
   -2   -9   21      0.20      0.00
   -1   -9   21     -1.45      0.00
    0   -9   21     -3.17      0.00
    1   -9   21      4.17      0.00
    2   -9   21     -0.69      0.00
    3   -9   21      0.15      0.00
    4   -9   21      1.06      0.00
    5   -9   21      3.20      0.00
    6   -9   21     -1.38      0.00
  -12   -8   21      0.09      0.00
  -11   -8   21     -2.11      0.00
  -10   -8   21     -0.50      0.00
   -9   -8   21     -1.24      0.00
   -8   -8   21     -0.46      0.00
   -7   -8   21     -1.78      0.00
   -6   -8   21      0.47      0.00
   -5   -8   21      3.50      0.00
   -4   -8   21      4.64      0.00
   -3   -8   21      0.63      0.00
   -2   -8   21     -0.10      0.00
   -1   -8   21     -3.04      0.00
    0   -8   21     -1.50      0.00
    1   -8   21      4.04      0.00
    2   -8   21      3.74      0.00
    3   -8   21      2.70      0.00
    4   -8   21     -4.72      0.00
    5   -8   21     -2.05      0.00
    6   -8   21      1.00      0.00
  -12   -7   21     -1.54      0.00
  -11   -7   21     -1.75      0.00
  -10   -7   21     -6.74      0.00
   -9   -7   21     -0.20      0.00
   -8   -7   21     -1.27      0.00
   -7   -7   21      0.82      0.00
   -6   -7   21     -0.07      0.00
   -5   -7   21      3.10      0.00
   -4   -7   21      0.90      0.00
   -3   -7   21     -3.51      0.00
   -2   -7   21      0.31      0.00
   -1   -7   21      2.87      0.00
    0   -7   21     -2.85      0.00
    1   -7   21      0.77      0.00
    2   -7   21      0.74      0.00
    3   -7   21      3.05      0.00
    4   -7   21      3.55      0.00
    5   -7   21      0.23      0.00
    6   -7   21     -4.16      0.00
  -13   -6   21     -1.29      0.00
  -12   -6   21     -1.77      0.00
  -11   -6   21      0.40      0.00
  -10   -6   21      1.19      0.00
   -9   -6   21     -0.20      0.00
   -8   -6   21     -3.71      0.00
   -7   -6   21      3.71      0.00
   -6   -6   21      1.48      0.00
   -5   -6   21     -0.98      0.00
   -4   -6   21     -1.17      0.00
   -3   -6   21     -1.55      0.00
   -2   -6   21      1.50      0.00
   -1   -6   21      2.74      0.00
    0   -6   21      0.14      0.00
    1   -6   21      3.31      0.00
    2   -6   21     -2.67      0.00
    3   -6   21     -1.29      0.00
    4   -6   21     -1.49      0.00
    5   -6   21     -0.96      0.00
    6   -6   21     -0.35      0.00
  -14   -5   21     -2.49      0.00
  -13   -5   21      2.35      0.00
  -12   -5   21     -2.57      0.00
  -11   -5   21     -2.33      0.00
  -10   -5   21     -5.51      0.00
   -9   -5   21      6.03      0.00
   -8   -5   21     -1.70      0.00
   -7   -5   21      1.68      0.00
   -6   -5   21     -0.71      0.00
   -5   -5   21      5.60      0.00
   -4   -5   21      1.62      0.00
   -3   -5   21      1.38      0.00
   -2   -5   21     -2.15      0.00
   -1   -5   21      3.33      0.00
    0   -5   21     -1.03      0.00
    1   -5   21     -0.80      0.00
    2   -5   21     -0.81      0.00
    3   -5   21      0.96      0.00
    4   -5   21      0.06      0.00
    5   -5   21     -0.32      0.00
    6   -5   21     -3.05      0.00
  -14   -4   21     -9.68      0.00
  -13   -4   21      2.49      0.00
  -12   -4   21     -1.81      0.00
  -11   -4   21      1.71      0.00
  -10   -4   21      1.30      0.00
   -9   -4   21      4.94      0.00
   -8   -4   21     -7.71      0.00
   -7   -4   21      0.81      0.00
   -6   -4   21     -0.64      0.00
   -5   -4   21     -0.04      0.00
   -4   -4   21     -2.24      0.00
   -3   -4   21      0.09      0.00
   -2   -4   21     -3.67      0.00
   -1   -4   21      4.50      0.00
    0   -4   21     -1.76      0.00
    1   -4   21      4.44      0.00
    2   -4   21     -2.36      0.00
    3   -4   21     -0.91      0.00
    4   -4   21     -3.02      0.00
    5   -4   21      4.06      0.00
    6   -4   21     -0.57      0.00
  -15   -3   21      1.36      0.00
  -14   -3   21      0.28      0.00
  -13   -3   21      4.36      0.00
  -12   -3   21     -2.64      0.00
  -11   -3   21      2.17      0.00
  -10   -3   21     -1.87      0.00
   -9   -3   21     -0.73      0.00
   -8   -3   21     -0.84      0.00
   -7   -3   21      3.94      0.00
   -6   -3   21     -2.12      0.00
   -5   -3   21      3.07      0.00
   -4   -3   21     -0.31      0.00
   -3   -3   21      4.03      0.00
   -2   -3   21     -1.39      0.00
   -1   -3   21      1.10      0.00
    0   -3   21     -4.13      0.00
    1   -3   21     -0.12      0.00
    2   -3   21     -0.82      0.00
    3   -3   21      1.09      0.00
    4   -3   21     -1.42      0.00
    5   -3   21      3.40      0.00
    6   -3   21      1.20      0.00
  -16   -2   21     -6.10      0.00
  -15   -2   21      2.49      0.00
  -14   -2   21     -2.98      0.00
  -13   -2   21     -3.20      0.00
  -12   -2   21     -3.87      0.00
  -11   -2   21      2.42      0.00
  -10   -2   21     -0.96      0.00
   -9   -2   21      1.05      0.00
   -8   -2   21     -0.68      0.00
   -7   -2   21      1.20      0.00
   -6   -2   21     -2.37      0.00
   -5   -2   21     -2.02      0.00
   -4   -2   21     -2.64      0.00
   -3   -2   21      1.43      0.00
   -2   -2   21     -3.17      0.00
   -1   -2   21      4.42      0.00
    0   -2   21     -2.78      0.00
    1   -2   21      0.54      0.00
    2   -2   21      0.33      0.00
    3   -2   21      2.98      0.00
    4   -2   21     -2.33      0.00
    5   -2   21     -0.94      0.00
  -16   -1   21     -4.29      0.00
  -15   -1   21     -0.19      0.00
  -14   -1   21      1.77      0.00
  -13   -1   21      4.06      0.00
  -12   -1   21     -1.49      0.00
  -11   -1   21     -2.13      0.00
  -10   -1   21     -2.48      0.00
   -9   -1   21      2.73      0.00
   -8   -1   21     -2.82      0.00
   -7   -1   21     -2.68      0.00
   -6   -1   21     -0.21      0.00
   -5   -1   21      2.18      0.00
   -4   -1   21      2.67      0.00
   -3   -1   21      2.73      0.00
   -2   -1   21     -0.23      0.00
   -1   -1   21      3.40      0.00
    0   -1   21     -0.64      0.00
    1   -1   21     -5.10      0.00
    2   -1   21      0.61      0.00
    3   -1   21      2.16      0.00
    4   -1   21     -0.17      0.00
    5   -1   21      0.14      0.00
  -17    0   21      0.08      0.00
  -16    0   21     -1.53      0.00
  -15    0   21     -3.59      0.00
  -14    0   21     -1.48      0.00
  -13    0   21     -4.21      0.00
  -12    0   21     -4.99      0.00
  -11    0   21     -3.89      0.00
  -10    0   21      4.67      0.00
   -9    0   21      0.17      0.00
   -8    0   21      3.58      0.00
   -7    0   21     -1.27      0.00
   -6    0   21     -0.87      0.00
   -5    0   21     -3.50      0.00
   -4    0   21     -1.63      0.00
   -3    0   21      1.97      0.00
   -2    0   21      0.06      0.00
   -1    0   21      0.43      0.00
    0    0   21     -0.11      0.00
    1    0   21      2.22      0.00
    2    0   21     -0.09      0.00
    3    0   21      2.23      0.00
    4    0   21      1.81      0.00
    5    0   21     -0.61      0.00
  -17    1   21     -1.40      0.00
  -16    1   21     -4.18      0.00
  -15    1   21      2.02      0.00
  -14    1   21      1.03      0.00
  -13    1   21      4.00      0.00
  -12    1   21      0.06      0.00
  -11    1   21     -0.03      0.00
  -10    1   21      0.16      0.00
   -9    1   21     -1.37      0.00
   -8    1   21     -2.01      0.00
   -7    1   21     -1.71      0.00
   -6    1   21      3.89      0.00
   -5    1   21     -1.93      0.00
   -4    1   21      3.75      0.00
   -3    1   21      6.20      0.00
   -2    1   21      2.52      0.00
   -1    1   21     -4.53      0.00
    0    1   21     -0.97      0.00
    1    1   21     -3.13      0.00
    2    1   21      2.60      0.00
    3    1   21     -1.85      0.00
    4    1   21     -0.01      0.00
  -17    2   21     -0.08      0.00
  -16    2   21      0.95      0.00
  -15    2   21     -3.27      0.00
  -14    2   21     -7.04      0.00
  -13    2   21     -0.72      0.00
  -12    2   21     -0.31      0.00
  -11    2   21     -0.10      0.00
  -10    2   21      0.30      0.00
   -9    2   21     -0.45      0.00
   -8    2   21      4.82      0.00
   -7    2   21     -0.69      0.00
   -6    2   21      0.44      0.00
   -5    2   21      1.83      0.00
   -4    2   21     -3.03      0.00
   -3    2   21     -0.67      0.00
   -2    2   21     -1.13      0.00
   -1    2   21      1.90      0.00
    0    2   21      3.54      0.00
    1    2   21     -1.35      0.00
    2    2   21      1.02      0.00
    3    2   21      1.27      0.00
  -18    3   21     -4.49      0.00
  -17    3   21     -2.73      0.00
  -16    3   21     -0.77      0.00
  -15    3   21      6.50      0.00
  -14    3   21     -0.78      0.00
  -13    3   21     -2.63      0.00
  -12    3   21      1.87      0.00
  -11    3   21      1.76      0.00
  -10    3   21      0.52      0.00
   -9    3   21     -2.22      0.00
   -8    3   21     -0.85      0.00
   -7    3   21     -0.61      0.00
   -6    3   21      2.39      0.00
   -5    3   21      2.12      0.00
   -4    3   21      3.20      0.00
   -3    3   21      6.97      0.00
   -2    3   21     -1.45      0.00
   -1    3   21     -1.89      0.00
    0    3   21      0.55      0.00
    1    3   21     -1.08      0.00
    2    3   21      0.69      0.00
    3    3   21     -4.27      0.00
  -18    4   21     -4.76      0.00
  -17    4   21      0.81      0.00
  -16    4   21      1.28      0.00
  -15    4   21      2.30      0.00
  -14    4   21     -4.86      0.00
  -13    4   21      1.63      0.00
  -12    4   21     -2.05      0.00
  -11    4   21      2.83      0.00
  -10    4   21     -2.47      0.00
   -9    4   21      0.93      0.00
   -8    4   21      2.13      0.00
   -7    4   21     -0.47      0.00
   -6    4   21      1.77      0.00
   -5    4   21     -0.20      0.00
   -4    4   21     -6.58      0.00
   -3    4   21      2.81      0.00
   -2    4   21      1.10      0.00
   -1    4   21      0.30      0.00
    0    4   21     -1.08      0.00
    1    4   21     -0.31      0.00
    2    4   21      2.10      0.00
  -19    5   21     -2.06      0.00
  -18    5   21     -0.14      0.00
  -17    5   21      0.08      0.00
  -16    5   21     -1.84      0.00
  -15    5   21      0.00      0.00
  -14    5   21      0.56      0.00
  -13    5   21      1.47      0.00
  -12    5   21     -4.62      0.00
  -11    5   21      0.97      0.00
  -10    5   21      0.71      0.00
   -9    5   21      1.73      0.00
   -8    5   21     -2.79      0.00
   -7    5   21     -0.55      0.00
   -6    5   21     -0.20      0.00
   -5    5   21      5.57      0.00
   -4    5   21     -0.79      0.00
   -3    5   21      0.68      0.00
   -2    5   21     -0.01      0.00
   -1    5   21      1.33      0.00
    0    5   21      2.80      0.00
    1    5   21     -2.75      0.00
  -19    6   21     -4.50      0.00
  -18    6   21      0.03      0.00
  -17    6   21      0.07      0.00
  -16    6   21     -3.48      0.00
  -15    6   21     -0.22      0.00
  -14    6   21     -1.93      0.00
  -13    6   21     -2.22      0.00
  -12    6   21     -0.33      0.00
  -11    6   21      3.70      0.00
  -10    6   21     -6.37      0.00
   -9    6   21      3.74      0.00
   -8    6   21      1.22      0.00
   -7    6   21      0.91      0.00
   -6    6   21      0.89      0.00
   -5    6   21      0.45      0.00
   -4    6   21     -1.96      0.00
   -3    6   21      3.08      0.00
   -2    6   21     -1.98      0.00
   -1    6   21     -2.04      0.00
    0    6   21      0.19      0.00
    1    6   21      1.87      0.00
  -19    7   21     -1.54      0.00
  -18    7   21     -0.01      0.00
  -17    7   21      1.40      0.00
  -16    7   21     -0.28      0.00
  -15    7   21      2.91      0.00
  -14    7   21     -2.33      0.00
  -13    7   21     -0.37      0.00
  -12    7   21      0.01      0.00
  -11    7   21     -1.94      0.00
  -10    7   21     -3.00      0.00
   -9    7   21     -0.21      0.00
   -8    7   21     -1.93      0.00
   -7    7   21      1.90      0.00
   -6    7   21     -2.50      0.00
   -5    7   21      1.13      0.00
   -4    7   21     -0.49      0.00
   -3    7   21      1.01      0.00
   -2    7   21      3.24      0.00
   -1    7   21     -0.06      0.00
    0    7   21     -0.33      0.00
  -19    8   21     -6.66      0.00
  -18    8   21      0.71      0.00
  -17    8   21     -2.25      0.00
  -16    8   21     -0.14      0.00
  -15    8   21     -3.26      0.00
  -14    8   21     -2.13      0.00
  -13    8   21      1.14      0.00
  -12    8   21     -2.26      0.00
  -11    8   21     -1.66      0.00
  -10    8   21     -0.11      0.00
   -9    8   21      0.70      0.00
   -8    8   21     -3.42      0.00
   -7    8   21      0.29      0.00
   -6    8   21      0.34      0.00
   -5    8   21      0.41      0.00
   -4    8   21     -0.50      0.00
   -3    8   21     -0.98      0.00
   -2    8   21      0.04      0.00
   -1    8   21      0.35      0.00
  -18    9   21     -1.07      0.00
  -17    9   21      1.53      0.00
  -16    9   21      0.72      0.00
  -15    9   21     -0.69      0.00
  -14    9   21      0.64      0.00
  -13    9   21     -2.85      0.00
  -12    9   21     -0.69      0.00
  -11    9   21     -0.11      0.00
  -10    9   21     -1.17      0.00
   -9    9   21      2.19      0.00
   -8    9   21      1.02      0.00
   -7    9   21     -0.18      0.00
   -6    9   21      0.82      0.00
   -5    9   21      0.06      0.00
   -4    9   21     -0.19      0.00
   -3    9   21     -0.71      0.00
   -2    9   21      2.26      0.00
  -18   10   21      2.15      0.00
  -17   10   21     -0.69      0.00
  -16   10   21     -1.19      0.00
  -15   10   21     -3.45      0.00
  -14   10   21     -3.78      0.00
  -13   10   21     -0.77      0.00
  -12   10   21     -0.38      0.00
  -11   10   21     -0.01      0.00
  -10   10   21     -1.66      0.00
   -9   10   21     -5.13      0.00
   -8   10   21     -0.83      0.00
   -7   10   21      3.01      0.00
   -6   10   21      1.60      0.00
   -5   10   21     -0.33      0.00
   -4   10   21      1.20      0.00
   -3   10   21     -2.48      0.00
  -18   11   21      1.64      0.00
  -17   11   21     -0.62      0.00
  -16   11   21     -0.65      0.00
  -15   11   21     -1.23      0.00
  -14   11   21      3.68      0.00
  -13   11   21     -0.88      0.00
  -12   11   21     -4.70      0.00
  -11   11   21     -1.70      0.00
  -10   11   21      1.83      0.00
   -9   11   21      2.74      0.00
   -8   11   21      3.14      0.00
   -7   11   21     -1.74      0.00
   -6   11   21      0.23      0.00
   -5   11   21      1.03      0.00
  -17   12   21     -1.87      0.00
  -16   12   21     -1.72      0.00
  -15   12   21      0.10      0.00
  -14   12   21     -0.52      0.00
  -13   12   21      0.40      0.00
  -12   12   21     -2.91      0.00
  -11   12   21     -0.70      0.00
  -10   12   21     -0.30      0.00
   -9   12   21      2.86      0.00
   -8   12   21      1.57      0.00
   -7   12   21     -4.38      0.00
   -6   12   21      1.22      0.00
  -16   13   21      0.40      0.00
  -15   13   21     -0.70      0.00
  -14   13   21     -4.37      0.00
  -13   13   21      0.41      0.00
  -12   13   21      0.87      0.00
  -11   13   21     -1.84      0.00
  -10   13   21      2.16      0.00
   -9   13   21      0.18      0.00
   -8   13   21      2.13      0.00
  -14   14   21     -3.11      0.00
  -13   14   21     -0.03      0.00
  -12   14   21     -2.42      0.00
  -11   14   21      4.30      0.00
  -10   14   21      0.59      0.00
   -2  -13   22     -1.42      0.00
   -1  -13   22     -0.10      0.00
    0  -13   22      3.60      0.00
    1  -13   22      2.07      0.00
   -5  -12   22      0.13      0.00
   -4  -12   22      2.37      0.00
   -3  -12   22      1.97      0.00
   -2  -12   22      1.31      0.00
   -1  -12   22     -1.61      0.00
    0  -12   22     -4.09      0.00
    1  -12   22      0.39      0.00
    2  -12   22      2.26      0.00
    3  -12   22     -3.30      0.00
   -7  -11   22      5.13      0.00
   -6  -11   22      1.22      0.00
   -5  -11   22      0.78      0.00
   -4  -11   22     -2.26      0.00
   -3  -11   22     -2.34      0.00
   -2  -11   22     -0.73      0.00
   -1  -11   22      5.96      0.00
    0  -11   22     -3.77      0.00
    1  -11   22      3.38      0.00
    2  -11   22      3.70      0.00
    3  -11   22      1.87      0.00
    4  -11   22      0.02      0.00
   -8  -10   22     -3.89      0.00
   -7  -10   22     -2.65      0.00
   -6  -10   22     -0.16      0.00
   -5  -10   22      0.27      0.00
   -4  -10   22     -0.12      0.00
   -3  -10   22     -1.23      0.00
   -2  -10   22     -4.58      0.00
   -1  -10   22     -0.56      0.00
    0  -10   22      0.53      0.00
    1  -10   22      0.38      0.00
    2  -10   22     -2.11      0.00
    3  -10   22      0.68      0.00
    4  -10   22      0.16      0.00
  -10   -9   22     -2.56      0.00
   -9   -9   22     -1.00      0.00
   -8   -9   22      1.61      0.00
   -7   -9   22      7.14      0.00
   -6   -9   22     -0.72      0.00
   -5   -9   22     -1.90      0.00
   -4   -9   22     -1.35      0.00
   -3   -9   22      2.52      0.00
   -2   -9   22      0.32      0.00
   -1   -9   22      4.09      0.00
    0   -9   22      1.14      0.00
    1   -9   22      1.01      0.00
    2   -9   22      1.94      0.00
    3   -9   22      1.48      0.00
    4   -9   22      0.71      0.00
    5   -9   22     -1.02      0.00
  -11   -8   22     -1.61      0.00
  -10   -8   22     -3.92      0.00
   -9   -8   22     -2.57      0.00
   -8   -8   22     -4.24      0.00
   -7   -8   22     -3.16      0.00
   -6   -8   22      3.93      0.00
   -5   -8   22     -0.84      0.00
   -4   -8   22     -2.63      0.00
   -3   -8   22     -4.57      0.00
   -2   -8   22     -2.75      0.00
   -1   -8   22      5.72      0.00
    0   -8   22      1.70      0.00
    1   -8   22      2.96      0.00
    2   -8   22     -1.51      0.00
    3   -8   22     -3.20      0.00
    4   -8   22     -0.63      0.00
    5   -8   22      7.07      0.00
  -12   -7   22      2.42      0.00
  -11   -7   22     -2.91      0.00
  -10   -7   22     -1.20      0.00
   -9   -7   22      4.87      0.00
   -8   -7   22     -0.67      0.00
   -7   -7   22     -2.26      0.00
   -6   -7   22      6.16      0.00
   -5   -7   22      1.27      0.00
   -4   -7   22      1.78      0.00
   -3   -7   22      0.20      0.00
   -2   -7   22      3.80      0.00
   -1   -7   22     -0.58      0.00
    0   -7   22      0.45      0.00
    1   -7   22      1.85      0.00
    2   -7   22      2.82      0.00
    3   -7   22      0.23      0.00
    4   -7   22     -2.51      0.00
    5   -7   22     -2.01      0.00
  -12   -6   22      1.79      0.00
  -11   -6   22      1.36      0.00
  -10   -6   22     -6.44      0.00
   -9   -6   22     -0.77      0.00
   -8   -6   22      3.09      0.00
   -7   -6   22     -2.42      0.00
   -6   -6   22     -0.12      0.00
   -5   -6   22     -2.15      0.00
   -4   -6   22      7.01      0.00
   -3   -6   22      0.56      0.00
   -2   -6   22      2.29      0.00
   -1   -6   22      1.48      0.00
    0   -6   22      1.64      0.00
    1   -6   22     -4.74      0.00
    2   -6   22     -1.44      0.00
    3   -6   22      1.88      0.00
    4   -6   22      1.07      0.00
    5   -6   22      3.70      0.00
  -13   -5   22     -2.16      0.00
  -12   -5   22     -2.59      0.00
  -11   -5   22      0.23      0.00
  -10   -5   22      4.14      0.00
   -9   -5   22      1.88      0.00
   -8   -5   22     -1.50      0.00
   -7   -5   22      1.61      0.00
   -6   -5   22      5.72      0.00
   -5   -5   22      0.24      0.00
   -4   -5   22      3.25      0.00
   -3   -5   22     -2.19      0.00
   -2   -5   22     -1.69      0.00
   -1   -5   22     -1.00      0.00
    0   -5   22     -1.27      0.00
    1   -5   22     -1.05      0.00
    2   -5   22      2.29      0.00
    3   -5   22     -1.86      0.00
    4   -5   22     -3.22      0.00
    5   -5   22     -0.62      0.00
  -14   -4   22      5.35      0.00
  -13   -4   22      2.97      0.00
  -12   -4   22     -2.73      0.00
  -11   -4   22      2.05      0.00
  -10   -4   22     -2.02      0.00
   -9   -4   22     -4.10      0.00
   -8   -4   22      0.59      0.00
   -7   -4   22      2.77      0.00
   -6   -4   22      4.01      0.00
   -5   -4   22      0.71      0.00
   -4   -4   22      3.87      0.00
   -3   -4   22      0.45      0.00
   -2   -4   22      4.41      0.00
   -1   -4   22      0.27      0.00
    0   -4   22      1.07      0.00
    1   -4   22     -1.76      0.00
    2   -4   22      0.51      0.00
    3   -4   22      0.08      0.00
    4   -4   22      0.84      0.00
    5   -4   22     -0.41      0.00
  -14   -3   22      2.45      0.00
  -13   -3   22     -2.03      0.00
  -12   -3   22     -2.88      0.00
  -11   -3   22      3.13      0.00
  -10   -3   22     -3.96      0.00
   -9   -3   22      4.64      0.00
   -8   -3   22      3.09      0.00
   -7   -3   22      0.85      0.00
   -6   -3   22      0.27      0.00
   -5   -3   22     -1.11      0.00
   -4   -3   22     -2.22      0.00
   -3   -3   22      2.37      0.00
   -2   -3   22     -6.15      0.00
   -1   -3   22     -4.36      0.00
    0   -3   22     -1.83      0.00
    1   -3   22      0.93      0.00
    2   -3   22      0.88      0.00
    3   -3   22      2.07      0.00
    4   -3   22     -1.20      0.00
  -15   -2   22      2.26      0.00
  -14   -2   22     -2.30      0.00
  -13   -2   22      5.12      0.00
  -12   -2   22      0.22      0.00
  -11   -2   22      0.18      0.00
  -10   -2   22     -5.05      0.00
   -9   -2   22      2.01      0.00
   -8   -2   22     -1.93      0.00
   -7   -2   22      0.14      0.00
   -6   -2   22      0.73      0.00
   -5   -2   22      1.95      0.00
   -4   -2   22      0.46      0.00
   -3   -2   22      2.16      0.00
   -2   -2   22      0.93      0.00
   -1   -2   22      0.50      0.00
    0   -2   22     -1.11      0.00
    1   -2   22      0.73      0.00
    2   -2   22     -0.91      0.00
    3   -2   22      0.87      0.00
    4   -2   22     -2.78      0.00
  -15   -1   22     -0.01      0.00
  -14   -1   22     -0.73      0.00
  -13   -1   22     -0.21      0.00
  -12   -1   22     -3.97      0.00
  -11   -1   22     -0.57      0.00
  -10   -1   22     -0.10      0.00
   -9   -1   22      3.19      0.00
   -8   -1   22     -0.34      0.00
   -7   -1   22      2.89      0.00
   -6   -1   22     -0.76      0.00
   -5   -1   22      2.24      0.00
   -4   -1   22     -4.32      0.00
   -3   -1   22      1.24      0.00
   -2   -1   22     -1.83      0.00
   -1   -1   22      0.09      0.00
    0   -1   22     -4.71      0.00
    1   -1   22      3.23      0.00
    2   -1   22     -2.09      0.00
    3   -1   22      0.82      0.00
    4   -1   22     -1.48      0.00
  -16    0   22      0.00      0.00
  -15    0   22      2.98      0.00
  -14    0   22     -5.56      0.00
  -13    0   22      1.09      0.00
  -12    0   22      1.87      0.00
  -11    0   22      3.30      0.00
  -10    0   22     -2.64      0.00
   -9    0   22     -2.11      0.00
   -8    0   22     -1.03      0.00
   -7    0   22     -1.72      0.00
   -6    0   22     -3.28      0.00
   -5    0   22      0.62      0.00
   -4    0   22      0.80      0.00
   -3    0   22      4.13      0.00
   -2    0   22     -0.78      0.00
   -1    0   22     -0.83      0.00
    0    0   22      2.18      0.00
    1    0   22      1.06      0.00
    2    0   22     -1.81      0.00
    3    0   22      1.19      0.00
  -16    1   22      6.32      0.00
  -15    1   22      0.18      0.00
  -14    1   22     -4.69      0.00
  -13    1   22     -4.55      0.00
  -12    1   22     -4.03      0.00
  -11    1   22      0.39      0.00
  -10    1   22     -1.63      0.00
   -9    1   22     -2.14      0.00
   -8    1   22      2.02      0.00
   -7    1   22      3.91      0.00
   -6    1   22     -1.20      0.00
   -5    1   22      2.98      0.00
   -4    1   22     -0.25      0.00
   -3    1   22     -0.25      0.00
   -2    1   22     -3.55      0.00
   -1    1   22     -1.65      0.00
    0    1   22      2.12      0.00
    1    1   22      2.38      0.00
    2    1   22     -3.75      0.00
    3    1   22      0.29      0.00
  -17    2   22      0.48      0.00
  -16    2   22     -2.80      0.00
  -15    2   22     -0.35      0.00
  -14    2   22      1.85      0.00
  -13    2   22     -1.92      0.00
  -12    2   22      2.29      0.00
  -11    2   22     -1.84      0.00
  -10    2   22      3.10      0.00
   -9    2   22     -1.55      0.00
   -8    2   22     -2.55      0.00
   -7    2   22     -1.77      0.00
   -6    2   22     -0.32      0.00
   -5    2   22      1.65      0.00
   -4    2   22     -0.01      0.00
   -3    2   22      3.42      0.00
   -2    2   22      2.93      0.00
   -1    2   22     -0.36      0.00
    0    2   22     -1.89      0.00
    1    2   22     -0.83      0.00
    2    2   22      0.46      0.00
  -17    3   22      0.40      0.00
  -16    3   22      2.65      0.00
  -15    3   22     -1.70      0.00
  -14    3   22     -7.71      0.00
  -13    3   22     -1.95      0.00
  -12    3   22     -0.17      0.00
  -11    3   22     -1.67      0.00
  -10    3   22     -0.47      0.00
   -9    3   22     -0.98      0.00
   -8    3   22      4.17      0.00
   -7    3   22     -0.25      0.00
   -6    3   22      0.96      0.00
   -5    3   22      2.89      0.00
   -4    3   22      0.39      0.00
   -3    3   22     -3.58      0.00
   -2    3   22      2.61      0.00
   -1    3   22     -0.57      0.00
    0    3   22      0.45      0.00
    1    3   22     -0.26      0.00
    2    3   22     -2.09      0.00
  -18    4   22      2.22      0.00
  -17    4   22      2.04      0.00
  -16    4   22     -3.71      0.00
  -15    4   22     -3.20      0.00
  -14    4   22      2.45      0.00
  -13    4   22     -1.51      0.00
  -12    4   22      1.27      0.00
  -11    4   22     -1.20      0.00
  -10    4   22     -0.71      0.00
   -9    4   22      1.13      0.00
   -8    4   22     -2.36      0.00
   -7    4   22      0.04      0.00
   -6    4   22      0.10      0.00
   -5    4   22      1.05      0.00
   -4    4   22      2.66      0.00
   -3    4   22      1.13      0.00
   -2    4   22      0.63      0.00
   -1    4   22     -2.87      0.00
    0    4   22      0.75      0.00
    1    4   22      1.31      0.00
  -18    5   22      1.51      0.00
  -17    5   22      0.43      0.00
  -16    5   22     -2.66      0.00
  -15    5   22     -0.39      0.00
  -14    5   22     -1.43      0.00
  -13    5   22     -1.77      0.00
  -12    5   22     -0.99      0.00
  -11    5   22      2.23      0.00
  -10    5   22      1.01      0.00
   -9    5   22     -3.14      0.00
   -8    5   22      2.35      0.00
   -7    5   22      0.57      0.00
   -6    5   22      3.33      0.00
   -5    5   22      0.56      0.00
   -4    5   22     -2.11      0.00
   -3    5   22     -1.36      0.00
   -2    5   22      1.60      0.00
   -1    5   22     -0.40      0.00
    0    5   22     -1.53      0.00
  -18    6   22      0.26      0.00
  -17    6   22     -0.76      0.00
  -16    6   22     -1.56      0.00
  -15    6   22     -0.09      0.00
  -14    6   22     -0.03      0.00
  -13    6   22      3.83      0.00
  -12    6   22      1.95      0.00
  -11    6   22     -0.73      0.00
  -10    6   22     -1.20      0.00
   -9    6   22      2.51      0.00
   -8    6   22     -0.84      0.00
   -7    6   22      0.31      0.00
   -6    6   22     -1.84      0.00
   -5    6   22      0.46      0.00
   -4    6   22      1.89      0.00
   -3    6   22     -2.67      0.00
   -2    6   22     -1.29      0.00
  -18    7   22      1.38      0.00
  -17    7   22      2.12      0.00
  -16    7   22     -0.77      0.00
  -15    7   22     -0.10      0.00
  -14    7   22     -2.72      0.00
  -13    7   22      1.20      0.00
  -12    7   22     -2.52      0.00
  -11    7   22     -0.14      0.00
  -10    7   22     -0.25      0.00
   -9    7   22     -0.66      0.00
   -8    7   22      3.54      0.00
   -7    7   22      0.35      0.00
   -6    7   22     -0.68      0.00
   -5    7   22     -0.20      0.00
   -4    7   22     -0.08      0.00
   -3    7   22      1.08      0.00
   -2    7   22     -0.22      0.00
   -1    7   22      0.92      0.00
  -18    8   22      0.36      0.00
  -17    8   22      0.06      0.00
  -16    8   22      0.93      0.00
  -15    8   22     -0.54      0.00
  -14    8   22      3.31      0.00
  -13    8   22      1.87      0.00
  -12    8   22     -3.64      0.00
  -11    8   22      4.35      0.00
  -10    8   22     -0.21      0.00
   -9    8   22     -0.09      0.00
   -8    8   22     -0.79      0.00
   -7    8   22      0.45      0.00
   -6    8   22     -1.68      0.00
   -5    8   22      0.15      0.00
   -4    8   22     -1.05      0.00
   -3    8   22     -1.31      0.00
  -18    9   22     -0.90      0.00
  -17    9   22      2.19      0.00
  -16    9   22      0.03      0.00
  -15    9   22      0.24      0.00
  -14    9   22     -1.33      0.00
  -13    9   22      0.52      0.00
  -12    9   22      1.34      0.00
  -11    9   22     -0.51      0.00
  -10    9   22      0.79      0.00
   -9    9   22      2.72      0.00
   -8    9   22     -2.99      0.00
   -7    9   22      1.50      0.00
   -6    9   22     -1.56      0.00
   -5    9   22      0.39      0.00
   -4    9   22     -1.36      0.00
  -17   10   22     -1.83      0.00
  -16   10   22      0.92      0.00
  -15   10   22     -1.42      0.00
  -14   10   22      1.82      0.00
  -13   10   22      1.91      0.00
  -12   10   22     -0.52      0.00
  -11   10   22      0.68      0.00
  -10   10   22     -3.48      0.00
   -9   10   22      4.10      0.00
   -8   10   22      4.28      0.00
   -7   10   22     -1.97      0.00
   -6   10   22     -2.84      0.00
   -5   10   22      0.91      0.00
  -17   11   22     -1.78      0.00
  -16   11   22      0.91      0.00
  -15   11   22      2.46      0.00
  -14   11   22     -1.21      0.00
  -13   11   22     -2.71      0.00
  -12   11   22      0.46      0.00
  -11   11   22      2.71      0.00
  -10   11   22      0.99      0.00
   -9   11   22      2.10      0.00
   -8   11   22     -5.36      0.00
   -7   11   22     -0.90      0.00
   -6   11   22     -2.21      0.00
  -16   12   22      2.74      0.00
  -15   12   22     -0.33      0.00
  -14   12   22     -2.50      0.00
  -13   12   22     -0.37      0.00
  -12   12   22      1.36      0.00
  -11   12   22      0.70      0.00
  -10   12   22      3.01      0.00
   -9   12   22     -1.12      0.00
   -8   12   22     -1.98      0.00
  -14   13   22     -0.91      0.00
  -13   13   22      1.88      0.00
  -12   13   22     -0.23      0.00
  -11   13   22      2.18      0.00
   -2  -12   23     -2.28      0.00
   -1  -12   23     -0.78      0.00
   -5  -11   23     -1.15      0.00
   -4  -11   23      0.03      0.00
   -3  -11   23      1.59      0.00
   -2  -11   23      4.50      0.00
   -1  -11   23     -2.46      0.00
    0  -11   23      2.42      0.00
    1  -11   23      0.02      0.00
   -7  -10   23      4.28      0.00
   -6  -10   23     -0.70      0.00
   -5  -10   23     -2.16      0.00
   -4  -10   23     -5.54      0.00
   -3  -10   23     -5.33      0.00
   -2  -10   23     -0.56      0.00
   -1  -10   23      5.01      0.00
    0  -10   23      2.54      0.00
    1  -10   23     -4.92      0.00
    2  -10   23      3.39      0.00
   -9   -9   23      4.48      0.00
   -8   -9   23      3.40      0.00
   -7   -9   23     -3.46      0.00
   -6   -9   23     -1.80      0.00
   -5   -9   23      1.88      0.00
   -4   -9   23      2.88      0.00
   -3   -9   23      1.31      0.00
   -2   -9   23     -0.02      0.00
   -1   -9   23      1.37      0.00
    0   -9   23     -0.87      0.00
    1   -9   23     -1.30      0.00
    2   -9   23     -2.66      0.00
    3   -9   23     -1.05      0.00
  -10   -8   23     -1.54      0.00
   -9   -8   23      3.89      0.00
   -8   -8   23      3.01      0.00
   -7   -8   23      1.82      0.00
   -6   -8   23     -1.96      0.00
   -5   -8   23     -4.95      0.00
   -4   -8   23     -3.30      0.00
   -3   -8   23     -0.48      0.00
   -2   -8   23      2.78      0.00
   -1   -8   23      0.70      0.00
    0   -8   23      0.33      0.00
    1   -8   23     -2.76      0.00
    2   -8   23     -1.06      0.00
    3   -8   23      0.15      0.00
  -11   -7   23      3.41      0.00
  -10   -7   23      2.74      0.00
   -9   -7   23     -1.10      0.00
   -8   -7   23      0.51      0.00
   -7   -7   23     -0.12      0.00
   -6   -7   23      1.04      0.00
   -5   -7   23     -4.05      0.00
   -4   -7   23      3.89      0.00
   -3   -7   23      2.34      0.00
   -2   -7   23     -3.16      0.00
   -1   -7   23     -2.11      0.00
    0   -7   23     -0.31      0.00
    1   -7   23     -1.23      0.00
    2   -7   23     -3.67      0.00
    3   -7   23     -0.40      0.00
  -11   -6   23     -1.11      0.00
  -10   -6   23      1.12      0.00
   -9   -6   23      2.58      0.00
   -8   -6   23      0.87      0.00
   -7   -6   23     -3.37      0.00
   -6   -6   23      1.05      0.00
   -5   -6   23      2.12      0.00
   -4   -6   23      0.54      0.00
   -3   -6   23     -1.45      0.00
   -2   -6   23     -0.67      0.00
   -1   -6   23     -2.86      0.00
    0   -6   23     -3.22      0.00
    1   -6   23      0.53      0.00
    2   -6   23      6.44      0.00
    3   -6   23      2.27      0.00
  -12   -5   23     -1.34      0.00
  -11   -5   23      4.47      0.00
  -10   -5   23     -0.22      0.00
   -9   -5   23     -8.45      0.00
   -8   -5   23      6.82      0.00
   -7   -5   23     -2.74      0.00
   -6   -5   23      3.58      0.00
   -5   -5   23     -4.28      0.00
   -4   -5   23      0.37      0.00
   -3   -5   23     -5.19      0.00
   -2   -5   23      4.27      0.00
   -1   -5   23     -3.28      0.00
    0   -5   23      0.15      0.00
    1   -5   23     -1.62      0.00
    2   -5   23     -0.96      0.00
    3   -5   23     -0.97      0.00
  -13   -4   23     -2.48      0.00
  -12   -4   23     -0.61      0.00
  -11   -4   23     -0.15      0.00
  -10   -4   23     -2.35      0.00
   -9   -4   23      0.08      0.00
   -8   -4   23      4.87      0.00
   -7   -4   23      0.77      0.00
   -6   -4   23      3.57      0.00
   -5   -4   23     -2.16      0.00
   -4   -4   23      1.10      0.00
   -3   -4   23      1.37      0.00
   -2   -4   23      0.78      0.00
   -1   -4   23     -6.04      0.00
    0   -4   23      1.55      0.00
    1   -4   23      0.30      0.00
    2   -4   23      1.65      0.00
    3   -4   23      1.28      0.00
  -14   -3   23     -5.01      0.00
  -13   -3   23     -1.26      0.00
  -12   -3   23      3.26      0.00
  -11   -3   23     -4.47      0.00
  -10   -3   23      1.90      0.00
   -9   -3   23     -0.45      0.00
   -8   -3   23      2.88      0.00
   -7   -3   23     -4.61      0.00
   -6   -3   23      1.89      0.00
   -5   -3   23     -3.92      0.00
   -4   -3   23      5.96      0.00
   -3   -3   23     -7.53      0.00
   -2   -3   23      0.83      0.00
   -1   -3   23      0.03      0.00
    0   -3   23      4.67      0.00
    1   -3   23     -0.60      0.00
    2   -3   23     -0.99      0.00
    3   -3   23     -1.67      0.00
  -14   -2   23      2.05      0.00
  -13   -2   23      3.14      0.00
  -12   -2   23     -1.28      0.00
  -11   -2   23     -0.27      0.00
  -10   -2   23     -0.90      0.00
   -9   -2   23      0.21      0.00
   -8   -2   23      4.53      0.00
   -7   -2   23      3.35      0.00
   -6   -2   23      1.26      0.00
   -5   -2   23     -0.99      0.00
   -4   -2   23     -0.15      0.00
   -3   -2   23     -1.66      0.00
   -2   -2   23     -1.31      0.00
   -1   -2   23     -2.86      0.00
    0   -2   23      0.32      0.00
    1   -2   23      0.60      0.00
    2   -2   23     -0.95      0.00
    3   -2   23     -1.94      0.00
  -15   -1   23      2.18      0.00
  -14   -1   23     -3.59      0.00
  -13   -1   23     -2.78      0.00
  -12   -1   23      0.40      0.00
  -11   -1   23      1.82      0.00
  -10   -1   23      2.62      0.00
   -9   -1   23     -4.69      0.00
   -8   -1   23      3.35      0.00
   -7   -1   23     -0.55      0.00
   -6   -1   23      1.52      0.00
   -5   -1   23     -3.58      0.00
   -4   -1   23     -0.10      0.00
   -3   -1   23     -0.82      0.00
   -2   -1   23      0.46      0.00
   -1   -1   23     -1.01      0.00
    0   -1   23      2.72      0.00
    1   -1   23      2.01      0.00
    2   -1   23     -3.04      0.00
  -15    0   23      1.81      0.00
  -14    0   23     -0.10      0.00
  -13    0   23      4.70      0.00
  -12    0   23     -1.82      0.00
  -11    0   23      2.46      0.00
  -10    0   23     -1.84      0.00
   -9    0   23      0.01      0.00
   -8    0   23     -2.83      0.00
   -7    0   23      0.60      0.00
   -6    0   23      0.43      0.00
   -5    0   23      4.35      0.00
   -4    0   23     -0.09      0.00
   -3    0   23     -1.62      0.00
   -2    0   23     -3.40      0.00
   -1    0   23      0.31      0.00
    0    0   23     -1.08      0.00
    1    0   23     -0.54      0.00
    2    0   23     -1.05      0.00
  -16    1   23     -3.63      0.00
  -15    1   23     -1.44      0.00
  -14    1   23     -1.05      0.00
  -13    1   23     -5.00      0.00
  -12    1   23      1.79      0.00
  -11    1   23     -3.01      0.00
  -10    1   23      2.08      0.00
   -9    1   23      1.73      0.00
   -8    1   23     -0.91      0.00
   -7    1   23     -1.03      0.00
   -6    1   23     -2.19      0.00
   -5    1   23     -1.64      0.00
   -4    1   23     -2.68      0.00
   -3    1   23     -0.52      0.00
   -2    1   23      1.56      0.00
   -1    1   23      5.89      0.00
    0    1   23     -0.01      0.00
    1    1   23      0.65      0.00
    2    1   23      0.43      0.00
  -16    2   23      0.63      0.00
  -15    2   23      3.94      0.00
  -14    2   23     -1.79      0.00
  -13    2   23     -0.98      0.00
  -12    2   23     -1.82      0.00
  -11    2   23      0.64      0.00
  -10    2   23     -0.55      0.00
   -9    2   23     -1.61      0.00
   -8    2   23     -1.56      0.00
   -7    2   23      2.58      0.00
   -6    2   23      0.51      0.00
   -5    2   23      2.11      0.00
   -4    2   23      2.10      0.00
   -3    2   23     -2.64      0.00
   -2    2   23      0.80      0.00
   -1    2   23     -2.91      0.00
    0    2   23     -1.48      0.00
    1    2   23      2.11      0.00
  -16    3   23     -3.75      0.00
  -15    3   23     -6.56      0.00
  -14    3   23      4.12      0.00
  -13    3   23     -0.26      0.00
  -12    3   23      0.58      0.00
  -11    3   23     -3.17      0.00
  -10    3   23     -1.07      0.00
   -9    3   23      4.48      0.00
   -8    3   23     -3.02      0.00
   -7    3   23     -0.54      0.00
   -6    3   23     -0.90      0.00
   -5    3   23     -1.85      0.00
   -4    3   23     -0.72      0.00
   -3    3   23      0.51      0.00
   -2    3   23      2.31      0.00
   -1    3   23      1.08      0.00
    0    3   23     -0.29      0.00
  -16    4   23     -1.17      0.00
  -15    4   23     -0.02      0.00
  -14    4   23     -2.13      0.00
  -13    4   23     -2.24      0.00
  -12    4   23      1.36      0.00
  -11    4   23     -1.39      0.00
  -10    4   23      2.28      0.00
   -9    4   23     -1.21      0.00
   -8    4   23      1.26      0.00
   -7    4   23      2.27      0.00
   -6    4   23      1.29      0.00
   -5    4   23      0.53      0.00
   -4    4   23      4.31      0.00
   -3    4   23     -2.66      0.00
   -2    4   23      0.96      0.00
   -1    4   23      0.14      0.00
    0    4   23     -0.54      0.00
  -17    5   23     -3.70      0.00
  -16    5   23      0.35      0.00
  -15    5   23     -2.97      0.00
  -14    5   23      3.15      0.00
  -13    5   23      0.56      0.00
  -12    5   23      2.36      0.00
  -11    5   23      2.54      0.00
  -10    5   23     -2.68      0.00
   -9    5   23     -0.02      0.00
   -8    5   23      1.20      0.00
   -7    5   23      1.25      0.00
   -6    5   23     -1.55      0.00
   -5    5   23     -4.43      0.00
   -4    5   23      0.64      0.00
   -3    5   23      0.21      0.00
   -2    5   23     -1.10      0.00
   -1    5   23      0.83      0.00
  -17    6   23      1.56      0.00
  -16    6   23      0.45      0.00
  -15    6   23      1.88      0.00
  -14    6   23      1.32      0.00
  -13    6   23      1.56      0.00
  -12    6   23     -1.35      0.00
  -11    6   23      0.53      0.00
  -10    6   23      6.62      0.00
   -9    6   23     -2.51      0.00
   -8    6   23      2.04      0.00
   -7    6   23     -2.48      0.00
   -6    6   23      1.60      0.00
   -5    6   23      0.60      0.00
   -4    6   23      0.77      0.00
   -3    6   23     -0.89      0.00
  -17    7   23     -5.30      0.00
  -16    7   23      0.80      0.00
  -15    7   23     -2.74      0.00
  -14    7   23      1.39      0.00
  -13    7   23      3.65      0.00
  -12    7   23      0.53      0.00
  -11    7   23      1.18      0.00
  -10    7   23      0.08      0.00
   -9    7   23      3.45      0.00
   -8    7   23     -0.12      0.00
   -7    7   23     -2.41      0.00
   -6    7   23     -1.17      0.00
   -5    7   23      0.71      0.00
   -4    7   23      0.72      0.00
   -3    7   23     -0.70      0.00
  -17    8   23      4.69      0.00
  -16    8   23      0.63      0.00
  -15    8   23      4.95      0.00
  -14    8   23      0.62      0.00
  -13    8   23     -1.67      0.00
  -12    8   23      4.24      0.00
  -11    8   23      1.63      0.00
  -10    8   23      1.08      0.00
   -9    8   23     -0.38      0.00
   -8    8   23      1.50      0.00
   -7    8   23     -2.13      0.00
   -6    8   23     -0.27      0.00
   -5    8   23      0.36      0.00
   -4    8   23      0.08      0.00
  -16    9   23     -1.06      0.00
  -15    9   23      0.80      0.00
  -14    9   23      1.95      0.00
  -13    9   23      4.76      0.00
  -12    9   23     -0.50      0.00
  -11    9   23      1.61      0.00
  -10    9   23     -2.47      0.00
   -9    9   23     -1.60      0.00
   -8    9   23      0.92      0.00
   -7    9   23     -1.21      0.00
   -6    9   23     -2.84      0.00
  -16   10   23      1.39      0.00
  -15   10   23      4.24      0.00
  -14   10   23     -0.06      0.00
  -13   10   23     -1.06      0.00
  -12   10   23      2.52      0.00
  -11   10   23     -0.58      0.00
  -10   10   23      2.66      0.00
   -9   10   23      3.52      0.00
   -8   10   23     -4.19      0.00
   -7   10   23     -0.10      0.00
  -15   11   23      0.84      0.00
  -14   11   23     -2.22      0.00
  -13   11   23      2.37      0.00
  -12   11   23      2.29      0.00
  -11   11   23      3.88      0.00
  -10   11   23     -2.30      0.00
   -9   11   23     -7.02      0.00
   -8   11   23     -1.08      0.00
   -5  -10   24     -0.37      0.00
   -4  -10   24      2.14      0.00
   -3  -10   24      1.77      0.00
   -2  -10   24      6.65      0.00
   -1  -10   24     -4.72      0.00
   -7   -9   24     -0.47      0.00
   -6   -9   24      1.58      0.00
   -5   -9   24     -2.31      0.00
   -4   -9   24      0.06      0.00
   -3   -9   24     -4.75      0.00
   -2   -9   24      0.73      0.00
   -1   -9   24     -4.42      0.00
    0   -9   24     -0.11      0.00
    1   -9   24     -4.31      0.00
   -8   -8   24      1.52      0.00
   -7   -8   24     -0.13      0.00
   -6   -8   24     -0.95      0.00
   -5   -8   24     -1.14      0.00
   -4   -8   24      4.86      0.00
   -3   -8   24      1.86      0.00
   -2   -8   24      0.29      0.00
   -1   -8   24     -3.18      0.00
    0   -8   24     -1.14      0.00
    1   -8   24      0.05      0.00
  -10   -7   24      0.16      0.00
   -9   -7   24     -1.27      0.00
   -8   -7   24      1.67      0.00
   -7   -7   24      1.23      0.00
   -6   -7   24     -3.07      0.00
   -5   -7   24     -0.60      0.00
   -4   -7   24     -1.53      0.00
   -3   -7   24     -5.09      0.00
   -2   -7   24     -3.03      0.00
   -1   -7   24      1.10      0.00
    0   -7   24     -0.86      0.00
    1   -7   24     -0.70      0.00
    2   -7   24      1.88      0.00
  -11   -6   24      2.47      0.00
  -10   -6   24      5.46      0.00
   -9   -6   24     -4.13      0.00
   -8   -6   24      0.68      0.00
   -7   -6   24     -1.51      0.00
   -6   -6   24      3.22      0.00
   -5   -6   24     -4.11      0.00
   -4   -6   24     -2.73      0.00
   -3   -6   24     -2.17      0.00
   -2   -6   24     -1.56      0.00
   -1   -6   24     -1.37      0.00
    0   -6   24      1.76      0.00
    1   -6   24      3.21      0.00
    2   -6   24     -1.41      0.00
  -11   -5   24     -1.76      0.00
  -10   -5   24     -3.66      0.00
   -9   -5   24      4.95      0.00
   -8   -5   24      0.07      0.00
   -7   -5   24     -0.92      0.00
   -6   -5   24     -1.44      0.00
   -5   -5   24     -4.47      0.00
   -4   -5   24     -2.04      0.00
   -3   -5   24      4.05      0.00
   -2   -5   24      0.63      0.00
   -1   -5   24     -0.60      0.00
    0   -5   24     -1.28      0.00
    1   -5   24      1.61      0.00
    2   -5   24     -0.78      0.00
  -12   -4   24      2.87      0.00
  -11   -4   24     -1.60      0.00
  -10   -4   24      5.35      0.00
   -9   -4   24     -2.26      0.00
   -8   -4   24      3.31      0.00
   -7   -4   24     -3.36      0.00
   -6   -4   24     -2.95      0.00
   -5   -4   24     -4.89      0.00
   -4   -4   24      4.54      0.00
   -3   -4   24     -6.45      0.00
   -2   -4   24     -3.68      0.00
   -1   -4   24      1.41      0.00
    0   -4   24      2.39      0.00
    1   -4   24     -1.58      0.00
    2   -4   24     -0.56      0.00
  -13   -3   24      3.91      0.00
  -11   -3   24     -0.37      0.00
  -10   -3   24      2.10      0.00
   -9   -3   24     -4.86      0.00
   -8   -3   24     -0.30      0.00
   -7   -3   24     -0.71      0.00
   -6   -3   24      3.33      0.00
   -5   -3   24     -0.11      0.00
   -4   -3   24     -0.35      0.00
   -3   -3   24     -2.05      0.00
   -2   -3   24      4.41      0.00
   -1   -3   24      2.18      0.00
    0   -3   24     -0.63      0.00
    1   -3   24     -0.32      0.00
  -13   -2   24     -5.88      0.00
  -12   -2   24      1.53      0.00
  -11   -2   24     -0.13      0.00
  -10   -2   24      7.86      0.00
   -9   -2   24     -0.68      0.00
   -8   -2   24      2.75      0.00
   -7   -2   24     -6.76      0.00
   -6   -2   24      2.31      0.00
   -5   -2   24     -5.89      0.00
   -4   -2   24      2.28      0.00
   -3   -2   24     -3.98      0.00
   -2   -2   24      0.66      0.00
   -1   -2   24     -0.03      0.00
    0   -2   24      1.49      0.00
    1   -2   24     -0.01      0.00
  -14   -1   24      1.24      0.00
  -13   -1   24      2.25      0.00
  -12   -1   24      1.14      0.00
  -11   -1   24      0.47      0.00
  -10   -1   24     -0.15      0.00
   -9   -1   24     -1.38      0.00
   -8   -1   24      0.33      0.00
   -7   -1   24     -2.56      0.00
   -6   -1   24      2.71      0.00
   -5   -1   24     -1.66      0.00
   -4   -1   24      1.83      0.00
   -3   -1   24     -0.09      0.00
   -2   -1   24     -0.43      0.00
   -1   -1   24     -0.32      0.00
    0   -1   24      0.31      0.00
    1   -1   24     -2.92      0.00
  -14    0   24      3.87      0.00
  -13    0   24     -3.14      0.00
  -12    0   24      1.58      0.00
  -11    0   24     -3.20      0.00
  -10    0   24      4.13      0.00
   -9    0   24     -0.85      0.00
   -8    0   24      1.78      0.00
   -7    0   24     -1.87      0.00
   -6    0   24      4.55      0.00
   -5    0   24     -3.95      0.00
   -4    0   24     -2.57      0.00
   -3    0   24     -1.54      0.00
   -2    0   24      2.12      0.00
   -1    0   24      1.90      0.00
    0    0   24     -1.92      0.00
    1    0   24      0.75      0.00
  -15    1   24      2.68      0.00
  -14    1   24      1.18      0.00
  -13    1   24      4.48      0.00
  -12    1   24      2.89      0.00
  -11    1   24     -0.51      0.00
  -10    1   24      2.89      0.00
   -9    1   24     -2.53      0.00
   -8    1   24     -0.77      0.00
   -7    1   24     -1.68      0.00
   -6    1   24      0.81      0.00
   -5    1   24      0.77      0.00
   -4    1   24      0.95      0.00
   -3    1   24     -0.92      0.00
   -2    1   24      1.72      0.00
   -1    1   24     -3.52      0.00
    0    1   24     -2.16      0.00
  -15    2   24     -1.98      0.00
  -14    2   24     -0.46      0.00
  -13    2   24      0.53      0.00
  -12    2   24      1.85      0.00
  -11    2   24     -0.37      0.00
  -10    2   24     -2.24      0.00
   -9    2   24      2.78      0.00
   -8    2   24      1.95      0.00
   -7    2   24     -2.35      0.00
   -6    2   24     -1.28      0.00
   -5    2   24     -3.38      0.00
   -4    2   24     -2.75      0.00
   -3    2   24     -0.20      0.00
   -2    2   24     -0.82      0.00
   -1    2   24      1.67      0.00
  -15    3   24      4.35      0.00
  -14    3   24      5.82      0.00
  -13    3   24     -2.92      0.00
  -12    3   24      1.48      0.00
  -11    3   24     -0.18      0.00
  -10    3   24      2.01      0.00
   -9    3   24     -1.50      0.00
   -8    3   24     -2.29      0.00
   -7    3   24     -0.12      0.00
   -6    3   24      0.20      0.00
   -5    3   24     -0.69      0.00
   -4    3   24      2.73      0.00
   -3    3   24     -1.09      0.00
   -2    3   24     -1.46      0.00
   -1    3   24     -1.48      0.00
  -15    4   24     -2.93      0.00
  -14    4   24      2.33      0.00
  -13    4   24      2.41      0.00
  -12    4   24     -1.11      0.00
  -11    4   24      2.03      0.00
  -10    4   24      0.35      0.00
   -9    4   24      0.59      0.00
   -8    4   24      1.25      0.00
   -7    4   24     -2.48      0.00
   -6    4   24     -2.28      0.00
   -5    4   24     -2.84      0.00
   -4    4   24     -2.07      0.00
   -3    4   24      0.82      0.00
   -2    4   24     -0.46      0.00
  -15    5   24      1.03      0.00
  -14    5   24      2.43      0.00
  -13    5   24     -0.46      0.00
  -12    5   24      0.49      0.00
  -11    5   24     -2.20      0.00
  -10    5   24     -1.41      0.00
   -9    5   24      0.37      0.00
   -8    5   24     -0.55      0.00
   -7    5   24     -3.10      0.00
   -6    5   24     -1.13      0.00
   -5    5   24      0.58      0.00
   -4    5   24      3.37      0.00
   -3    5   24     -0.58      0.00
  -16    6   24      3.51      0.00
  -15    6   24     -1.82      0.00
  -14    6   24      0.00      0.00
  -13    6   24     -1.41      0.00
  -12    6   24      1.72      0.00
  -11    6   24      2.54      0.00
  -10    6   24     -3.19      0.00
   -9    6   24     -0.58      0.00
   -8    6   24     -1.88      0.00
   -7    6   24     -0.67      0.00
   -6    6   24     -0.18      0.00
   -5    6   24     -0.11      0.00
   -4    6   24     -0.68      0.00
  -16    7   24      1.29      0.00
  -15    7   24      1.28      0.00
  -14    7   24      1.98      0.00
  -13    7   24      0.70      0.00
  -12    7   24     -1.03      0.00
  -11    7   24      0.52      0.00
  -10    7   24      2.55      0.00
   -9    7   24     -2.47      0.00
   -8    7   24     -3.14      0.00
   -7    7   24     -1.17      0.00
   -6    7   24      1.44      0.00
   -5    7   24      2.32      0.00
  -15    8   24     -0.66      0.00
  -14    8   24     -2.34      0.00
  -13    8   24      1.23      0.00
  -12    8   24      2.03      0.00
  -11    8   24     -2.12      0.00
  -10    8   24     -3.33      0.00
   -9    8   24     -0.82      0.00
   -8    8   24     -0.15      0.00
   -7    8   24      1.58      0.00
   -6    8   24     -0.12      0.00
  -15    9   24      4.19      0.00
  -14    9   24      0.08      0.00
  -13    9   24     -2.79      0.00
  -12    9   24     -1.66      0.00
  -11    9   24     -0.27      0.00
  -10    9   24      0.69      0.00
   -9    9   24     -1.30      0.00
   -8    9   24     -0.68      0.00
  -13   10   24      2.43      0.00
  -12   10   24     -2.91      0.00
  -11   10   24      2.78      0.00
  -10   10   24      1.76      0.00
   -9   10   24     -6.89      0.00
   -6   -8   25      2.90      0.00
   -5   -8   25      2.46      0.00
   -4   -8   25      1.88      0.00
   -3   -8   25     -2.56      0.00
   -2   -8   25     -1.56      0.00
   -8   -7   25     -0.06      0.00
   -7   -7   25     -2.59      0.00
   -6   -7   25      1.86      0.00
   -5   -7   25     -1.34      0.00
   -4   -7   25     -1.45      0.00
   -3   -7   25     -0.65      0.00
   -2   -7   25      3.64      0.00
   -1   -7   25      2.36      0.00
   -9   -6   25      3.64      0.00
   -8   -6   25      0.46      0.00
   -7   -6   25      2.19      0.00
   -6   -6   25     -1.04      0.00
   -5   -6   25     -3.46      0.00
   -4   -6   25     -0.41      0.00
   -3   -6   25      1.94      0.00
   -2   -6   25     -0.97      0.00
   -1   -6   25      4.04      0.00
    0   -6   25     -1.98      0.00
  -10   -5   25      6.06      0.00
   -9   -5   25     -1.00      0.00
   -8   -5   25     -1.56      0.00
   -7   -5   25      0.18      0.00
   -6   -5   25     -2.20      0.00
   -5   -5   25      0.25      0.00
   -4   -5   25      3.20      0.00
   -3   -5   25      2.09      0.00
   -2   -5   25     -4.48      0.00
   -1   -5   25      2.52      0.00
    0   -5   25      3.49      0.00
  -10   -4   25     -0.04      0.00
   -9   -4   25     -0.19      0.00
   -8   -4   25     -1.25      0.00
   -7   -4   25     -4.11      0.00
   -6   -4   25      2.48      0.00
   -5   -4   25      2.72      0.00
   -4   -4   25     -5.42      0.00
   -3   -4   25     -0.21      0.00
   -2   -4   25      1.61      0.00
   -1   -4   25      3.42      0.00
    0   -4   25     -5.00      0.00
  -11   -3   25      1.79      0.00
  -10   -3   25      2.42      0.00
   -9   -3   25      1.02      0.00
   -8   -3   25     -0.44      0.00
   -7   -3   25     -2.45      0.00
   -6   -3   25      0.82      0.00
   -5   -3   25     -1.27      0.00
   -4   -3   25     -0.35      0.00
   -3   -3   25      5.16      0.00
   -2   -3   25     -0.59      0.00
   -1   -3   25     -0.10      0.00
    0   -3   25     -1.02      0.00
  -12   -2   25      1.76      0.00
  -11   -2   25     -1.06      0.00
  -10   -2   25      1.81      0.00
   -9   -2   25     -1.73      0.00
   -8   -2   25     -3.26      0.00
   -7   -2   25     -2.90      0.00
   -6   -2   25      1.98      0.00
   -5   -2   25     -0.57      0.00
   -4   -2   25      0.29      0.00
   -3   -2   25      2.68      0.00
   -2   -2   25      1.93      0.00
   -1   -2   25      1.54      0.00
  -12   -1   25      2.60      0.00
  -11   -1   25     -1.99      0.00
  -10   -1   25      1.26      0.00
   -9   -1   25      0.96      0.00
   -8   -1   25      2.09      0.00
   -7   -1   25     -2.63      0.00
   -6   -1   25      1.32      0.00
   -5   -1   25     -0.12      0.00
   -4   -1   25      0.64      0.00
   -3   -1   25     -1.03      0.00
   -2   -1   25     -0.02      0.00
   -1   -1   25      0.86      0.00
  -13    0   25     -1.03      0.00
  -11    0   25     -2.03      0.00
  -10    0   25      0.85      0.00
   -9    0   25     -2.34      0.00
   -8    0   25      4.35      0.00
   -7    0   25     -1.36      0.00
   -6    0   25      0.97      0.00
   -5    0   25     -1.19      0.00
   -4    0   25      2.56      0.00
   -3    0   25      0.98      0.00
   -2    0   25      0.99      0.00
   -1    0   25     -2.66      0.00
  -13    1   25      4.60      0.00
  -12    1   25      0.44      0.00
  -11    1   25      3.84      0.00
  -10    1   25     -1.20      0.00
   -9    1   25     -0.67      0.00
   -8    1   25      3.80      0.00
   -7    1   25     -1.93      0.00
   -6    1   25      1.17      0.00
   -5    1   25     -0.43      0.00
   -4    1   25     -0.60      0.00
   -3    1   25     -0.68      0.00
   -2    1   25     -2.76      0.00
  -14    2   25      5.65      0.00
  -13    2   25     -0.33      0.00
  -12    2   25      2.43      0.00
  -11    2   25     -2.45      0.00
  -10    2   25      3.72      0.00
   -9    2   25     -2.36      0.00
   -8    2   25      0.66      0.00
   -7    2   25     -2.79      0.00
   -6    2   25     -0.55      0.00
   -5    2   25     -0.08      0.00
   -4    2   25      1.15      0.00
   -3    2   25     -0.22      0.00
   -2    2   25     -0.45      0.00
  -14    3   25     -4.08      0.00
  -13    3   25      3.63      0.00
  -12    3   25      1.32      0.00
  -11    3   25      1.61      0.00
  -10    3   25      1.09      0.00
   -9    3   25     -2.61      0.00
   -8    3   25      2.19      0.00
   -7    3   25     -0.51      0.00
   -6    3   25      0.13      0.00
   -5    3   25     -0.20      0.00
   -4    3   25     -1.84      0.00
   -3    3   25     -1.28      0.00
  -14    4   25      6.29      0.00
  -13    4   25     -0.97      0.00
  -12    4   25      0.60      0.00
  -11    4   25      0.43      0.00
  -10    4   25     -2.46      0.00
   -9    4   25     -1.92      0.00
   -8    4   25     -2.07      0.00
   -6    4   25     -0.34      0.00
   -5    4   25     -0.04      0.00
   -4    4   25      0.92      0.00
  -14    5   25     -1.43      0.00
  -13    5   25     -0.80      0.00
  -12    5   25     -0.19      0.00
  -11    5   25     -0.83      0.00
  -10    5   25      0.94      0.00
   -9    5   25     -0.08      0.00
   -8    5   25     -1.18      0.00
   -7    5   25     -0.51      0.00
   -6    5   25      0.67      0.00
   -5    5   25      1.72      0.00
  -13    6   25      2.83      0.00
  -12    6   25     -2.57      0.00
  -11    6   25     -3.35      0.00
  -10    6   25     -3.95      0.00
   -9    6   25     -0.40      0.00
   -8    6   25     -1.76      0.00
   -7    6   25      2.42      0.00
  -13    7   25     -2.55      0.00
  -12    7   25      0.87      0.00
  -11    7   25      2.06      0.00
  -10    7   25     -2.36      0.00
   -9    7   25     -3.63      0.00
   -8    7   25      0.07      0.00
  -13    8   25      3.43      0.00
  -12    8   25     -7.44      0.00
   -5   -6   26      3.67      0.00
   -8   -5   26      1.99      0.00
   -7   -5   26     -2.84      0.00
   -6   -5   26      1.50      0.00
   -5   -5   26      4.15      0.00
   -4   -5   26     -1.76      0.00
   -3   -5   26     -0.88      0.00
   -9   -4   26      1.43      0.00
   -8   -4   26     -0.44      0.00
   -7   -4   26      2.07      0.00
   -6   -4   26     -0.22      0.00
   -5   -4   26     -0.35      0.00
   -4   -4   26     -2.23      0.00
   -3   -4   26      7.72      0.00
   -9   -3   26     -0.17      0.00
   -8   -3   26     -0.05      0.00
   -7   -3   26      0.58      0.00
   -6   -3   26     -0.56      0.00
   -5   -3   26      2.51      0.00
   -4   -3   26     -0.36      0.00
   -3   -3   26     -0.06      0.00
  -10   -2   26     -2.67      0.00
   -9   -2   26     -3.22      0.00
   -8   -2   26      0.95      0.00
   -7   -2   26      2.11      0.00
   -6   -2   26     -2.45      0.00
   -5   -2   26      3.64      0.00
   -4   -2   26      0.51      0.00
   -3   -2   26      1.45      0.00
  -10   -1   26      0.13      0.00
   -9   -1   26      0.50      0.00
   -8   -1   26      0.78      0.00
   -7   -1   26     -1.06      0.00
   -6   -1   26      0.01      0.00
   -5   -1   26      0.47      0.00
   -4   -1   26      1.10      0.00
   -3   -1   26      0.73      0.00
  -11    0   26      1.53      0.00
  -10    0   26     -1.25      0.00
   -9    0   26      1.14      0.00
   -8    0   26      1.85      0.00
   -7    0   26      0.42      0.00
   -6    0   26     -0.95      0.00
   -5    0   26      0.68      0.00
   -4    0   26      0.67      0.00
  -11    1   26     -2.37      0.00
  -10    1   26      0.47      0.00
   -9    1   26     -1.76      0.00
   -8    1   26      1.31      0.00
   -7    1   26     -0.64      0.00
   -6    1   26      0.49      0.00
   -5    1   26     -0.49      0.00
   -4    1   26      1.23      0.00
  -11    2   26      1.94      0.00
  -10    2   26      0.41      0.00
   -9    2   26     -1.67      0.00
   -8    2   26      0.86      0.00
   -7    2   26      2.39      0.00
   -6    2   26      3.15      0.00
   -5    2   26      1.33      0.00
  -11    3   26     -0.56      0.00
  -10    3   26      0.92      0.00
   -9    3   26     -0.93      0.00
   -8    3   26      0.68      0.00
   -7    3   26      0.25      0.00
   -6    3   26     -0.28      0.00
  -11    4   26     -2.10      0.00
   -9    4   26      0.18      0.00
   -8    4   26      0.23      0.00
   -7    4   26      3.24      0.00
    1    0    0    -49.86      0.00
   -1    1    0    -42.53      0.00
    0    1    0      0.42      0.00
  -19    2    0      0.26      0.00
   17    2    0     -1.39      0.00
   16    4    0      0.30      0.00
  -20    5    0      1.92      0.00
   15    6    0     -2.04      0.00
   14    7    0      2.77      0.00
   12   10    0     -2.01      0.00
  -21   11    0     -1.08      0.00
   11   11    0     -2.39      0.00
  -21   12    0      0.79      0.00
   10   12    0     -2.33      0.00
    9   13    0      0.85      0.00
    8   14    0     -0.18      0.00
  -20   15    0      1.28      0.00
    7   15    0      0.31      0.00
  -20   16    0     -1.07      0.00
    6   16    0      1.95      0.00
  -20   17    0      0.66      0.00
    5   17    0     -0.65      0.00
  -19   18    0      1.81      0.00
  -19   19    0      0.54      0.00
  -18   19    0      0.60      0.00
    2   19    0      1.39      0.00
  -18   20    0     -0.27      0.00
    0   20    0      1.53      0.00
  -17   21    0     -2.79      0.00
  -16   21    0     -1.22      0.00
   -2   21    0     -0.96      0.00
  -15   22    0     -1.39      0.00
  -14   22    0      0.56      0.00
   -5   22    0     -1.22      0.00
   -4   22    0      0.47      0.00
    4  -22    1     -2.52      0.00
    5  -22    1      1.78      0.00
   14  -22    1     -2.55      0.00
   15  -22    1      1.15      0.00
    1  -21    1     -0.21      0.00
    2  -21    1      1.12      0.00
   16  -21    1     -0.14      0.00
   17  -20    1     -0.96      0.00
   -2  -19    1      0.48      0.00
   18  -19    1     -0.25      0.00
   -4  -18    1     -0.96      0.00
   19  -18    1      1.47      0.00
   -5  -17    1      0.59      0.00
   20  -16    1     -0.07      0.00
   20  -15    1     -0.60      0.00
   20  -14    1      1.24      0.00
   20  -13    1      2.21      0.00
  -12  -10    1     -1.87      0.00
  -13   -9    1     -2.32      0.00
   20   -7    1      0.41      0.00
  -15   -6    1      2.20      0.00
   20   -6    1      0.68      0.00
  -16   -5    1      3.35      0.00
  -17   -3    1     -2.60      0.00
   19   -3    1     -0.54      0.00
  -18   -1    1      0.10      0.00
    0   -1    1    114.09      0.00
    1   -1    1     25.50      0.00
   -1    0    1    138.94      0.00
    0    0    1    -70.64      0.00
   18    0    1      0.73      0.00
  -19    1    1      0.30      0.00
   -2    1    1     90.46      0.00
   -1    1    1   -127.50      0.00
    0    1    1     94.74      0.00
   17    2    1     -0.76      0.00
  -20    4    1     -0.98      0.00
    5    4    1     -1.00      0.00
   16    4    1      0.42      0.00
   15    5    1      0.63      0.00
   14    7    1     -0.40      0.00
  -21    8    1      0.10      0.00
   13    8    1     -4.34      0.00
  -21    9    1      0.59      0.00
  -21   10    1      0.81      0.00
  -21   11    1      0.89      0.00
   11   11    1      1.05      0.00
  -21   12    1     -0.65      0.00
   10   12    1      3.27      0.00
  -21   13    1      0.77      0.00
    9   13    1     -0.76      0.00
  -21   14    1     -1.93      0.00
    8   14    1      0.44      0.00
    7   15    1     -1.33      0.00
  -20   16    1      1.50      0.00
    6   16    1     -2.30      0.00
  -20   17    1     -1.18      0.00
  -19   18    1     -2.13      0.00
    3   18    1      1.67      0.00
  -19   19    1      0.24      0.00
    2   19    1     -0.31      0.00
  -18   20    1      0.83      0.00
    0   20    1      1.45      0.00
  -17   21    1      0.17      0.00
   -2   21    1      0.52      0.00
  -16   22    1     -1.47      0.00
  -15   22    1      1.03      0.00
   -5   22    1      2.43      0.00
   -4   22    1      1.50      0.00
    4  -22    2      1.76      0.00
    5  -22    2     -0.84      0.00
   14  -22    2     -0.16      0.00
   15  -22    2      0.91      0.00
    1  -21    2     -2.15      0.00
    2  -21    2     -0.20      0.00
   16  -21    2      1.74      0.00
   -1  -20    2     -0.15      0.00
   17  -20    2      0.42      0.00
   18  -19    2     -1.47      0.00
   -4  -18    2      0.19      0.00
   -5  -17    2      1.40      0.00
   19  -17    2     -1.87      0.00
   19  -16    2     -1.84      0.00
   20  -15    2      0.27      0.00
   -9  -14    2     -0.47      0.00
   20  -14    2     -0.07      0.00
  -10  -13    2      0.73      0.00
   20  -13    2      0.33      0.00
   20  -12    2     -0.92      0.00
   20  -11    2     -0.32      0.00
   20  -10    2     -0.14      0.00
  -13   -9    2      1.08      0.00
   20   -9    2     -0.96      0.00
  -14   -8    2     -0.25      0.00
   20   -8    2     -0.18      0.00
  -16   -5    2     -1.15      0.00
   19   -4    2     -0.53      0.00
  -17   -3    2      1.01      0.00
   18   -1    2      0.47      0.00
   -1    0    2   -105.43      0.00
   17    1    2     -0.65      0.00
  -20    3    2      0.37      0.00
   16    3    2      2.10      0.00
   15    5    2     -1.45      0.00
   14    6    2     -2.70      0.00
  -21    7    2     -2.28      0.00
  -21    8    2      0.11      0.00
   13    8    2      2.53      0.00
   12    9    2      0.97      0.00
  -21   11    2      1.40      0.00
  -21   12    2      0.45      0.00
  -21   13    2     -0.22      0.00
  -21   14    2      0.92      0.00
  -21   15    2     -1.47      0.00
  -20   17    2      1.77      0.00
    4   17    2      0.56      0.00
  -20   18    2     -0.72      0.00
    3   18    2     -1.64      0.00
  -19   19    2     -1.09      0.00
    1   19    2     -0.70      0.00
  -18   20    2     -0.76      0.00
   -1   20    2      0.86      0.00
    0   20    2     -0.31      0.00
  -17   21    2      2.48      0.00
   -3   21    2      0.42      0.00
   -2   21    2     -1.72      0.00
  -16   22    2     -0.74      0.00
  -15   22    2      0.28      0.00
   -6   22    2      1.71      0.00
   -5   22    2     -0.38      0.00
    3  -22    3      1.08      0.00
    4  -22    3     -1.37      0.00
    5  -22    3     -3.58      0.00
   13  -22    3     -0.22      0.00
   14  -22    3      1.00      0.00
    1  -21    3     -1.32      0.00
   15  -21    3      0.21      0.00
   16  -21    3     -1.43      0.00
   -1  -20    3     -0.46      0.00
   16  -20    3      1.31      0.00
   17  -20    3      1.62      0.00
   -3  -19    3      1.26      0.00
   17  -19    3      0.54      0.00
   -4  -18    3     -1.90      0.00
   18  -18    3     -1.15      0.00
   19  -17    3      0.38      0.00
   -7  -16    3     -0.33      0.00
   19  -16    3      1.07      0.00
   -8  -15    3     -0.79      0.00
   19  -15    3     -0.32      0.00
   -9  -14    3      0.94      0.00
  -10  -13    3      0.81      0.00
  -11  -12    3      0.84      0.00
   20  -12    3      0.03      0.00
  -12  -11    3      0.95      0.00
   20  -11    3      0.02      0.00
  -14   -8    3      1.02      0.00
  -15   -7    3      2.02      0.00
  -16   -5    3     -1.41      0.00
   19   -5    3      0.95      0.00
  -17   -4    3      0.73      0.00
  -18   -2    3     -3.07      0.00
   18   -2    3      2.24      0.00
  -19    0    3     -0.53      0.00
  -20    3    3      0.21      0.00
   15    4    3     -0.66      0.00
  -21    6    3      1.00      0.00
   14    6    3     -2.74      0.00
  -21    7    3      2.21      0.00
   13    7    3      0.55      0.00
   11   10    3      0.93      0.00
   10   11    3     -1.50      0.00
    9   12    3      1.08      0.00
  -21   13    3      1.10      0.00
    8   13    3     -2.91      0.00
  -21   14    3      2.82      0.00
    7   14    3      0.49      0.00
  -21   15    3      3.21      0.00
    6   15    3     -1.13      0.00
  -21   16    3     -0.41      0.00
    5   16    3     -1.78      0.00
    4   17    3     -0.10      0.00
  -20   18    3      2.73      0.00
  -19   19    3     -1.75      0.00
    1   19    3     -0.73      0.00
  -18   20    3     -0.81      0.00
   -1   20    3     -0.21      0.00
  -17   21    3     -1.34      0.00
   -3   21    3      0.42      0.00
  -16   22    3      1.45      0.00
  -15   22    3     -1.08      0.00
   -6   22    3     -0.02      0.00
   -5   22    3     -1.62      0.00
    3  -22    4     -1.46      0.00
    4  -22    4      0.16      0.00
    5  -22    4      2.71      0.00
   12  -22    4      0.87      0.00
   13  -22    4     -0.30      0.00
   14  -22    4      1.19      0.00
    1  -21    4      1.28      0.00
   15  -21    4     -0.86      0.00
   -1  -20    4     -2.75      0.00
   16  -20    4     -0.15      0.00
   -3  -19    4     -1.40      0.00
   17  -19    4      0.79      0.00
   -4  -18    4      1.43      0.00
   18  -18    4     -0.34      0.00
   -7  -16    4     -0.28      0.00
   -8  -15    4      1.74      0.00
   19  -15    4      0.50      0.00
   -9  -14    4      1.78      0.00
   19  -14    4      0.54      0.00
  -10  -13    4     -1.28      0.00
   19  -13    4     -1.48      0.00
  -11  -12    4     -1.94      0.00
   19  -12    4      1.07      0.00
  -12  -11    4      0.05      0.00
  -13  -10    4     -0.60      0.00
   19  -10    4      1.56      0.00
  -15   -7    4     -0.34      0.00
   19   -7    4      1.61      0.00
  -16   -6    4      0.85      0.00
   19   -6    4     -0.32      0.00
  -17   -4    4     -2.40      0.00
   18   -3    4     -0.81      0.00
  -18   -2    4     -3.92      0.00
   17    0    4     -0.42      0.00
  -20    2    4      0.63      0.00
   16    2    4      0.45      0.00
  -21    5    4      1.32      0.00
   14    5    4     -0.26      0.00
   13    7    4      1.06      0.00
   12    8    4     -0.54      0.00
    9   12    4     -1.99      0.00
    8   13    4      2.35      0.00
  -21   14    4      1.33      0.00
    7   14    4      3.43      0.00
  -21   15    4      1.45      0.00
    6   15    4      2.45      0.00
  -21   16    4      1.56      0.00
    3   17    4     -0.13      0.00
  -20   18    4      0.04      0.00
    2   18    4     -0.77      0.00
  -19   19    4     -0.06      0.00
    0   19    4     -0.77      0.00
  -19   20    4     -1.24      0.00
  -18   20    4      0.84      0.00
   -1   20    4     -0.74      0.00
  -17   21    4     -0.32      0.00
   -4   21    4      1.66      0.00
   -3   21    4      0.24      0.00
  -16   22    4      0.10      0.00
  -15   22    4     -0.83      0.00
   -7   22    4      0.77      0.00
   -6   22    4     -1.75      0.00
    3  -22    5     -1.47      0.00
    4  -22    5     -0.10      0.00
    5  -22    5      0.34      0.00
   11  -22    5      1.79      0.00
   12  -22    5      2.61      0.00
   13  -22    5      0.00      0.00
    1  -21    5      0.00      0.00
   14  -21    5      1.50      0.00
   15  -21    5      1.44      0.00
   -1  -20    5      1.21      0.00
   15  -20    5     -0.93      0.00
   16  -20    5      0.16      0.00
   -3  -19    5      0.30      0.00
   16  -19    5      3.23      0.00
   17  -19    5     -1.71      0.00
   17  -18    5     -0.47      0.00
   -6  -17    5     -0.44      0.00
   18  -17    5     -0.22      0.00
   -7  -16    5     -0.85      0.00
   18  -16    5     -1.35      0.00
   -8  -15    5     -1.32      0.00
   19  -14    5     -2.21      0.00
   19  -13    5      1.02      0.00
   19  -12    5     -0.73      0.00
  -12  -11    5      0.65      0.00
   19  -11    5      1.78      0.00
  -13  -10    5     -0.78      0.00
    0  -10    5      1.23      0.00
   19  -10    5     -2.02      0.00
  -14   -9    5      0.15      0.00
   19   -9    5     -2.17      0.00
  -15   -7    5     -1.77      0.00
  -16   -6    5      1.83      0.00
  -17   -4    5     -0.22      0.00
   18   -4    5     -0.58      0.00
  -18   -3    5      1.15      0.00
  -18   -2    5      1.74      0.00
  -19   -1    5      0.75      0.00
   17   -1    5     -0.34      0.00
   16    1    5     -0.79      0.00
  -20    2    5     -3.51      0.00
   15    3    5     -3.36      0.00
  -21    5    5      0.03      0.00
   13    6    5      1.53      0.00
   11    9    5      1.96      0.00
  -22   10    5      0.35      0.00
   10   10    5     -0.18      0.00
  -22   11    5      1.92      0.00
  -22   12    5     -1.46      0.00
  -22   13    5     -0.28      0.00
  -21   15    5      0.99      0.00
  -21   16    5     -0.24      0.00
    4   16    5      1.01      0.00
  -21   17    5     -0.35      0.00
    3   17    5      0.52      0.00
  -20   18    5     -2.58      0.00
    0   19    5      0.42      0.00
  -19   20    5     -0.82      0.00
  -18   20    5      2.86      0.00
   -2   20    5      0.81      0.00
  -17   21    5     -0.38      0.00
   -4   21    5      1.36      0.00
  -16   22    5     -1.17      0.00
  -15   22    5      0.17      0.00
  -14   22    5      1.42      0.00
   -8   22    5      1.00      0.00
   -7   22    5      0.12      0.00
   -6   22    5     -0.06      0.00
    4  -22    6      0.84      0.00
    5  -22    6      0.27      0.00
    6  -22    6      1.26      0.00
   10  -22    6      0.91      0.00
   11  -22    6      1.76      0.00
   12  -22    6     -0.60      0.00
    1  -21    6     -0.75      0.00
    2  -21    6     -0.17      0.00
   13  -21    6      0.98      0.00
   14  -21    6      2.10      0.00
   -1  -20    6      2.30      0.00
   15  -20    6     -2.76      0.00
   -3  -19    6      0.74      0.00
   16  -19    6     -0.53      0.00
   17  -18    6     -1.27      0.00
   -6  -17    6     -0.03      0.00
   -7  -16    6     -4.30      0.00
   18  -16    6      1.93      0.00
   18  -15    6      1.09      0.00
   18  -14    6     -1.88      0.00
  -12  -11    6     -0.23      0.00
  -13  -10    6      1.87      0.00
  -14   -9    6     -1.71      0.00
   -1   -8    6     -8.47      0.00
  -15   -7    6     -2.90      0.00
  -16   -6    6     -2.01      0.00
   18   -6    6     -0.26      0.00
  -17   -5    6      0.10      0.00
  -17   -4    6      1.10      0.00
  -18   -3    6      0.42      0.00
  -19   -1    6      0.36      0.00
   16    0    6      0.62      0.00
  -20    1    6      0.56      0.00
   15    2    6     -0.36      0.00
  -21    4    6      0.58      0.00
   14    4    6      0.54      0.00
   12    7    6      0.69      0.00
  -22    8    6      2.05      0.00
   11    8    6      3.11      0.00
  -22    9    6     -0.43      0.00
  -22   10    6      0.76      0.00
  -22   11    6      0.50      0.00
    9   11    6      4.00      0.00
  -22   12    6      1.92      0.00
    8   12    6     -1.52      0.00
  -22   13    6      0.76      0.00
    7   13    6     -0.72      0.00
  -22   14    6      0.18      0.00
    6   14    6     -0.91      0.00
    5   15    6     -3.50      0.00
  -21   16    6      0.52      0.00
  -21   17    6     -0.63      0.00
  -20   18    6      0.10      0.00
    1   18    6      0.93      0.00
   -1   19    6      2.95      0.00
  -19   20    6      1.51      0.00
  -18   20    6     -0.19      0.00
   -2   20    6     -0.25      0.00
  -17   21    6     -0.31      0.00
   -5   21    6     -1.90      0.00
  -16   22    6      1.11      0.00
  -15   22    6     -0.87      0.00
  -14   22    6      0.37      0.00
   -9   22    6     -0.51      0.00
   -8   22    6     -0.40      0.00
   -7   22    6      0.86      0.00
    4  -22    7      2.03      0.00
    5  -22    7     -0.26      0.00
    6  -22    7     -1.73      0.00
    7  -22    7     -0.22      0.00
    8  -22    7     -0.85      0.00
    9  -22    7      0.32      0.00
   10  -22    7     -0.22      0.00
   11  -22    7      0.57      0.00
    1  -21    7      0.45      0.00
    2  -21    7     -0.92      0.00
   12  -21    7     -0.57      0.00
   13  -21    7      0.49      0.00
   -1  -20    7     -1.12      0.00
   14  -20    7      0.39      0.00
   15  -20    7      0.14      0.00
   -3  -19    7     -2.15      0.00
   15  -19    7     -4.82      0.00
   -4  -18    7     -0.88      0.00
   16  -18    7      1.86      0.00
   -6  -17    7      0.24      0.00
   17  -17    7     -0.66      0.00
   -7  -16    7      4.00      0.00
   17  -16    7     -0.18      0.00
   18  -14    7      0.29      0.00
   18  -13    7     -0.65      0.00
   18  -12    7      2.90      0.00
  -12  -11    7     -2.26      0.00
   18  -11    7      0.59      0.00
  -13  -10    7     -1.56      0.00
   18  -10    7      0.51      0.00
  -14   -9    7     -3.62      0.00
   18   -9    7      1.84      0.00
  -15   -8    7     -2.84      0.00
   -2   -8    7    -11.04      0.00
   18   -8    7     -0.27      0.00
  -16   -6    7     -0.17      0.00
  -17   -5    7      1.91      0.00
   17   -4    7     -2.84      0.00
  -18   -3    7      0.89      0.00
  -19   -1    7      0.26      0.00
   16   -1    7      0.81      0.00
  -20    1    7      1.96      0.00
   15    1    7      0.75      0.00
   14    3    7      1.60      0.00
  -21    4    7      2.44      0.00
   13    5    7      0.26      0.00
   12    6    7      0.71      0.00
  -22    8    7     -2.60      0.00
   11    8    7     -0.20      0.00
  -22    9    7     -1.06      0.00
   10    9    7      1.18      0.00
  -22   10    7     -1.74      0.00
    9   10    7      0.99      0.00
  -22   11    7     -0.96      0.00
  -22   12    7      2.31      0.00
  -22   13    7      0.47      0.00
  -22   14    7      2.56      0.00
  -21   16    7      0.08      0.00
    3   16    7      1.12      0.00
  -21   17    7      1.13      0.00
    2   17    7     -0.94      0.00
  -20   18    7      0.12      0.00
    0   18    7      0.87      0.00
   -1   19    7     -0.23      0.00
  -19   20    7     -1.21      0.00
   -3   20    7      1.03      0.00
  -17   21    7     -1.05      0.00
   -6   21    7     -0.21      0.00
   -5   21    7     -0.52      0.00
  -15   22    7      0.69      0.00
  -14   22    7     -0.12      0.00
  -13   22    7      0.89      0.00
  -12   22    7     -0.25      0.00
  -11   22    7     -2.79      0.00
  -10   22    7      0.08      0.00
   -9   22    7     -0.68      0.00
   -8   22    7     -0.64      0.00
    5  -22    8     -1.58      0.00
    6  -22    8     -0.03      0.00
    7  -22    8      0.49      0.00
    8  -22    8      4.00      0.00
    9  -22    8     -2.21      0.00
   10  -22    8      0.53      0.00
    1  -21    8      1.40      0.00
    2  -21    8     -1.51      0.00
   11  -21    8      0.03      0.00
   12  -21    8     -0.43      0.00
   13  -21    8      0.36      0.00
   -1  -20    8      0.99      0.00
    0  -20    8      1.60      0.00
   13  -20    8      0.29      0.00
   14  -20    8      1.56      0.00
   -3  -19    8      0.94      0.00
   15  -19    8      2.89      0.00
   15  -18    8      1.28      0.00
   16  -18    8      0.14      0.00
   -6  -17    8      0.81      0.00
   16  -17    8      1.91      0.00
   -7  -16    8      2.12      0.00
   17  -16    8     -0.41      0.00
   17  -15    8     -1.58      0.00
   17  -14    8      2.37      0.00
   17  -13    8     -1.74      0.00
  -13  -10    8      0.10      0.00
  -14   -9    8      3.36      0.00
  -15   -8    8      0.26      0.00
   17   -8    8      0.33      0.00
   17   -7    8      1.62      0.00
  -16   -6    8     -0.53      0.00
   -3   -6    8     -2.05      0.00
   17   -6    8     -0.06      0.00
  -17   -5    8     -1.89      0.00
   17   -5    8     -1.89      0.00
  -18   -3    8     -1.11      0.00
   16   -3    8      0.55      0.00
   16   -2    8      1.60      0.00
  -19   -1    8     -0.51      0.00
   15    0    8      2.03      0.00
   14    2    8     -0.27      0.00
  -21    3    8     -3.27      0.00
   13    4    8     -0.53      0.00
  -22    7    8     -1.28      0.00
   11    7    8      1.62      0.00
  -22    8    8     -0.54      0.00
    8   11    8     -1.56      0.00
  -22   12    8     -0.36      0.00
    7   12    8     -2.31      0.00
  -22   13    8      1.32      0.00
    6   13    8     -2.37      0.00
  -22   14    8     -0.66      0.00
    5   14    8     -1.83      0.00
    4   15    8      0.29      0.00
  -21   16    8     -0.44      0.00
  -21   17    8     -1.50      0.00
    1   17    8      0.43      0.00
  -20   18    8      0.37      0.00
    0   18    8     -0.24      0.00
  -19   19    8      0.79      0.00
   -2   19    8     -2.84      0.00
  -18   20    8     -0.18      0.00
   -4   20    8     -1.67      0.00
  -17   21    8      1.72      0.00
  -16   21    8     -1.35      0.00
   -7   21    8      0.21      0.00
   -6   21    8     -0.08      0.00
  -14   22    8     -1.03      0.00
  -13   22    8     -0.99      0.00
  -12   22    8     -2.43      0.00
  -11   22    8      2.92      0.00
  -10   22    8     -1.05      0.00
   -9   22    8      0.02      0.00
    6  -22    9      1.81      0.00
    7  -22    9      0.10      0.00
    8  -22    9     -1.45      0.00
    2  -21    9      2.62      0.00
    3  -21    9      0.40      0.00
    9  -21    9      4.38      0.00
   10  -21    9     -2.39      0.00
   11  -21    9     -2.33      0.00
   12  -21    9      0.85      0.00
   -1  -20    9      0.65      0.00
    0  -20    9      0.77      0.00
   12  -20    9     -2.34      0.00
   13  -20    9      1.27      0.00
   -3  -19    9      1.87      0.00
   14  -19    9     -1.46      0.00
   15  -18    9      1.41      0.00
   -6  -17    9      2.77      0.00
   15  -17    9      0.89      0.00
   -7  -16    9     -2.31      0.00
   16  -16    9      0.61      0.00
   16  -15    9     -0.05      0.00
   17  -13    9     -0.59      0.00
   17  -12    9     -1.67      0.00
   17  -11    9      1.80      0.00
  -13  -10    9     -1.07      0.00
   17  -10    9      1.02      0.00
  -14   -9    9      2.45      0.00
   17   -9    9     -0.36      0.00
  -15   -8    9      0.88      0.00
   17   -8    9     -1.85      0.00
  -16   -6    9     -0.06      0.00
  -17   -5    9      2.65      0.00
   16   -5    9     -1.65      0.00
   16   -4    9      1.75      0.00
  -18   -3    9     -3.06      0.00
   15   -2    9      0.69      0.00
  -19   -1    9     -1.29      0.00
   15   -1    9     -0.42      0.00
   14    1    9     -0.36      0.00
  -21    3    9     -1.25      0.00
   13    3    9     -1.34      0.00
  -21    4    9     -1.93      0.00
   12    5    9     -1.41      0.00
   11    6    9      3.73      0.00
  -22    7    9      1.77      0.00
  -22    8    9      0.89      0.00
   10    8    9      0.94      0.00
    9    9    9     -0.35      0.00
    8   10    9      6.08      0.00
  -22   12    9     -1.83      0.00
  -22   13    9      1.24      0.00
  -22   14    9     -1.16      0.00
    3   15    9     -0.99      0.00
  -21   16    9     -1.04      0.00
    2   16    9     -0.31      0.00
  -21   17    9     -0.18      0.00
  -20   18    9      2.18      0.00
   -1   18    9      0.17      0.00
  -19   19    9      1.68      0.00
   -3   19    9     -2.49      0.00
  -18   20    9     -2.45      0.00
   -5   20    9      1.91      0.00
  -17   21    9      0.36      0.00
  -16   21    9      0.40      0.00
  -15   21    9      3.20      0.00
   -8   21    9      1.45      0.00
   -7   21    9     -0.32      0.00
  -13   22    9      0.46      0.00
  -12   22    9      1.33      0.00
    2  -21   10     -1.20      0.00
    3  -21   10     -1.79      0.00
    4  -21   10      0.03      0.00
    5  -21   10      2.19      0.00
    7  -21   10      3.86      0.00
    8  -21   10     -1.82      0.00
    9  -21   10     -1.65      0.00
   10  -21   10     -1.26      0.00
    0  -20   10      0.94      0.00
   12  -20   10     -3.65      0.00
   -2  -19   10      2.08      0.00
   13  -19   10      2.36      0.00
   -4  -18   10     -2.27      0.00
   14  -18   10      0.35      0.00
   -6  -17   10     -3.37      0.00
   15  -17   10      0.17      0.00
   -7  -16   10      2.41      0.00
   15  -16   10      0.06      0.00
   16  -15   10      1.08      0.00
   16  -14   10     -1.15      0.00
   16  -13   10     -0.14      0.00
   16  -12   10     -1.52      0.00
  -14   -9   10      1.25      0.00
  -15   -8   10      1.17      0.00
   16   -8   10     -2.45      0.00
  -16   -7   10      0.74      0.00
   16   -7   10     -1.65      0.00
  -16   -6   10     -0.36      0.00
   16   -6   10      1.55      0.00
  -17   -5   10      0.56      0.00
  -18   -3   10     -0.59      0.00
   15   -3   10      0.02      0.00
  -19   -2   10      0.41      0.00
   15   -2   10     -0.03      0.00
  -19   -1   10      2.73      0.00
   14   -1   10     -0.07      0.00
   14    0   10      0.00      0.00
   13    2   10     -1.21      0.00
  -21    3   10      0.41      0.00
   12    4   10      0.05      0.00
  -22    7   10      1.02      0.00
   10    7   10     -2.23      0.00
  -22    8   10      2.29      0.00
    9    8   10      0.99      0.00
    7   11   10     -0.58      0.00
  -22   12   10      3.36      0.00
    6   12   10      3.11      0.00
  -22   13   10     -2.05      0.00
    5   13   10     -2.40      0.00
  -22   14   10      1.51      0.00
    4   14   10      1.66      0.00
  -21   15   10     -0.52      0.00
  -21   16   10     -0.25      0.00
    1   16   10     -2.42      0.00
  -21   17   10      0.53      0.00
    0   17   10      0.59      0.00
  -20   18   10     -1.29      0.00
   -2   18   10      2.06      0.00
  -19   19   10     -1.12      0.00
   -4   19   10     -2.00      0.00
   -3   19   10     -0.29      0.00
  -18   20   10      1.10      0.00
  -17   20   10     -0.26      0.00
   -6   20   10      0.51      0.00
   -5   20   10     -0.42      0.00
  -16   21   10     -0.87      0.00
  -15   21   10     -1.88      0.00
  -14   21   10     -0.88      0.00
  -13   21   10     -1.14      0.00
  -12   21   10      1.50      0.00
  -11   21   10     -2.32      0.00
  -10   21   10     -1.15      0.00
   -9   21   10      0.65      0.00
   -8   21   10     -2.00      0.00
    3  -21   11      3.28      0.00
    4  -21   11      2.52      0.00
    5  -21   11     -0.38      0.00
    6  -21   11     -2.70      0.00
    7  -21   11      0.61      0.00
    8  -21   11     -2.27      0.00
    9  -21   11      0.49      0.00
    0  -20   11      0.52      0.00
    1  -20   11      0.22      0.00
   10  -20   11     -3.50      0.00
   11  -20   11      0.83      0.00
   -2  -19   11      0.93      0.00
   12  -19   11      0.00      0.00
   13  -19   11      1.30      0.00
   -4  -18   11     -0.59      0.00
   13  -18   11     -0.12      0.00
   14  -17   11      0.13      0.00
   -7  -16   11     -1.50      0.00
   15  -16   11      1.28      0.00
   15  -15   11      2.14      0.00
   15  -14   11     -1.59      0.00
   16  -12   11      0.22      0.00
   16  -11   11     -1.11      0.00
  -13  -10   11     -1.46      0.00
   16  -10   11      0.04      0.00
  -14   -9   11     -2.03      0.00
   16   -9   11      1.48      0.00
  -15   -8   11     -1.82      0.00
  -16   -7   11      0.74      0.00
  -16   -6   11      0.47      0.00
  -17   -5   11     -1.53      0.00
   15   -5   11      1.54      0.00
   15   -4   11      0.07      0.00
  -18   -3   11     -0.20      0.00
  -19   -2   11      0.11      0.00
   14   -2   11      0.04      0.00
  -19   -1   11      3.02      0.00
   14   -1   11      0.35      0.00
  -20    0   11      2.12      0.00
   13    1   11     -1.86      0.00
  -21    3   11      3.31      0.00
   12    3   11      0.04      0.00
   11    4   11     -0.91      0.00
   10    6   11     -0.95      0.00
  -22    7   11     -1.29      0.00
  -22    8   11     -0.06      0.00
    8    9   11     -0.35      0.00
    7   10   11     -3.61      0.00
    6   11   11      1.89      0.00
  -22   12   11     -1.49      0.00
    5   12   11     -0.34      0.00
  -22   13   11      1.31      0.00
    4   13   11      1.07      0.00
  -22   14   11     -1.26      0.00
    3   14   11      0.13      0.00
  -21   15   11      0.38      0.00
    2   15   11     -0.46      0.00
  -21   16   11      1.01      0.00
  -20   17   11     -1.16      0.00
   -1   17   11     -0.80      0.00
  -20   18   11      0.47      0.00
  -19   18   11     -1.50      0.00
  -19   19   11     -1.75      0.00
  -18   19   11      1.36      0.00
   -4   19   11      0.69      0.00
  -17   20   11     -0.34      0.00
  -16   20   11      0.04      0.00
   -7   20   11     -2.03      0.00
  -15   21   11     -0.61      0.00
  -14   21   11      0.81      0.00
  -13   21   11     -1.27      0.00
  -12   21   11      0.26      0.00
  -11   21   11     -2.30      0.00
  -10   21   11      0.13      0.00
    5  -21   12     -0.61      0.00
    6  -21   12     -0.15      0.00
    7  -21   12     -2.95      0.00
    1  -20   12      1.58      0.00
    2  -20   12     -0.54      0.00
    3  -20   12     -0.97      0.00
    9  -20   12      1.27      0.00
   10  -20   12     -2.67      0.00
   -2  -19   12     -1.60      0.00
   -1  -19   12     -0.52      0.00
   11  -19   12      0.97      0.00
   12  -19   12      0.78      0.00
   -4  -18   12      3.22      0.00
   12  -18   12      1.02      0.00
   13  -18   12      0.30      0.00
   13  -17   12     -0.53      0.00
   -7  -16   12     -1.65      0.00
   14  -16   12     -0.06      0.00
   -8  -15   12      3.01      0.00
   14  -15   12      0.09      0.00
   15  -14   12      1.80      0.00
   15  -13   12      0.58      0.00
   15  -12   12      1.38      0.00
   15  -11   12     -0.23      0.00
  -13  -10   12     -1.52      0.00
   15  -10   12     -1.41      0.00
  -14   -9   12     -0.35      0.00
   15   -9   12     -0.53      0.00
  -15   -8   12     -0.14      0.00
   15   -8   12     -0.87      0.00
   15   -7   12      0.10      0.00
  -16   -6   12      0.79      0.00
   15   -6   12      0.44      0.00
  -17   -5   12      0.00      0.00
   14   -4   12     -0.68      0.00
  -18   -3   12      4.17      0.00
   14   -3   12      0.53      0.00
  -19   -2   12      0.01      0.00
  -19   -1   12     -1.21      0.00
   13   -1   12     -0.63      0.00
   13    0   12      0.42      0.00
   12    2   12      2.58      0.00
  -21    3   12      2.23      0.00
   11    3   12     -1.70      0.00
   10    5   12     -0.24      0.00
  -22    7   12     -0.73      0.00
    9    7   12      0.03      0.00
  -22    8   12     -1.85      0.00
    8    8   12     -1.04      0.00
  -22    9   12      0.42      0.00
    7    9   12     -1.23      0.00
  -22   11   12     -0.43      0.00
  -22   12   12     -0.61      0.00
  -22   13   12     -0.74      0.00
    2   14   12      0.97      0.00
  -21   15   12     -1.43      0.00
    1   15   12     -0.24      0.00
  -21   16   12      0.06      0.00
    0   16   12      0.92      0.00
  -20   17   12     -1.71      0.00
   -2   17   12      0.05      0.00
  -19   18   12      0.01      0.00
   -3   18   12     -0.66      0.00
  -18   19   12      0.16      0.00
   -6   19   12     -1.60      0.00
   -5   19   12     -1.39      0.00
  -17   20   12      0.12      0.00
  -16   20   12      0.34      0.00
  -15   20   12      1.41      0.00
   -9   20   12     -0.22      0.00
   -8   20   12      0.12      0.00
    1  -20   13     -0.75      0.00
    2  -20   13      1.08      0.00
    3  -20   13      2.75      0.00
    4  -20   13     -0.59      0.00
    5  -20   13     -1.03      0.00
    6  -20   13      3.53      0.00
    7  -20   13      1.46      0.00
    8  -20   13      0.37      0.00
    9  -20   13     -0.14      0.00
   -1  -19   13      1.24      0.00
    0  -19   13      0.34      0.00
   10  -19   13     -2.03      0.00
   -3  -18   13     -2.48      0.00
   11  -18   13     -0.42      0.00
   12  -18   13      0.87      0.00
   -5  -17   13     -6.12      0.00
   12  -17   13     -0.16      0.00
   -6  -16   13      1.58      0.00
   13  -16   13      0.01      0.00
   -8  -15   13      0.05      0.00
   -9  -14   13      4.26      0.00
   14  -14   13      0.67      0.00
  -10  -13   13      0.99      0.00
   14  -13   13     -1.65      0.00
   14  -12   13     -2.09      0.00
   14  -11   13     -1.68      0.00
  -13  -10   13     -1.72      0.00
  -14   -9   13      2.75      0.00
  -15   -8   13      0.28      0.00
   14   -7   13     -1.74      0.00
  -16   -6   13      1.27      0.00
   14   -6   13     -0.02      0.00
  -17   -5   13     -1.44      0.00
   14   -5   13     -0.91      0.00
  -18   -3   13     -0.68      0.00
   13   -2   13      1.02      0.00
  -19   -1   13     -3.23      0.00
   12    0   13      1.56      0.00
   11    2   13      0.31      0.00
  -21    3   13     -3.17      0.00
   10    4   13     -0.58      0.00
    9    6   13     -0.04      0.00
  -22    7   13      2.72      0.00
    8    7   13      0.47      0.00
  -22    8   13     -0.87      0.00
  -22    9   13      2.41      0.00
  -22   10   13     -0.12      0.00
  -22   11   13      0.06      0.00
    5   11   13      0.80      0.00
  -22   12   13      0.94      0.00
    4   12   13     -1.48      0.00
  -22   13   13      0.03      0.00
    3   13   13      0.88      0.00
  -21   15   13      2.39      0.00
    0   15   13     -0.74      0.00
  -20   16   13      0.77      0.00
   -1   16   13      0.87      0.00
  -20   17   13     -1.01      0.00
   -3   17   13      1.84      0.00
  -19   18   13      1.01      0.00
  -18   18   13     -2.22      0.00
   -5   18   13      0.27      0.00
   -4   18   13      0.75      0.00
  -18   19   13     -0.99      0.00
  -17   19   13      0.08      0.00
   -7   19   13      0.57      0.00
   -6   19   13      0.52      0.00
  -16   20   13     -0.48      0.00
  -15   20   13     -0.12      0.00
  -14   20   13     -1.77      0.00
  -13   20   13      2.16      0.00
  -12   20   13     -2.32      0.00
  -11   20   13      1.28      0.00
  -10   20   13     -1.58      0.00
   -9   20   13     -1.80      0.00
    3  -20   14     -2.46      0.00
    4  -20   14     -1.14      0.00
    5  -20   14     -1.54      0.00
    6  -20   14      0.89      0.00
   -1  -19   14     -2.05      0.00
    0  -19   14      1.13      0.00
    1  -19   14      0.28      0.00
    2  -19   14      0.60      0.00
    8  -19   14      1.41      0.00
    9  -19   14     -1.22      0.00
   -3  -18   14      2.26      0.00
   -2  -18   14      5.04      0.00
   10  -18   14      0.64      0.00
   11  -18   14      0.26      0.00
   -5  -17   14      0.68      0.00
   11  -17   14      0.03      0.00
   -6  -16   14     -0.88      0.00
   12  -16   14     -0.89      0.00
   -8  -15   14     -3.49      0.00
   13  -15   14     -0.80      0.00
   -9  -14   14     -1.02      0.00
   13  -14   14     -0.59      0.00
  -10  -13   14     -5.24      0.00
   13  -13   14     -1.63      0.00
  -11  -12   14      2.35      0.00
  -12  -11   14     -5.19      0.00
   14  -11   14     -1.05      0.00
  -13  -10   14      2.13      0.00
   14  -10   14      0.21      0.00
  -14   -9   14     -1.07      0.00
   14   -9   14     -0.58      0.00
  -15   -8   14     -2.46      0.00
   14   -8   14     -1.15      0.00
  -16   -6   14     -2.74      0.00
  -17   -5   14     -0.51      0.00
   13   -5   14     -0.42      0.00
   13   -4   14      0.06      0.00
  -18   -3   14      0.51      0.00
   12   -2   14     -0.93      0.00
  -19   -1   14     -0.57      0.00
   12   -1   14     -0.03      0.00
  -20    1   14     -3.37      0.00
   11    1   14      1.84      0.00
   10    3   14     -0.80      0.00
  -21    4   14      0.45      0.00
    9    4   14     -2.53      0.00
    9    5   14      1.08      0.00
    8    6   14     -0.71      0.00
    7    7   14     -1.29      0.00
  -22    8   14      3.14      0.00
  -22    9   14     -2.67      0.00
    6    9   14     -0.68      0.00
  -22   10   14      2.24      0.00
    5   10   14      0.97      0.00
  -22   11   14      2.60      0.00
    4   11   14      0.18      0.00
    3   12   14      0.53      0.00
    2   13   14      1.61      0.00
  -21   14   14      0.07      0.00
    1   14   14     -1.21      0.00
  -21   15   14     -0.66      0.00
  -20   16   14     -0.14      0.00
   -2   16   14      1.13      0.00
  -19   17   14      0.09      0.00
   -4   17   14      1.24      0.00
  -18   18   14      0.26      0.00
   -6   18   14     -0.16      0.00
   -5   18   14      0.27      0.00
  -17   19   14     -0.91      0.00
  -16   19   14     -0.18      0.00
  -15   19   14      0.88      0.00
   -9   19   14     -1.35      0.00
   -8   19   14      2.15      0.00
  -14   20   14     -0.07      0.00
  -13   20   14     -1.19      0.00
  -12   20   14     -0.34      0.00
    1  -19   15      1.84      0.00
    2  -19   15      1.64      0.00
    3  -19   15     -2.24      0.00
    4  -19   15      1.66      0.00
    5  -19   15     -0.11      0.00
    6  -19   15      0.38      0.00
    7  -19   15      2.83      0.00
    8  -19   15      2.74      0.00
   -2  -18   15     -0.49      0.00
   -1  -18   15     -3.67      0.00
    9  -18   15      0.68      0.00
   -4  -17   15     -1.36      0.00
   10  -17   15     -0.02      0.00
   -6  -16   15     -1.62      0.00
   11  -16   15     -0.67      0.00
   12  -15   15      0.72      0.00
   -9  -14   15      1.03      0.00
   12  -14   15      2.78      0.00
  -10  -13   15      2.87      0.00
  -11  -12   15     -3.26      0.00
   13  -12   15     -0.09      0.00
  -12  -11   15     -0.62      0.00
   13  -11   15      0.55      0.00
  -13  -10   15     -0.49      0.00
   13  -10   15      0.88      0.00
  -14   -9   15     -1.55      0.00
   13   -9   15      3.23      0.00
   13   -8   15     -0.44      0.00
  -15   -7   15      3.21      0.00
   13   -7   15      1.57      0.00
  -16   -6   15      4.09      0.00
  -17   -5   15      1.71      0.00
  -17   -4   15      3.07      0.00
   12   -4   15     -1.52      0.00
  -18   -3   15      0.48      0.00
   12   -3   15     -0.63      0.00
  -19   -1   15     -0.22      0.00
   11   -1   15      2.22      0.00
   11    0   15      0.80      0.00
  -20    1   15     -1.14      0.00
   10    1   15     -1.09      0.00
   10    2   15     -1.94      0.00
    9    3   15      1.21      0.00
  -21    4   15     -1.82      0.00
    8    5   15      0.96      0.00
    7    6   15     -2.51      0.00
    6    8   15      0.24      0.00
    5    9   15     -2.03      0.00
    4   10   15      0.20      0.00
    3   11   15      0.74      0.00
    2   12   15     -0.68      0.00
    1   13   15      0.10      0.00
  -21   14   15     -1.59      0.00
    0   14   15     -0.47      0.00
  -20   15   15     -0.45      0.00
  -20   16   15     -0.24      0.00
   -3   16   15     -0.19      0.00
  -19   17   15     -0.87      0.00
   -5   17   15     -0.65      0.00
  -18   18   15      0.60      0.00
  -17   18   15     -0.44      0.00
   -7   18   15      0.49      0.00
  -16   19   15     -1.54      0.00
  -15   19   15     -2.03      0.00
  -14   19   15     -1.34      0.00
  -13   19   15      1.82      0.00
  -12   19   15     -0.94      0.00
  -11   19   15     -1.63      0.00
  -10   19   15      0.05      0.00
    3  -19   16      1.48      0.00
    4  -19   16      0.22      0.00
    5  -19   16      1.65      0.00
   -1  -18   16      3.92      0.00
    0  -18   16      2.12      0.00
    1  -18   16      1.23      0.00
    6  -18   16     -0.71      0.00
    7  -18   16      2.26      0.00
    8  -18   16      1.59      0.00
   -3  -17   16      1.55      0.00
    9  -17   16      0.25      0.00
   -5  -16   16     -2.95      0.00
   10  -16   16      0.87      0.00
   -7  -15   16     -0.64      0.00
   10  -15   16     -0.20      0.00
   11  -15   16     -2.10      0.00
   -8  -14   16      0.71      0.00
   11  -14   16      0.44      0.00
   12  -13   16      0.98      0.00
   12  -12   16      2.44      0.00
  -12  -11   16      4.30      0.00
   12  -11   16      2.18      0.00
  -12  -10   16     -1.87      0.00
   12  -10   16      1.18      0.00
   12   -9   16      1.28      0.00
  -14   -8   16     -3.36      0.00
   12   -8   16     -1.00      0.00
  -15   -7   16     -0.09      0.00
   12   -7   16     -0.33      0.00
  -16   -6   16      0.64      0.00
   12   -6   16      0.50      0.00
   12   -5   16      0.47      0.00
  -17   -4   16      1.00      0.00
  -18   -3   16     -0.99      0.00
   11   -3   16      0.00      0.00
  -18   -2   16     -1.68      0.00
   11   -2   16     -0.35      0.00
  -19   -1   16      1.74      0.00
  -19    0   16     -0.59      0.00
   10    0   16     -0.92      0.00
    9    2   16      0.72      0.00
    8    4   16     -1.15      0.00
  -21    5   16     -1.48      0.00
    7    5   16     -0.17      0.00
    6    7   16      0.30      0.00
    5    8   16     -0.21      0.00
    4    9   16      0.74      0.00
    3   10   16     -0.72      0.00
    2   11   16      0.37      0.00
  -21   12   16     -2.82      0.00
    1   12   16      0.55      0.00
  -21   13   16      1.28      0.00
    0   13   16     -2.19      0.00
   -1   14   16      0.27      0.00
  -20   15   16     -1.25      0.00
   -3   15   16      0.21      0.00
  -19   16   16     -0.89      0.00
   -4   16   16      0.44      0.00
  -18   17   16      1.08      0.00
   -6   17   16     -0.11      0.00
  -17   18   16      1.15      0.00
  -16   18   16      0.00      0.00
  -15   18   16     -1.13      0.00
   -9   18   16      3.10      0.00
   -8   18   16     -0.92      0.00
    0  -18   17      0.37      0.00
    1  -18   17      0.67      0.00
    2  -18   17     -0.56      0.00
    3  -18   17      1.04      0.00
    4  -18   17     -0.45      0.00
    5  -18   17      0.67      0.00
    6  -18   17      1.05      0.00
   -3  -17   17      0.15      0.00
   -2  -17   17     -3.49      0.00
    0  -17   17      2.59      0.00
    7  -17   17     -1.48      0.00
    8  -17   17      1.77      0.00
   -5  -16   17     -2.13      0.00
    8  -16   17     -0.38      0.00
    9  -16   17     -0.16      0.00
   -6  -15   17      0.14      0.00
    9  -15   17      1.10      0.00
   10  -15   17      0.39      0.00
   -8  -14   17     -0.61      0.00
   10  -14   17      0.25      0.00
   -9  -13   17     -1.18      0.00
   11  -13   17      0.80      0.00
   11  -12   17     -0.68      0.00
   11  -11   17     -1.74      0.00
   11  -10   17     -0.20      0.00
  -13   -9   17     -3.70      0.00
   11   -9   17     -3.12      0.00
  -14   -8   17      1.30      0.00
   11   -8   17     -1.39      0.00
  -15   -7   17     -1.91      0.00
   11   -7   17     -3.62      0.00
   11   -6   17     -0.66      0.00
  -16   -5   17      3.33      0.00
   11   -5   17     -2.54      0.00
  -17   -4   17     -1.38      0.00
  -18   -2   17      1.50      0.00
   10   -2   17     -0.05      0.00
  -19    0   17     -0.82      0.00
    9    0   17     -0.37      0.00
    9    1   17     -1.54      0.00
  -20    2   17      0.23      0.00
    8    2   17      0.36      0.00
    8    3   17     -0.86      0.00
    7    4   17      0.36      0.00
  -21    5   17     -1.05      0.00
    6    5   17     -2.25      0.00
  -21    6   17      0.23      0.00
    6    6   17      0.68      0.00
  -21    7   17     -0.86      0.00
    5    7   17     -0.34      0.00
    4    8   17      1.62      0.00
  -21    9   17      1.81      0.00
    3    9   17     -0.74      0.00
  -21   10   17     -0.43      0.00
    2   10   17     -0.20      0.00
  -21   11   17      0.74      0.00
  -21   12   17      2.51      0.00
    0   12   17     -3.97      0.00
   -1   13   17      1.24      0.00
  -20   14   17     -1.17      0.00
   -2   14   17     -1.25      0.00
   -4   15   17      0.28      0.00
  -19   16   17     -1.65      0.00
  -18   16   17     -0.80      0.00
   -6   16   17     -0.51      0.00
   -5   16   17     -0.07      0.00
  -17   17   17     -0.05      0.00
   -8   17   17     -2.09      0.00
   -7   17   17      0.80      0.00
  -15   18   17     -0.89      0.00
  -14   18   17      1.27      0.00
  -13   18   17      2.28      0.00
  -12   18   17      2.83      0.00
  -11   18   17     -2.52      0.00
   -1  -17   18      2.38      0.00
    0  -17   18      1.32      0.00
    1  -17   18      0.22      0.00
    2  -17   18     -2.58      0.00
    3  -17   18     -1.34      0.00
    4  -17   18     -1.05      0.00
    5  -17   18     -2.78      0.00
    6  -17   18      1.61      0.00
   -4  -16   18      0.51      0.00
    7  -16   18     -0.15      0.00
   -6  -15   18     -0.88      0.00
    8  -15   18      0.59      0.00
   -7  -14   18      0.39      0.00
    9  -14   18      1.03      0.00
    9  -13   18      1.33      0.00
   10  -13   18     -0.09      0.00
  -10  -12   18     -2.56      0.00
   10  -12   18     -0.16      0.00
  -11  -11   18      2.25      0.00
   10  -11   18     -1.68      0.00
  -12  -10   18     -0.40      0.00
   10  -10   18      0.64      0.00
  -13   -9   18     -0.24      0.00
   10   -9   18     -1.26      0.00
  -14   -8   18      0.26      0.00
   10   -8   18      0.16      0.00
   10   -7   18     -0.19      0.00
  -15   -6   18      0.16      0.00
   10   -6   18      1.26      0.00
  -16   -5   18     -0.11      0.00
   10   -5   18     -0.11      0.00
  -17   -4   18      0.37      0.00
   10   -4   18      0.74      0.00
  -17   -3   18     -1.90      0.00
  -18   -2   18     -2.58      0.00
    9   -2   18     -2.18      0.00
  -18   -1   18      2.39      0.00
    9   -1   18      0.06      0.00
  -19    0   18      0.52      0.00
  -19    1   18      1.64      0.00
    8    1   18      0.23      0.00
  -20    3   18     -0.51      0.00
    7    3   18      1.52      0.00
    6    4   18      0.16      0.00
    5    6   18      1.49      0.00
  -21    7   18      0.47      0.00
    4    7   18     -0.86      0.00
  -21    8   18      1.42      0.00
    3    8   18     -0.24      0.00
  -21    9   18      1.38      0.00
    2    9   18      1.83      0.00
  -21   10   18      0.65      0.00
    1   10   18     -1.83      0.00
    0   11   18     -0.10      0.00
   -1   12   18     -0.27      0.00
  -20   13   18      0.23      0.00
   -2   13   18     -1.78      0.00
   -3   14   18      0.55      0.00
  -19   15   18     -1.70      0.00
   -5   15   18     -0.08      0.00
  -18   16   18      1.23      0.00
  -17   16   18     -0.67      0.00
   -8   16   18     -1.57      0.00
   -7   16   18      0.78      0.00
  -16   17   18     -0.12      0.00
  -15   17   18     -0.30      0.00
  -14   17   18      1.51      0.00
  -13   17   18     -0.68      0.00
  -12   17   18     -0.25      0.00
  -11   17   18     -2.15      0.00
  -10   17   18     -1.02      0.00
   -9   17   18     -2.34      0.00
    2  -17   19      0.19      0.00
   -2  -16   19      0.00      0.00
   -1  -16   19      0.85      0.00
    0  -16   19      0.72      0.00
    3  -16   19     -5.36      0.00
    4  -16   19     -1.59      0.00
    5  -16   19     -2.21      0.00
    6  -16   19      0.36      0.00
   -5  -15   19      1.58      0.00
    6  -15   19     -2.53      0.00
    7  -15   19     -0.30      0.00
   -6  -14   19     -2.37      0.00
    7  -14   19     -1.97      0.00
    8  -14   19     -0.74      0.00
   -8  -13   19      0.26      0.00
    8  -13   19     -2.80      0.00
   -9  -12   19      0.99      0.00
    9  -12   19      1.69      0.00
    9  -11   19      0.31      0.00
    9  -10   19      0.76      0.00
    9   -9   19      0.88      0.00
  -13   -8   19     -1.11      0.00
    9   -8   19     -0.71      0.00
  -14   -7   19     -0.08      0.00
    9   -7   19      2.15      0.00
  -15   -6   19     -0.82      0.00
    9   -6   19      1.14      0.00
  -16   -5   19     -0.62      0.00
    9   -5   19      0.31      0.00
  -16   -4   19      1.81      0.00
    9   -4   19      0.87      0.00
  -17   -3   19     -0.41      0.00
  -17   -2   19      2.26      0.00
    8   -2   19      0.55      0.00
  -18   -1   19     -1.33      0.00
    8   -1   19      0.82      0.00
  -18    0   19      3.26      0.00
  -19    1   19     -1.92      0.00
    7    1   19     -0.13      0.00
  -19    2   19      1.03      0.00
    6    3   19      2.36      0.00
  -20    4   19      1.07      0.00
    5    4   19      1.16      0.00
    5    5   19      0.23      0.00
    4    6   19     -0.90      0.00
    3    7   19      0.12      0.00
    2    8   19      0.45      0.00
    1    9   19     -1.05      0.00
    0   10   19      0.76      0.00
  -20   11   19     -0.39      0.00
   -1   11   19     -1.49      0.00
  -20   12   19      0.02      0.00
   -2   12   19      0.98      0.00
  -19   13   19      1.51      0.00
   -3   13   19      1.32      0.00
  -19   14   19      0.25      0.00
   -5   14   19      0.22      0.00
  -18   15   19      1.05      0.00
  -17   15   19      0.16      0.00
   -7   15   19      0.34      0.00
   -6   15   19      0.51      0.00
  -16   16   19      0.04      0.00
  -15   16   19     -2.28      0.00
  -10   16   19      0.45      0.00
   -9   16   19     -1.24      0.00
    0  -16   20     -0.05      0.00
    1  -16   20     -0.51      0.00
    2  -16   20     -3.45      0.00
    3  -16   20      0.67      0.00
   -3  -15   20      0.24      0.00
    3  -15   20     -0.78      0.00
    4  -15   20     -0.34      0.00
    5  -15   20     -0.54      0.00
   -5  -14   20      0.26      0.00
    5  -14   20      0.04      0.00
    6  -14   20     -0.70      0.00
   -7  -13   20     -1.76      0.00
    7  -13   20     -0.50      0.00
    7  -12   20     -0.09      0.00
    8  -12   20     -0.75      0.00
  -10  -11   20     -0.53      0.00
    8  -11   20     -0.25      0.00
  -11  -10   20      0.42      0.00
    8  -10   20     -1.23      0.00
  -12   -9   20     -1.44      0.00
    8   -9   20      0.57      0.00
  -13   -8   20      5.19      0.00
    8   -8   20     -2.55      0.00
  -14   -7   20     -1.18      0.00
    8   -7   20     -0.41      0.00
  -14   -6   20     -2.70      0.00
    8   -6   20     -0.98      0.00
  -15   -5   20      0.61      0.00
    8   -5   20     -0.69      0.00
  -16   -4   20     -0.93      0.00
    8   -4   20     -0.31      0.00
  -16   -3   20      0.64      0.00
  -17   -2   20     -1.19      0.00
    7   -2   20     -0.10      0.00
    7   -1   20     -0.48      0.00
  -18    0   20      0.44      0.00
  -18    1   20     -1.52      0.00
    6    1   20      1.61      0.00
  -19    2   20     -2.95      0.00
    5    3   20     -1.08      0.00
    4    4   20      0.68      0.00
    4    5   20     -1.37      0.00
  -20    6   20      2.29      0.00
    3    6   20      0.64      0.00
  -20    7   20      1.28      0.00
    2    7   20     -1.87      0.00
  -20    8   20      2.95      0.00
    1    8   20      0.18      0.00
  -20    9   20      1.14      0.00
    0    9   20     -0.15      0.00
  -20   10   20     -1.48      0.00
   -1   10   20     -1.46      0.00
   -2   11   20      1.68      0.00
  -19   12   20     -0.03      0.00
   -3   12   20      0.40      0.00
   -5   13   20      1.34      0.00
  -18   14   20     -0.77      0.00
  -17   14   20     -0.80      0.00
   -7   14   20      1.34      0.00
   -6   14   20      0.93      0.00
  -16   15   20      0.19      0.00
  -15   15   20     -2.76      0.00
   -9   15   20      1.38      0.00
   -8   15   20      2.53      0.00
  -13   16   20     -0.32      0.00
  -12   16   20     -0.20      0.00
   -1  -15   21      0.98      0.00
    0  -15   21     -0.39      0.00
    1  -15   21      0.21      0.00
    2  -15   21      1.16      0.00
   -4  -14   21     -1.58      0.00
   -3  -14   21     -1.67      0.00
    3  -14   21      1.47      0.00
    4  -14   21     -0.61      0.00
   -6  -13   21     -0.64      0.00
    5  -13   21      1.70      0.00
   -8  -12   21      1.40      0.00
    6  -12   21     -0.71      0.00
   -9  -11   21     -3.03      0.00
    6  -11   21      1.52      0.00
    7  -11   21     -0.04      0.00
  -10  -10   21     -0.73      0.00
    7  -10   21      1.93      0.00
    7   -9   21      0.43      0.00
    7   -8   21      2.37      0.00
  -13   -7   21      0.88      0.00
    7   -7   21      0.37      0.00
  -14   -6   21     -5.35      0.00
    7   -6   21      2.51      0.00
  -15   -5   21      3.22      0.00
    7   -5   21     -0.08      0.00
  -15   -4   21      0.21      0.00
    7   -4   21      0.24      0.00
  -16   -3   21     -1.32      0.00
  -17   -2   21      0.85      0.00
    6   -2   21      0.90      0.00
  -17   -1   21     -1.12      0.00
    6   -1   21      0.81      0.00
  -18    1   21     -1.50      0.00
    5    1   21     -1.22      0.00
  -18    2   21     -2.88      0.00
    4    2   21     -0.41      0.00
  -19    3   21     -2.03      0.00
    4    3   21      0.28      0.00
  -19    4   21     -0.49      0.00
    3    4   21     -0.65      0.00
    2    5   21     -2.32      0.00
    2    6   21      2.20      0.00
    1    7   21     -0.42      0.00
    0    8   21     -0.82      0.00
  -19    9   21      0.27      0.00
   -1    9   21     -0.24      0.00
  -19   10   21     -3.73      0.00
   -2   10   21     -0.97      0.00
  -19   11   21      0.22      0.00
   -4   11   21      1.08      0.00
   -3   11   21     -0.93      0.00
  -18   12   21      0.21      0.00
   -5   12   21     -2.00      0.00
  -17   13   21      0.96      0.00
   -7   13   21      2.07      0.00
   -6   13   21      0.82      0.00
  -16   14   21     -0.11      0.00
  -15   14   21     -0.14      0.00
   -9   14   21     -1.26      0.00
   -8   14   21      0.05      0.00
  -13   15   21     -0.65      0.00
  -12   15   21      1.94      0.00
   -2  -14   22      1.55      0.00
   -1  -14   22      0.01      0.00
    0  -14   22      2.63      0.00
    1  -14   22     -0.03      0.00
   -5  -13   22      3.17      0.00
   -4  -13   22     -1.51      0.00
   -3  -13   22     -0.62      0.00
    2  -13   22     -0.33      0.00
    3  -13   22      1.05      0.00
   -7  -12   22     -2.31      0.00
   -6  -12   22     -0.98      0.00
    4  -12   22     -0.95      0.00
   -8  -11   22      0.96      0.00
    5  -11   22     -0.30      0.00
   -9  -10   22     -0.30      0.00
    5  -10   22      0.37      0.00
    6   -9   22     -2.70      0.00
  -12   -8   22      0.46      0.00
    6   -8   22     -0.69      0.00
    6   -7   22     -1.51      0.00
  -13   -6   22     -0.50      0.00
    6   -6   22      1.55      0.00
  -14   -5   22     -0.46      0.00
    6   -5   22      1.04      0.00
  -15   -4   22     -1.99      0.00
    6   -4   22      0.43      0.00
  -15   -3   22      2.29      0.00
    5   -3   22     -0.08      0.00
  -16   -2   22     -0.41      0.00
    5   -2   22      0.90      0.00
  -16   -1   22      2.13      0.00
    5   -1   22      0.04      0.00
  -17    0   22      3.29      0.00
    4    0   22     -1.72      0.00
  -17    1   22     -0.82      0.00
    4    1   22     -0.45      0.00
  -18    2   22      0.13      0.00
    3    2   22     -0.67      0.00
  -18    3   22      0.19      0.00
    3    3   22      0.13      0.00
    2    4   22     -0.56      0.00
    1    5   22     -1.25      0.00
   -1    6   22      0.47      0.00
    0    6   22      0.48      0.00
    1    6   22      0.43      0.00
  -19    7   22     -0.27      0.00
    0    7   22      0.74      0.00
   -2    8   22      0.30      0.00
   -1    8   22     -0.41      0.00
   -3    9   22     -0.01      0.00
   -2    9   22     -0.23      0.00
  -18   10   22      3.67      0.00
   -4   10   22     -0.29      0.00
   -3   10   22     -1.28      0.00
  -18   11   22      0.15      0.00
   -5   11   22     -0.33      0.00
  -17   12   22     -0.03      0.00
   -7   12   22     -0.43      0.00
   -6   12   22     -1.41      0.00
  -16   13   22     -0.97      0.00
  -15   13   22     -0.75      0.00
  -10   13   22     -1.28      0.00
   -9   13   22     -0.18      0.00
   -8   13   22     -0.46      0.00
  -13   14   22     -0.75      0.00
  -12   14   22      4.00      0.00
   -1  -13   23      0.15      0.00
   -5  -12   23     -0.42      0.00
   -4  -12   23     -1.49      0.00
   -3  -12   23     -1.11      0.00
    0  -12   23      3.27      0.00
    1  -12   23      1.29      0.00
    2  -12   23      1.62      0.00
   -7  -11   23     -0.01      0.00
   -6  -11   23     -0.89      0.00
    2  -11   23      0.37      0.00
    3  -11   23     -1.17      0.00
   -8  -10   23     -0.31      0.00
    3  -10   23     -0.16      0.00
    4  -10   23     -0.09      0.00
  -10   -9   23     -0.33      0.00
    4   -9   23     -1.32      0.00
  -11   -8   23     -0.14      0.00
    4   -8   23      2.31      0.00
  -12   -7   23     -0.99      0.00
    4   -7   23     -1.17      0.00
    5   -7   23      3.35      0.00
  -13   -6   23     -1.04      0.00
  -12   -6   23     -0.10      0.00
    4   -6   23     -1.14      0.00
    5   -6   23     -1.22      0.00
  -13   -5   23     -1.42      0.00
    4   -5   23      1.45      0.00
  -14   -4   23      3.50      0.00
    4   -4   23     -0.32      0.00
  -15   -3   23     -0.40      0.00
    4   -3   23      0.39      0.00
  -15   -2   23     -0.96      0.00
    4   -2   23      1.02      0.00
  -16   -1   23      0.49      0.00
    3   -1   23      0.32      0.00
  -16    0   23      3.57      0.00
    3    0   23      0.07      0.00
  -17    1   23      1.46      0.00
    3    1   23      1.34      0.00
  -17    2   23     -0.62      0.00
    2    2   23     -1.22      0.00
  -17    3   23      1.52      0.00
    1    3   23      1.30      0.00
  -18    4   23      1.50      0.00
  -17    4   23     -2.33      0.00
    1    4   23     -0.69      0.00
  -18    5   23     -0.89      0.00
    0    5   23     -0.30      0.00
  -18    6   23     -0.36      0.00
   -2    6   23      0.74      0.00
   -1    6   23      1.01      0.00
  -18    7   23      0.06      0.00
   -2    7   23     -2.06      0.00
  -18    8   23     -1.41      0.00
   -3    8   23      2.16      0.00
  -17    9   23     -2.07      0.00
   -5    9   23     -1.02      0.00
   -4    9   23     -0.20      0.00
  -17   10   23      0.94      0.00
   -6   10   23     -0.56      0.00
   -5   10   23     -0.36      0.00
  -16   11   23      1.97      0.00
   -7   11   23      1.40      0.00
  -15   12   23      0.64      0.00
  -14   12   23      1.68      0.00
  -13   12   23     -1.41      0.00
  -12   12   23     -0.25      0.00
  -11   12   23      1.74      0.00
  -10   12   23     -1.58      0.00
   -9   12   23     -1.08      0.00
   -5  -11   24     -0.06      0.00
   -4  -11   24      1.26      0.00
   -3  -11   24     -0.35      0.00
   -2  -11   24     -1.90      0.00
   -1  -11   24     -2.39      0.00
    0  -11   24      3.18      0.00
   -7  -10   24     -0.69      0.00
   -6  -10   24     -1.39      0.00
    0  -10   24     -1.58      0.00
    1  -10   24      1.09      0.00
    2  -10   24      1.62      0.00
   -8   -9   24     -0.29      0.00
    2   -9   24      0.80      0.00
  -10   -8   24      3.99      0.00
   -9   -8   24      1.51      0.00
    2   -8   24     -0.21      0.00
    3   -8   24     -0.47      0.00
  -11   -7   24      1.46      0.00
    3   -7   24      1.00      0.00
  -12   -6   24     -1.12      0.00
    3   -6   24     -3.56      0.00
  -12   -5   24      2.45      0.00
    3   -5   24      1.94      0.00
  -13   -4   24     -0.97      0.00
    3   -4   24     -2.42      0.00
  -14   -3   24      0.13      0.00
  -12   -3   24     -1.38      0.00
    2   -3   24     -0.08      0.00
    3   -3   24      0.22      0.00
  -14   -2   24      0.98      0.00
    2   -2   24     -0.92      0.00
  -15   -1   24     -0.02      0.00
    2   -1   24      1.76      0.00
  -16    0   24     -2.57      0.00
  -15    0   24     -1.31      0.00
    2    0   24      0.93      0.00
  -16    1   24     -0.87      0.00
    1    1   24      0.92      0.00
  -16    2   24     -0.18      0.00
    0    2   24      1.43      0.00
    1    2   24     -0.49      0.00
  -16    3   24      0.33      0.00
    0    3   24     -0.06      0.00
  -17    4   24      0.24      0.00
  -16    4   24      1.51      0.00
   -1    4   24      1.63      0.00
  -17    5   24      2.15      0.00
  -16    5   24      2.58      0.00
   -2    5   24      0.17      0.00
   -1    5   24     -0.14      0.00
  -17    6   24     -1.71      0.00
   -3    6   24      2.28      0.00
   -2    6   24      0.58      0.00
  -17    7   24      1.20      0.00
   -4    7   24      0.01      0.00
   -3    7   24      0.39      0.00
  -16    8   24     -0.22      0.00
   -5    8   24     -0.02      0.00
   -4    8   24      0.50      0.00
  -16    9   24      0.17      0.00
   -7    9   24      0.10      0.00
   -6    9   24      1.41      0.00
  -15   10   24     -1.34      0.00
  -14   10   24     -0.07      0.00
   -8   10   24     -0.27      0.00
   -7   10   24      2.23      0.00
  -14   11   24      1.80      0.00
  -13   11   24      0.46      0.00
  -12   11   24      0.18      0.00
  -11   11   24     -2.84      0.00
  -10   11   24     -2.01      0.00
   -3  -10   25      1.42      0.00
   -6   -9   25     -0.13      0.00
   -5   -9   25     -1.62      0.00
   -4   -9   25     -0.63      0.00
   -3   -9   25     -1.47      0.00
   -2   -9   25      1.68      0.00
   -1   -9   25     -2.55      0.00
    0   -9   25      1.17      0.00
   -8   -8   25     -1.32      0.00
   -7   -8   25      0.34      0.00
   -1   -8   25     -0.68      0.00
    0   -8   25      0.60      0.00
    1   -8   25     -0.17      0.00
   -9   -7   25      0.58      0.00
    0   -7   25      2.20      0.00
    1   -7   25      1.97      0.00
  -10   -6   25     -3.52      0.00
    1   -6   25     -2.53      0.00
  -11   -5   25     -1.78      0.00
    1   -5   25      0.32      0.00
  -12   -4   25      0.11      0.00
  -11   -4   25      1.80      0.00
    1   -4   25      0.39      0.00
  -13   -3   25     -1.60      0.00
  -12   -3   25     -0.10      0.00
    1   -3   25      0.63      0.00
  -13   -2   25      0.40      0.00
    0   -2   25     -1.22      0.00
    1   -2   25     -2.07      0.00
  -14   -1   25      3.30      0.00
  -13   -1   25      0.48      0.00
    0   -1   25     -2.25      0.00
  -15    0   25      0.00      0.00
  -14    0   25      0.54      0.00
  -12    0   25      2.03      0.00
    0    0   25      0.49      0.00
  -15    1   25      0.13      0.00
  -14    1   25      1.72      0.00
   -1    1   25     -1.43      0.00
    0    1   25      0.93      0.00
  -15    2   25     -1.30      0.00
   -1    2   25      0.24      0.00
  -15    3   25      2.62      0.00
   -2    3   25     -1.49      0.00
  -16    4   25      2.75      0.00
  -15    4   25      1.92      0.00
   -7    4   25     -2.53      0.00
   -3    4   25     -0.66      0.00
   -2    4   25      0.03      0.00
  -16    5   25      1.71      0.00
  -15    5   25     -0.06      0.00
   -4    5   25     -1.04      0.00
   -3    5   25      0.64      0.00
  -16    6   25      1.98      0.00
  -15    6   25     -0.17      0.00
  -14    6   25      0.23      0.00
   -6    6   25     -0.01      0.00
   -5    6   25      0.17      0.00
   -4    6   25     -0.17      0.00
  -15    7   25      0.83      0.00
  -14    7   25     -0.13      0.00
   -7    7   25      3.35      0.00
   -6    7   25      1.94      0.00
   -5    7   25     -1.33      0.00
  -15    8   25      0.63      0.00
  -14    8   25     -1.25      0.00
  -11    8   25     -1.04      0.00
  -10    8   25      0.72      0.00
   -9    8   25      0.36      0.00
   -8    8   25     -1.73      0.00
   -7    8   25      1.16      0.00
  -14    9   25     -3.05      0.00
  -13    9   25     -0.65      0.00
  -12    9   25     -0.42      0.00
  -11    9   25      1.00      0.00
  -10    9   25      2.12      0.00
   -9    9   25     -0.49      0.00
   -7   -7   26      1.55      0.00
   -6   -7   26      1.67      0.00
   -5   -7   26      1.04      0.00
   -4   -7   26      0.60      0.00
   -3   -7   26      3.29      0.00
   -2   -7   26      0.79      0.00
   -8   -6   26     -0.86      0.00
   -7   -6   26     -0.95      0.00
   -6   -6   26     -0.65      0.00
   -4   -6   26      1.64      0.00
   -3   -6   26      1.73      0.00
   -2   -6   26      0.16      0.00
   -1   -6   26     -0.49      0.00
  -10   -5   26     -1.16      0.00
   -9   -5   26      0.01      0.00
   -2   -5   26     -0.50      0.00
   -1   -5   26      2.64      0.00
  -11   -4   26     -1.32      0.00
  -10   -4   26     -0.97      0.00
   -2   -4   26     -0.69      0.00
   -1   -4   26     -0.84      0.00
  -11   -3   26     -0.07      0.00
  -10   -3   26      0.08      0.00
   -2   -3   26     -1.48      0.00
   -1   -3   26     -0.22      0.00
  -12   -2   26      0.29      0.00
  -11   -2   26     -0.39      0.00
   -2   -2   26     -1.52      0.00
   -1   -2   26      0.24      0.00
  -13   -1   26     -1.27      0.00
  -12   -1   26     -0.06      0.00
  -11   -1   26     -0.32      0.00
   -2   -1   26      0.92      0.00
   -1   -1   26     -0.96      0.00
  -13    0   26      1.38      0.00
  -12    0   26     -0.80      0.00
   -3    0   26     -1.10      0.00
   -2    0   26     -2.19      0.00
  -14    1   26      1.60      0.00
  -13    1   26     -2.49      0.00
  -12    1   26     -0.31      0.00
   -3    1   26      1.22      0.00
   -2    1   26      0.24      0.00
  -14    2   26     -3.29      0.00
  -13    2   26      2.48      0.00
  -12    2   26     -0.14      0.00
   -4    2   26      0.27      0.00
   -3    2   26     -0.36      0.00
  -14    3   26      0.47      0.00
  -13    3   26      0.84      0.00
  -12    3   26     -0.96      0.00
   -5    3   26     -0.45      0.00
   -4    3   26      0.14      0.00
  -14    4   26     -3.28      0.00
  -13    4   26     -1.47      0.00
  -12    4   26      2.06      0.00
  -10    4   26      0.67      0.00
   -6    4   26      1.73      0.00
   -5    4   26      1.39      0.00
   -4    4   26     -0.77      0.00
  -14    5   26      0.06      0.00
  -13    5   26      1.66      0.00
  -12    5   26     -0.19      0.00
  -11    5   26      0.58      0.00
  -10    5   26      0.70      0.00
   -9    5   26      0.30      0.00
   -8    5   26      0.09      0.00
   -7    5   26      1.55      0.00
   -6    5   26      1.02      0.00
   -5    5   26     -0.98      0.00
  -14    6   26      0.81      0.00
  -13    6   26     -1.48      0.00
  -12    6   26     -1.43      0.00
  -11    6   26      0.33      0.00
  -10    6   26      3.39      0.00
   -9    6   26     -0.67      0.00
   -8    6   26      1.88      0.00
   -7    6   26      0.19      0.00
  -13    7   26      3.63      0.00
  -12    7   26     -1.54      0.00
  -11    7   26     -1.80      0.00
  -10    7   26     -1.61      0.00
   -9    7   26      3.37      0.00
   -8    7   26      1.39      0.00
    0    0    0      0.00      0.00
# SQUEEZE RESULTS
# Note: Data are Listed for all Voids in the P1 Unit Cell
# i.e. Centre of Gravity, Solvent Accessible Volume,
# Recovered number of Electrons in the Void and
# Details about the Squeezed Material
loop_
  _platon_squeeze_void_nr
  _platon_squeeze_void_average_x
  _platon_squeeze_void_average_y
  _platon_squeeze_void_average_z
  _platon_squeeze_void_volume
  _platon_squeeze_void_count_electrons
  _platon_squeeze_void_content
   1  0.500  0.506  0.494      1269       463 ' '
   2  0.155  0.774  0.568         8         1 ' '
   3  0.845  0.226  0.432         8         2 ' '
_platon_squeeze_details
(replace by semicolon in column 1 when used as .sqf)
TITL T         P -1         R = 0.20
CELL   16.3770   17.0240   20.1230     90.24    110.66    117.10
SPGR P-1
# Solvent Accessible Volume =    1293.3
# Electrons Found in S.A.V. =     461.4
# Note: Atoms in Void as Cxxx and Qxxx all others
C101 0.683 0.062 0.235 !      14.34 eA-3
C102 0.519 0.027 0.884 !      12.47 eA-3
C103 0.485 0.099 0.745 !      10.97 eA-3
C104 0.800 0.309 0.743 !       8.01 eA-3
C105 0.782 0.345 0.719 !       7.34 eA-3
C106 0.441 0.046 0.812 !       7.17 eA-3
C107 0.949 0.491 0.715 !       6.32 eA-3
C108 0.173 0.423 0.307 !       5.80 eA-3
C109 0.354 0.575 0.373 !       5.73 eA-3
C110 0.290 0.156 0.333 !       5.61 eA-3
C111 0.047 0.548 0.276 !       5.56 eA-3
C112 0.909 0.910 0.676 !       5.55 eA-3
C113 0.170 0.584 0.325 !       5.52 eA-3
C114 0.748 0.414 0.608 !       5.25 eA-3
C115 0.219 0.531 0.379 !       4.98 eA-3
C116 0.126 0.045 0.204 !       4.86 eA-3
C117 0.580 0.589 0.520 !       4.79 eA-3
C118 0.658 0.406 0.640 !       4.74 eA-3
Q119 0.315 0.346 0.733 !       4.38 eA-3
C120 0.260 0.605 0.372 !       4.31 eA-3
C121 0.590 0.984 0.184 !       4.30 eA-3
C122 0.826 0.424 0.704 !       4.29 eA-3
Q123 0.106 0.507 0.374 !       4.08 eA-3
C124 0.178 0.638 0.333 !       3.95 eA-3
C125 0.439 0.454 0.342 !       3.94 eA-3
C126 0.700 0.815 0.680 !       3.93 eA-3
C127 0.414 0.417 0.330 !       3.91 eA-3
C128 0.331 0.371 0.325 !       3.86 eA-3
C129 0.511 0.505 0.455 !       3.71 eA-3
C130 0.139 0.549 0.298 !       3.67 eA-3
Q131 0.597 0.772 0.075 !       3.64 eA-3
C132 0.521 0.542 0.651 !       3.60 eA-3
C133 0.403 0.365 0.296 !       3.60 eA-3
C134 0.109 0.131 0.304 !       3.41 eA-3
C135 0.753 0.629 0.657 !       3.40 eA-3
Q136 0.277 0.543 0.521 !       3.36 eA-3
Q137 0.923 0.016 0.843 !       3.28 eA-3
C138 0.210 0.583 0.314 !       3.27 eA-3
C139 0.828 0.609 0.686 !       3.25 eA-3
C140 0.190 0.575 0.391 !       3.17 eA-3
C141 0.842 0.459 0.636 !       3.14 eA-3
C142 0.865 0.435 0.669 !       3.13 eA-3
Q143 0.849 0.909 0.204 !       3.11 eA-3
Q144 0.702 0.933 0.046 !       3.11 eA-3
C145 0.721 0.282 0.714 !       3.10 eA-3
C146 0.655 0.608 0.734 !       3.08 eA-3
C147 0.798 0.388 0.676 !       3.08 eA-3
C148 0.549 0.614 0.681 !       3.05 eA-3
C149 0.797 0.752 0.753 !       3.05 eA-3
C150 0.731 0.265 0.738 !       3.01 eA-3
C151 0.877 0.841 0.675 !       2.97 eA-3
Q152 0.500 0.435 0.296 !       2.96 eA-3
C153 0.768 0.808 0.725 !       2.93 eA-3
Q154 0.142 0.125 0.403 !       2.90 eA-3
C155 0.190 0.156 0.215 !       2.89 eA-3
C156 0.859 0.810 0.751 !       2.88 eA-3
C157 0.676 0.007 0.266 !       2.87 eA-3
Q158 0.021 0.536 0.719 !       2.86 eA-3
C159 0.236 0.360 0.258 !       2.81 eA-3
Q160 0.639 0.547 0.310 !       2.81 eA-3
Q161 0.858 0.669 0.436 !       2.79 eA-3
Q162 0.940 0.965 0.263 !       2.78 eA-3
C163 0.517 0.533 0.542 !       2.73 eA-3
C164 0.328 0.811 0.200 !       2.72 eA-3
C165 0.672 0.355 0.670 !       2.71 eA-3
Q166 0.153 0.797 0.192 !       2.70 eA-3
Q167 0.050 0.108 0.810 !       2.68 eA-3
C168 0.628 0.674 0.689 !       2.68 eA-3
C169 0.528 0.525 0.690 !       2.65 eA-3
C170 0.856 0.391 0.713 !       2.64 eA-3
C171 0.895 0.986 0.779 !       2.59 eA-3
C172 0.531 0.921 0.183 !       2.57 eA-3
Q173 0.636 0.047 0.870 !       2.55 eA-3
Q174 0.770 0.569 0.437 !       2.55 eA-3
Q175 0.139 0.771 0.144 !       2.52 eA-3
C176 0.718 0.100 0.195 !       2.52 eA-3
Q177 0.079 1.001 0.129 !       2.52 eA-3
Q178 1.004 0.094 0.541 !       2.51 eA-3
C179 0.813 0.735 0.728 !       2.48 eA-3
Q180 0.975 0.984 0.229 !       2.47 eA-3
C181 0.765 0.784 0.656 !       2.45 eA-3
C182 0.066 0.043 0.240 !       2.43 eA-3
C183 0.609 0.641 0.655 !       2.41 eA-3
Q184 0.763 0.997 0.037 !       2.40 eA-3
C185 0.701 0.666 0.693 !       2.38 eA-3
Q186 0.641 0.625 0.817 !       2.37 eA-3
C187 0.682 0.599 0.604 !       2.37 eA-3
Q188 0.863 0.391 0.762 !       2.34 eA-3
Q189 0.733 0.188 0.719 !       2.34 eA-3
Q190 0.785 0.843 0.215 !       2.34 eA-3
C191 0.879 0.528 0.718 !       2.32 eA-3
C192 0.845 0.982 0.824 !       2.30 eA-3
Q193 0.512 0.477 0.245 !       2.30 eA-3
C194 0.247 0.609 0.265 !       2.28 eA-3
C195 0.175 0.605 0.421 !       2.27 eA-3
Q196 0.108 0.452 0.764 !       2.25 eA-3
C197 0.247 0.118 0.358 !       2.23 eA-3
C198 0.893 0.887 0.842 !       2.23 eA-3
C199 0.473 0.954 0.189 !       2.23 eA-3
(replace by semicolon in column 1 when used as .sqf)
;
_shelx_fab_checksum              98268
_publcif_funding_html
;
;
loop_
_space_group_symop_operation_xyz
'x, y, z'
'-x, -y, -z'
loop_
_atom_site_label
_atom_site_type_symbol
_atom_site_fract_x
_atom_site_fract_y
_atom_site_fract_z
_atom_site_U_iso_or_equiv
_atom_site_adp_type
_atom_site_occupancy
_atom_site_site_symmetry_order
_atom_site_calc_flag
_atom_site_refinement_flags_posn
_atom_site_refinement_flags_adp
_atom_site_refinement_flags_occupancy
_atom_site_disorder_assembly
_atom_site_disorder_group
Cd1 Cd 0.17958(6) 0.38237(6) 0.55602(6) 0.0336(2) Uani 1 1 d . . . . .
Cd2 Cd 0.27571(7) 0.29291(7) 0.73828(6) 0.0334(2) Uani 1 1 d . . . . .
Cd3 Cd 0.36133(7) 0.20051(7) 0.91942(6) 0.0442(3) Uani 1 1 d . . . . .
O1 O 0.0823(6) 0.3392(7) 0.6165(6) 0.0488(16) Uani 1 1 d . . . . .
O2 O 0.1121(6) 0.2479(7) 0.6901(6) 0.0488(16) Uani 1 1 d . . . . .
O3 O -0.8017(8) 0.2668(7) 0.5098(5) 0.051(3) Uani 1 1 d . . . . .
O4 O -0.7120(6) 0.3296(6) 0.6260(5) 0.034(2) Uani 1 1 d . . . . .
O5 O -0.6978(7) -0.4874(6) 0.5425(6) 0.0477(15) Uani 1 1 d . . . . .
O6 O -0.7901(7) -0.4727(6) 0.5914(6) 0.0477(15) Uani 1 1 d . . . . .
O7 O 0.4362(7) 0.3234(8) 0.7875(6) 0.061(3) Uani 1 1 d . . . . .
O8 O 0.4557(8) 0.2268(7) 0.8561(6) 0.052(3) Uani 1 1 d . . . . .
O9 O 1.3363(10) 1.0586(8) 0.9288(10) 0.090(5) Uani 1 1 d . . . . .
O10 O 1.2003(13) 1.0441(9) 0.8433(11) 0.111(6) Uani 1 1 d . . . . .
O11 O 1.2687(7) 0.2673(7) 0.8508(5) 0.045(2) Uani 1 1 d . . . . .
O12 O 1.3812(12) 0.3497(12) 0.9588(7) 0.108(6) Uani 1 1 d . . . . .
N1 N 0.0558(7) 0.3595(7) 0.4469(7) 0.041(3) Uani 1 1 d . . . . .
N2 N -0.4881(8) 0.2557(8) 0.0242(7) 0.045(3) Uani 1 1 d . . . . .
C1 C 0.0065(11) 0.4038(11) 0.4357(9) 0.055(4) Uani 1 1 d . . . . .
H1A H 0.023931 0.446572 0.474288 0.066 Uiso 1 1 calc R U . . .
C2 C -0.0685(10) 0.3925(12) 0.3721(10) 0.058(4) Uani 1 1 d . . . . .
H2A H -0.097700 0.429131 0.366554 0.070 Uiso 1 1 calc R U . . .
C3 C -0.0997(12) 0.3246(12) 0.3161(9) 0.060(4) Uani 1 1 d . . . . .
C4 C -0.0518(14) 0.2749(15) 0.3256(10) 0.075(6) Uani 1 1 d . . . . .
H4A H -0.069442 0.230595 0.288081 0.090 Uiso 1 1 calc R U . . .
C5 C 0.0213(14) 0.2914(13) 0.3905(9) 0.067(5) Uani 1 1 d . . . . .
H5A H 0.050472 0.254605 0.397639 0.081 Uiso 1 1 calc R U . . .
C6 C -0.1860(13) 0.2987(15) 0.2447(10) 0.071(5) Uani 1 1 d . . . . .
H6A H -0.208898 0.245386 0.214101 0.085 Uiso 1 1 calc R U . . .
C7 C -0.2302(11) 0.3451(12) 0.2230(10) 0.063(5) Uani 1 1 d . . . . .
H7A H -0.206861 0.400151 0.251365 0.076 Uiso 1 1 calc R U . . .
C8 C -0.3213(11) 0.3107(14) 0.1508(11) 0.071(5) Uani 1 1 d . . . . .
C9 C -0.3476(14) 0.3695(14) 0.1185(12) 0.084(7) Uani 1 1 d . . . . .
H9A H -0.309310 0.430481 0.139415 0.101 Uiso 1 1 calc R U . . .
C10 C -0.4316(13) 0.3395(13) 0.0541(11) 0.079(6) Uani 1 1 d . . . . .
H10A H -0.447463 0.381347 0.031926 0.095 Uiso 1 1 calc R U . . .
C11 C -0.4680(15) 0.1933(17) 0.0527(10) 0.085(7) Uani 1 1 d . . . . .
H11A H -0.509223 0.132556 0.031535 0.102 Uiso 1 1 calc R U . . .
C12 C -0.3789(14) 0.2245(14) 0.1180(11) 0.072(5) Uani 1 1 d . . . . .
H12A H -0.360967 0.182663 0.138108 0.086 Uiso 1 1 calc R U . . .
C30 C 0.0562(10) 0.2753(10) 0.6493(9) 0.0488(16) Uani 1 1 d . . . . .
C31 C -0.0512(8) 0.2256(8) 0.6382(8) 0.035(3) Uani 1 1 d . . . . .
C32 C -0.1161(9) 0.2535(9) 0.5955(8) 0.043(4) Uani 1 1 d . . . . .
H32A H -0.093374 0.302974 0.574039 0.052 Uiso 1 1 calc R U . . .
C33 C -0.2155(9) 0.2062(10) 0.5855(10) 0.052(4) Uani 1 1 d . . . . .
H33A H -0.259398 0.223722 0.555218 0.062 Uiso 1 1 calc R U . . .
C34 C -0.2534(9) 0.1338(9) 0.6184(9) 0.046(4) Uani 1 1 d . . . . .
C35 C -0.1857(9) 0.1095(10) 0.6618(9) 0.047(4) Uani 1 1 d . . . . .
H35A H -0.206840 0.062437 0.685789 0.057 Uiso 1 1 calc R U . . .
C36 C -0.0877(10) 0.1537(10) 0.6700(9) 0.051(4) Uani 1 1 d . . . . .
H36A H -0.044513 0.134206 0.698239 0.061 Uiso 1 1 calc R U . . .
C37 C -0.7332(9) 0.2770(8) 0.5698(8) 0.036(3) Uani 1 1 d . . . . .
C38 C -0.6782(9) 0.2274(8) 0.5729(8) 0.035(3) Uani 1 1 d . . . . .
C39 C -0.7191(9) 0.1483(8) 0.5252(8) 0.037(3) Uani 1 1 d . . . . .
H39A H -0.783155 0.125389 0.489297 0.044 Uiso 1 1 calc R U . . .
C40 C -0.6665(9) 0.1019(8) 0.5297(8) 0.041(3) Uani 1 1 d . . . . .
H40A H -0.695941 0.047801 0.497805 0.049 Uiso 1 1 calc R U . . .
C41 C -0.5690(9) 0.1372(8) 0.5826(8) 0.038(3) Uani 1 1 d . . . . .
C42 C -0.5284(9) 0.2164(8) 0.6315(9) 0.042(4) Uani 1 1 d . . . . .
H42A H -0.464375 0.239198 0.667401 0.051 Uiso 1 1 calc R U . . .
C43 C -0.5811(10) 0.2624(9) 0.6279(8) 0.041(3) Uani 1 1 d . . . . .
H43A H -0.553038 0.315169 0.661090 0.049 Uiso 1 1 calc R U . . .
C44 C -0.7192(10) -0.4366(9) 0.5699(9) 0.0477(15) Uani 1 1 d . . . . .
C45 C -0.6626(9) -0.3379(8) 0.5766(8) 0.035(3) Uani 1 1 d . . . . .
C46 C -0.5874(11) -0.3002(9) 0.5526(9) 0.047(4) Uani 1 1 d . . . . .
H46A H -0.569657 -0.336781 0.533241 0.056 Uiso 1 1 calc R U . . .
C47 C -0.5373(9) -0.2083(8) 0.5569(8) 0.042(3) Uani 1 1 d . . . . .
H47A H -0.486286 -0.183619 0.540248 0.050 Uiso 1 1 calc R U . . .
C48 C -0.5622(9) -0.1521(8) 0.5859(8) 0.036(3) Uani 1 1 d . . . . .
C49 C -0.6373(10) -0.1909(8) 0.6112(9) 0.046(4) Uani 1 1 d . . . . .
H49A H -0.653971 -0.154622 0.632047 0.055 Uiso 1 1 calc R U . . .
C50 C -0.6863(10) -0.2803(8) 0.6059(9) 0.0477(15) Uani 1 1 d . . . . .
H50A H -0.737655 -0.304924 0.622147 0.057 Uiso 1 1 calc R U . . .
C51 C -0.3601(9) 0.0848(8) 0.6074(8) 0.0374(18) Uani 1 1 d . . . . .
C52 C -0.4136(9) 0.1311(8) 0.6015(8) 0.0374(18) Uani 1 1 d . . . . .
H52A H -0.380668 0.193367 0.606143 0.045 Uiso 1 1 calc R U . . .
C53 C -0.5151(9) 0.0863(8) 0.5887(8) 0.0374(18) Uani 1 1 d . . . . .
C54 C -0.5611(9) -0.0049(8) 0.5818(8) 0.039(3) Uani 1 1 d . . . . .
H54A H -0.629083 -0.036036 0.571936 0.047 Uiso 1 1 calc R U . . .
C55 C -0.5100(9) -0.0535(8) 0.5888(9) 0.041(3) Uani 1 1 d . . . . .
C56 C -0.4093(10) -0.0058(8) 0.6023(8) 0.040(3) Uani 1 1 d . . . . .
H56A H -0.373870 -0.036995 0.608130 0.049 Uiso 1 1 calc R U . . .
C57 C 0.4861(11) 0.2936(11) 0.8289(8) 0.048(4) Uani 1 1 d . . . . .
C58 C 0.5971(10) 0.3427(10) 0.8438(8) 0.041(3) Uani 1 1 d . . . . .
C59 C 0.6618(12) 0.3109(13) 0.8834(9) 0.059(4) Uani 1 1 d . . . . .
H59A H 0.636941 0.257667 0.900245 0.070 Uiso 1 1 calc R U . . .
C60 C 0.7623(11) 0.3591(10) 0.8971(9) 0.050(4) Uani 1 1 d . . . . .
H60A H 0.804182 0.336238 0.921127 0.060 Uiso 1 1 calc R U . . .
C61 C 0.8020(10) 0.4406(9) 0.8757(9) 0.045(4) Uani 1 1 d . . . . .
C62 C 0.7390(10) 0.4720(11) 0.8388(9) 0.049(4) Uani 1 1 d . . . . .
H62A H 0.765086 0.527057 0.824654 0.059 Uiso 1 1 calc R U . . .
C63 C 0.6366(11) 0.4236(12) 0.8220(9) 0.056(4) Uani 1 1 d . . . . .
H63A H 0.594995 0.445792 0.796034 0.068 Uiso 1 1 calc R U . . .
C64 C 1.249(2) 1.0137(16) 0.8876(15) 0.092(7) Uani 1 1 d . . . . .
C65 C 1.2007(14) 0.9164(11) 0.8943(11) 0.066(5) Uani 1 1 d . . . . .
C66 C 1.0973(13) 0.8609(11) 0.8545(10) 0.060(4) Uani 1 1 d . . . . .
H66A H 1.059407 0.884032 0.824641 0.072 Uiso 1 1 calc R U . . .
C67 C 1.0527(12) 0.7714(10) 0.8603(10) 0.057(4) Uani 1 1 d . . . . .
H67A H 0.984282 0.735447 0.833646 0.069 Uiso 1 1 calc R U . . .
C68 C 1.1059(12) 0.7322(11) 0.9045(9) 0.053(4) Uani 1 1 d . . . . .
C69 C 1.2078(13) 0.7895(11) 0.9442(10) 0.064(5) Uani 1 1 d . . . . .
H69A H 1.246469 0.767768 0.975210 0.077 Uiso 1 1 calc R U . . .
C70 C 1.2509(13) 0.8776(10) 0.9377(10) 0.063(5) Uani 1 1 d . . . . .
H70A H 1.319133 0.913631 0.964743 0.076 Uiso 1 1 calc R U . . .
C71 C 1.3038(12) 0.3294(12) 0.9073(9) 0.054(4) Uani 1 1 d . . . . .
C72 C 1.2418(12) 0.3723(11) 0.9059(8) 0.051(4) Uani 1 1 d . . . . .
C73 C 1.2796(13) 0.4421(13) 0.9629(10) 0.069(5) Uani 1 1 d . . . . .
H73A H 1.342568 0.462915 0.999809 0.082 Uiso 1 1 calc R U . . .
C74 C 1.2199(13) 0.4798(12) 0.9626(10) 0.063(5) Uani 1 1 d . . . . .
H74A H 1.244056 0.525643 1.001212 0.075 Uiso 1 1 calc R U . . .
C75 C 1.1281(13) 0.4535(13) 0.9092(9) 0.059(4) Uani 1 1 d . . . . .
C76 C 1.0913(12) 0.3828(12) 0.8532(9) 0.056(4) Uani 1 1 d . . . . .
H76A H 1.027842 0.361522 0.816833 0.067 Uiso 1 1 calc R U . . .
C77 C 1.1493(11) 0.3435(10) 0.8514(9) 0.050(4) Uani 1 1 d . . . . .
H77A H 1.124940 0.297461 0.812973 0.060 Uiso 1 1 calc R U . . .
C78 C 0.9091(10) 0.4911(9) 0.8895(9) 0.048(4) Uani 1 1 d . . . . .
C79 C 0.9575(10) 0.5835(10) 0.8965(9) 0.046(4) Uani 1 1 d . . . . .
H79A H 0.921405 0.613126 0.895327 0.056 Uiso 1 1 calc R U . . .
C80 C 1.0581(11) 0.6361(10) 0.9052(9) 0.050(4) Uani 1 1 d . . . . .
C81 C 1.1122(11) 0.5904(11) 0.9120(9) 0.055(4) Uani 1 1 d . . . . .
H81A H 1.179356 0.622393 0.919433 0.066 Uiso 1 1 calc R U . . .
C82 C 1.0666(11) 0.4970(11) 0.9077(9) 0.051(4) Uani 1 1 d . . . . .
C83 C 0.9665(11) 0.4484(11) 0.8960(9) 0.053(4) Uani 1 1 d . . . . .
H83A H 0.936773 0.386278 0.892292 0.063 Uiso 1 1 calc R U . . .
N3 N 0.3619(12) 0.4506(10) 0.7815(8) 0.067(4) Uani 1 1 d . U . . .
N4 N 0.755(2) 1.0867(15) 0.8662(14) 0.118(7) Uani 1 1 d . U . . .
C13 C 0.4499(13) 0.4895(12) 0.8408(11) 0.067(4) Uani 1 1 d . U . . .
H13A H 0.465537 0.452863 0.871172 0.081 Uiso 1 1 calc R U . . .
C14 C 0.5181(15) 0.5817(13) 0.8584(13) 0.082(5) Uani 1 1 d . U . . .
H14A H 0.577517 0.604780 0.899460 0.099 Uiso 1 1 calc R U . . .
C15 C 0.4978(17) 0.6388(13) 0.8152(11) 0.074(5) Uani 1 1 d . U . . .
C16 C 0.4100(19) 0.6003(15) 0.7540(11) 0.090(6) Uani 1 1 d . U . . .
H16A H 0.394988 0.635101 0.721304 0.108 Uiso 1 1 calc R U . . .
C17 C 0.3409(17) 0.5042(14) 0.7412(11) 0.081(5) Uani 1 1 d . U . . .
H17A H 0.278988 0.479862 0.702492 0.097 Uiso 1 1 calc R U . . .
C18 C 0.5656(19) 0.7360(15) 0.8385(13) 0.095(6) Uani 1 1 d . U . . .
H18A H 0.616516 0.754947 0.884483 0.114 Uiso 1 1 calc R U . . .
C19 C 0.564(2) 0.7986(16) 0.8034(15) 0.116(8) Uani 1 1 d . U . . .
H19A H 0.516769 0.777101 0.755745 0.139 Uiso 1 1 calc R U . . .
C20 C 0.616(2) 0.8892(16) 0.8220(15) 0.106(6) Uani 1 1 d . U . . .
C21 C 0.691(2) 0.9354(17) 0.8938(16) 0.108(6) Uani 1 1 d . U . . .
H21A H 0.695882 0.901911 0.929916 0.129 Uiso 1 1 calc R U . . .
C22 C 0.757(2) 1.0304(18) 0.9122(18) 0.121(8) Uani 1 1 d . U . . .
H22A H 0.803830 1.054817 0.959601 0.145 Uiso 1 1 calc R U . . .
C23 C 0.689(2) 1.0437(18) 0.8003(17) 0.121(8) Uani 1 1 d . U . . .
H23A H 0.682544 1.077940 0.764864 0.145 Uiso 1 1 calc R U . . .
C24 C 0.629(2) 0.9535(16) 0.7800(17) 0.123(8) Uani 1 1 d . U . . .
H24A H 0.591554 0.931987 0.730541 0.148 Uiso 1 1 calc R U . . .
O13 O 0.2487(14) 0.1747(15) 0.9766(14) 0.068(4) Uani 0.5 1 d D . P . .
N5 N 0.0905(15) 0.1420(18) 0.9583(14) 0.068(4) Uani 0.5 1 d D . P . .
C25 C 0.1599(16) 0.152(2) 0.9360(16) 0.068(4) Uani 0.5 1 d D . P . .
H25A H 0.142160 0.141024 0.886278 0.081 Uiso 0.5 1 calc R U P . .
C26 C 0.172(2) 0.2664(17) 1.069(2) 0.068(4) Uani 0.5 1 d D . P . .
H26A H 0.180322 0.271646 1.119152 0.101 Uiso 0.5 1 calc R U P . .
H26B H 0.236365 0.293246 1.066938 0.101 Uiso 0.5 1 calc R U P . .
H26C H 0.136412 0.296770 1.044951 0.101 Uiso 0.5 1 calc R U P . .
C27 C 0.113(2) 0.1676(17) 1.0330(16) 0.068(4) Uani 0.5 1 d D . P . .
H27A H 0.149180 0.138451 1.060398 0.081 Uiso 0.5 1 calc R U P . .
H27B H 0.049829 0.141955 1.038543 0.081 Uiso 0.5 1 calc R U P . .
C28 C -0.015(2) 0.2144(19) 0.953(2) 0.068(4) Uani 0.5 1 d D . P . .
H28A H -0.082343 0.202992 0.926753 0.101 Uiso 0.5 1 calc R U P . .
H28B H -0.000733 0.218976 1.003578 0.101 Uiso 0.5 1 calc R U P . .
H28C H 0.030672 0.269683 0.944515 0.101 Uiso 0.5 1 calc R U P . .
C29 C -0.0038(18) 0.1364(19) 0.926(2) 0.068(4) Uani 0.5 1 d D . P . .
H29A H -0.052436 0.081019 0.932995 0.081 Uiso 0.5 1 calc R U P . .
H29B H -0.021145 0.131542 0.874146 0.081 Uiso 0.5 1 calc R U P . .
O2W O 0.240(6) 0.148(5) 0.698(5) 0.124(17) Uani 0.4 1 d . U P . .
O14 O 0.228(3) 0.1454(17) 0.713(2) 0.082(9) Uani 0.6 1 d D U P . .
N6 N 0.124(3) 0.0011(19) 0.642(2) 0.175(14) Uani 0.6 1 d D U P . .
C84 C 0.204(3) 0.083(2) 0.665(3) 0.148(14) Uani 0.6 1 d D U P . .
H84A H 0.252805 0.065259 0.693150 0.178 Uiso 0.6 1 calc R U P . .
C85 C 0.076(5) -0.091(3) 0.515(2) 0.23(3) Uani 0.6 1 d D U P . .
H85A H 0.083499 -0.139238 0.498326 0.346 Uiso 0.6 1 calc R U P . .
H85B H 0.006036 -0.108851 0.497336 0.346 Uiso 0.6 1 calc R U P . .
H85C H 0.109117 -0.038824 0.496509 0.346 Uiso 0.6 1 calc R U P . .
C86 C 0.122(3) -0.0684(18) 0.598(2) 0.143(14) Uani 0.6 1 d D U P . .
H86A H 0.088983 -0.123908 0.613550 0.171 Uiso 0.6 1 calc R U P . .
H86B H 0.191085 -0.054545 0.612732 0.171 Uiso 0.6 1 calc R U P . .
C87 C 0.011(2) 0.051(3) 0.5519(16) 0.136(16) Uani 0.6 1 d D U P . .
H87A H -0.058152 0.035629 0.530297 0.204 Uiso 0.6 1 calc R U P . .
H87B H 0.050606 0.111852 0.578191 0.204 Uiso 0.6 1 calc R U P . .
H87C H 0.032500 0.044321 0.514576 0.204 Uiso 0.6 1 calc R U P . .
C88 C 0.023(3) -0.013(3) 0.604(3) 0.159(14) Uani 0.6 1 d D U P . .
H88B H -0.000983 -0.006829 0.640239 0.191 Uiso 0.6 1 calc R U P . .
H88A H -0.019031 -0.074146 0.576826 0.191 Uiso 0.6 1 calc R U P . .
loop_
_atom_site_aniso_label
_atom_site_aniso_U_11
_atom_site_aniso_U_22
_atom_site_aniso_U_33
_atom_site_aniso_U_23
_atom_site_aniso_U_13
_atom_site_aniso_U_12
Cd1 0.0250(4) 0.0235(5) 0.0521(6) 0.0101(4) 0.0158(4) 0.0113(4)
Cd2 0.0260(4) 0.0328(5) 0.0432(5) 0.0081(4) 0.0127(4) 0.0167(4)
Cd3 0.0340(5) 0.0497(6) 0.0537(7) 0.0055(5) 0.0126(5) 0.0278(5)
O1 0.023(3) 0.049(4) 0.080(5) 0.022(3) 0.031(3) 0.014(3)
O2 0.023(3) 0.049(4) 0.080(5) 0.022(3) 0.031(3) 0.014(3)
O3 0.057(6) 0.054(6) 0.050(6) 0.003(5) 0.007(5) 0.043(6)
O4 0.032(5) 0.031(5) 0.052(6) 0.013(4) 0.023(4) 0.021(4)
O5 0.038(3) 0.020(3) 0.089(5) 0.012(3) 0.039(3) 0.008(2)
O6 0.038(3) 0.020(3) 0.089(5) 0.012(3) 0.039(3) 0.008(2)
O7 0.027(5) 0.075(8) 0.065(7) 0.029(6) 0.014(5) 0.017(5)
O8 0.046(6) 0.038(6) 0.072(8) 0.012(5) 0.025(6) 0.019(5)
O9 0.055(8) 0.042(7) 0.170(16) 0.028(8) 0.053(10) 0.014(6)
O10 0.117(13) 0.060(9) 0.195(19) 0.065(11) 0.083(13) 0.058(9)
O11 0.049(6) 0.053(6) 0.048(6) 0.009(5) 0.016(5) 0.038(5)
O12 0.121(12) 0.163(15) 0.062(8) -0.022(9) -0.021(8) 0.128(12)
N1 0.013(5) 0.016(5) 0.066(8) -0.002(5) 0.004(5) -0.005(4)
N2 0.034(6) 0.045(7) 0.068(8) 0.018(6) 0.025(6) 0.024(6)
C1 0.036(8) 0.060(10) 0.063(10) -0.004(8) 0.014(7) 0.023(8)
C2 0.027(7) 0.065(11) 0.087(13) 0.014(9) 0.016(8) 0.031(8)
C3 0.040(8) 0.070(12) 0.058(11) 0.001(9) 0.010(8) 0.023(8)
C4 0.061(11) 0.102(16) 0.054(11) -0.009(10) 0.000(9) 0.049(12)
C5 0.080(13) 0.073(12) 0.057(11) 0.005(9) 0.014(9) 0.054(11)
C6 0.054(10) 0.097(15) 0.067(12) 0.014(11) 0.021(9) 0.043(11)
C7 0.037(8) 0.062(11) 0.079(13) 0.014(9) 0.018(8) 0.019(8)
C8 0.025(8) 0.083(14) 0.089(14) 0.017(11) 0.016(8) 0.021(9)
C9 0.048(10) 0.071(13) 0.097(16) 0.002(11) -0.006(10) 0.027(10)
C10 0.053(11) 0.061(12) 0.086(14) -0.002(10) -0.010(10) 0.026(10)
C11 0.084(14) 0.15(2) 0.053(11) 0.001(12) 0.005(10) 0.096(15)
C12 0.074(12) 0.076(13) 0.088(14) 0.031(11) 0.025(11) 0.058(12)
C30 0.023(3) 0.049(4) 0.080(5) 0.022(3) 0.031(3) 0.014(3)
C31 0.014(5) 0.022(6) 0.060(9) 0.002(6) 0.016(6) 0.001(5)
C32 0.026(6) 0.042(8) 0.069(10) 0.034(7) 0.031(7) 0.013(6)
C33 0.016(6) 0.038(8) 0.092(12) 0.013(8) 0.016(7) 0.009(6)
C34 0.021(6) 0.028(7) 0.088(12) 0.007(7) 0.023(7) 0.010(5)
C35 0.027(7) 0.041(8) 0.086(12) 0.037(8) 0.031(7) 0.020(6)
C36 0.032(7) 0.051(9) 0.071(11) 0.022(8) 0.019(7) 0.023(7)
C37 0.025(6) 0.031(7) 0.055(9) 0.006(6) 0.016(6) 0.017(5)
C38 0.025(6) 0.028(6) 0.055(8) 0.004(6) 0.012(6) 0.018(5)
C39 0.020(6) 0.029(7) 0.051(8) -0.002(6) 0.007(6) 0.010(5)
C40 0.026(6) 0.020(6) 0.065(9) -0.011(6) 0.011(6) 0.008(5)
C41 0.019(6) 0.025(6) 0.066(9) 0.002(6) 0.012(6) 0.011(5)
C42 0.024(6) 0.022(6) 0.078(11) 0.008(6) 0.013(7) 0.014(5)
C43 0.038(7) 0.043(8) 0.049(8) 0.003(6) 0.012(6) 0.030(7)
C44 0.038(3) 0.020(3) 0.089(5) 0.012(3) 0.039(3) 0.008(2)
C45 0.034(7) 0.017(6) 0.057(9) 0.011(6) 0.028(6) 0.007(5)
C46 0.046(8) 0.021(6) 0.084(11) 0.019(7) 0.039(8) 0.015(6)
C47 0.030(7) 0.017(6) 0.079(11) 0.016(6) 0.034(7) 0.003(5)
C48 0.027(6) 0.020(6) 0.066(9) 0.017(6) 0.026(6) 0.010(5)
C49 0.037(7) 0.016(6) 0.090(12) 0.002(7) 0.040(8) 0.007(5)
C50 0.038(3) 0.020(3) 0.089(5) 0.012(3) 0.039(3) 0.008(2)
C51 0.025(4) 0.014(3) 0.076(6) 0.010(3) 0.027(4) 0.007(3)
C52 0.025(4) 0.014(3) 0.076(6) 0.010(3) 0.027(4) 0.007(3)
C53 0.025(4) 0.014(3) 0.076(6) 0.010(3) 0.027(4) 0.007(3)
C54 0.017(6) 0.015(6) 0.082(10) 0.012(6) 0.025(6) 0.001(5)
C55 0.029(7) 0.013(6) 0.079(11) 0.005(6) 0.031(7) 0.004(5)
C56 0.045(8) 0.015(6) 0.080(11) 0.019(6) 0.038(8) 0.020(6)
C57 0.034(7) 0.057(10) 0.045(9) -0.013(7) 0.012(7) 0.019(7)
C58 0.042(8) 0.051(9) 0.044(8) 0.006(7) 0.024(7) 0.028(7)
C59 0.048(9) 0.078(12) 0.052(10) -0.005(8) 0.007(7) 0.043(9)
C60 0.051(9) 0.041(8) 0.073(11) 0.017(8) 0.032(8) 0.029(7)
C61 0.026(7) 0.034(7) 0.075(11) 0.001(7) 0.024(7) 0.012(6)
C62 0.036(8) 0.050(9) 0.064(10) 0.016(8) 0.025(7) 0.018(7)
C63 0.042(8) 0.074(12) 0.072(11) 0.019(9) 0.026(8) 0.041(9)
C64 0.104(19) 0.077(15) 0.12(2) 0.011(14) 0.049(16) 0.059(15)
C65 0.063(11) 0.045(9) 0.102(15) 0.016(9) 0.035(10) 0.034(9)
C66 0.065(11) 0.042(9) 0.084(13) 0.020(9) 0.033(10) 0.033(8)
C67 0.043(8) 0.041(9) 0.084(12) 0.009(8) 0.016(8) 0.024(7)
C68 0.052(9) 0.046(9) 0.074(11) 0.010(8) 0.026(8) 0.033(8)
C69 0.058(10) 0.046(9) 0.078(12) 0.000(8) 0.007(9) 0.032(8)
C70 0.057(10) 0.027(8) 0.086(13) -0.001(8) 0.012(9) 0.017(7)
C71 0.053(9) 0.081(12) 0.048(9) 0.015(9) 0.020(8) 0.048(9)
C72 0.064(10) 0.065(10) 0.043(9) 0.015(8) 0.022(8) 0.047(9)
C73 0.066(11) 0.088(13) 0.062(11) -0.009(9) 0.003(9) 0.063(11)
C74 0.063(11) 0.076(12) 0.073(12) 0.002(9) 0.025(9) 0.053(10)
C75 0.058(10) 0.088(13) 0.067(11) 0.025(10) 0.034(9) 0.058(10)
C76 0.044(8) 0.079(12) 0.052(9) -0.004(8) 0.008(7) 0.044(9)
C77 0.050(9) 0.054(9) 0.055(9) -0.004(7) 0.016(7) 0.037(8)
C78 0.033(7) 0.028(7) 0.080(11) 0.002(7) 0.026(7) 0.010(6)
C79 0.028(7) 0.046(8) 0.070(10) 0.002(7) 0.024(7) 0.019(6)
C80 0.044(8) 0.041(8) 0.076(11) 0.007(8) 0.023(8) 0.030(7)
C81 0.039(8) 0.063(10) 0.074(11) -0.002(8) 0.022(8) 0.034(8)
C82 0.035(8) 0.053(9) 0.071(11) -0.005(8) 0.020(7) 0.027(7)
C83 0.044(8) 0.050(9) 0.085(12) 0.017(8) 0.041(8) 0.028(7)
N3 0.082(9) 0.062(8) 0.072(9) 0.018(6) 0.030(7) 0.047(7)
N4 0.154(18) 0.085(12) 0.131(15) 0.027(9) 0.079(13) 0.053(12)
C13 0.060(9) 0.054(8) 0.086(11) 0.024(8) 0.026(7) 0.030(7)
C14 0.069(10) 0.064(8) 0.106(13) 0.027(9) 0.025(9) 0.033(7)
C15 0.095(11) 0.062(7) 0.078(11) 0.022(7) 0.043(8) 0.040(8)
C16 0.133(15) 0.072(9) 0.060(10) 0.016(8) 0.028(8) 0.055(10)
C17 0.102(12) 0.079(9) 0.064(11) 0.012(8) 0.020(9) 0.056(8)
C18 0.114(15) 0.071(8) 0.092(14) 0.029(9) 0.032(11) 0.045(9)
C19 0.146(18) 0.070(8) 0.100(14) 0.037(9) 0.045(13) 0.031(12)
C20 0.166(17) 0.073(8) 0.114(13) 0.029(8) 0.066(12) 0.078(11)
C21 0.136(18) 0.079(10) 0.124(12) 0.015(9) 0.068(12) 0.054(11)
C22 0.131(18) 0.086(11) 0.149(16) 0.031(10) 0.051(14) 0.059(12)
C23 0.17(2) 0.077(10) 0.128(14) 0.028(11) 0.085(14) 0.052(14)
C24 0.18(2) 0.064(9) 0.137(14) 0.031(9) 0.069(14) 0.067(12)
O13 0.057(7) 0.054(7) 0.129(11) 0.050(8) 0.062(8) 0.037(6)
N5 0.057(7) 0.054(7) 0.129(11) 0.050(8) 0.062(8) 0.037(6)
C25 0.057(7) 0.054(7) 0.129(11) 0.050(8) 0.062(8) 0.037(6)
C26 0.057(7) 0.054(7) 0.129(11) 0.050(8) 0.062(8) 0.037(6)
C27 0.057(7) 0.054(7) 0.129(11) 0.050(8) 0.062(8) 0.037(6)
C28 0.057(7) 0.054(7) 0.129(11) 0.050(8) 0.062(8) 0.037(6)
C29 0.057(7) 0.054(7) 0.129(11) 0.050(8) 0.062(8) 0.037(6)
O2W 0.09(2) 0.067(17) 0.16(3) -0.029(18) 0.072(18) -0.025(17)
O14 0.085(14) 0.011(7) 0.17(2) 0.012(9) 0.078(14) 0.017(9)
N6 0.14(2) 0.077(15) 0.17(2) -0.027(15) -0.008(19) 0.000(14)
C84 0.130(19) 0.084(16) 0.16(2) -0.039(16) 0.052(19) 0.000(16)
C85 0.22(5) 0.09(3) 0.20(3) -0.02(3) 0.11(3) -0.09(3)
C86 0.10(2) 0.024(13) 0.20(3) 0.011(14) -0.03(2) 0.014(15)
C87 0.041(17) 0.24(4) 0.029(16) -0.039(19) -0.004(13) 0.00(2)
C88 0.122(18) 0.12(3) 0.16(3) -0.04(2) 0.04(2) 0.014(19)
loop_
_atom_type_symbol
_atom_type_description
_atom_type_scat_dispersion_real
_atom_type_scat_dispersion_imag
_atom_type_scat_source
C C 0.0033 0.0016 'International Tables Vol C Tables 4.2.6.8 and 6.1.1.4'
H H 0.0000 0.0000 'International Tables Vol C Tables 4.2.6.8 and 6.1.1.4'
N N 0.0061 0.0033 'International Tables Vol C Tables 4.2.6.8 and 6.1.1.4'
O O 0.0106 0.0060 'International Tables Vol C Tables 4.2.6.8 and 6.1.1.4'
Cd Cd -0.8075 1.2024 'International Tables Vol C Tables 4.2.6.8 and 6.1.1.4'
loop_
_geom_angle_atom_site_label_1
_geom_angle_atom_site_label_2
_geom_angle_atom_site_label_3
_geom_angle
_geom_angle_site_symmetry_1
_geom_angle_site_symmetry_3
_geom_angle_publ_flag
O1 Cd1 N1 95.5(4) . . ?
O1 Cd1 O5 139.9(4) . 1_665 ?
N1 Cd1 O5 96.0(4) . 1_665 ?
O1 Cd1 O6 85.6(4) . 1_665 ?
N1 Cd1 O6 92.7(4) . 1_665 ?
O5 Cd1 O6 55.6(3) 1_665 1_665 ?
O1 Cd1 O3 114.4(4) . 1_655 ?
N1 Cd1 O3 90.3(4) . 1_655 ?
O5 Cd1 O3 103.9(4) 1_665 1_655 ?
O6 Cd1 O3 159.5(4) 1_665 1_655 ?
O1 Cd1 O4 95.2(3) . 1_655 ?
N1 Cd1 O4 145.7(4) . 1_655 ?
O5 Cd1 O4 96.5(3) 1_665 1_655 ?
O6 Cd1 O4 120.6(3) 1_665 1_655 ?
O3 Cd1 O4 55.7(3) 1_655 1_655 ?
O1 Cd1 C44 113.1(4) . 1_665 ?
N1 Cd1 C44 94.8(4) . 1_665 ?
O5 Cd1 C44 27.6(4) 1_665 1_665 ?
O6 Cd1 C44 28.0(4) 1_665 1_665 ?
O3 Cd1 C44 131.5(4) 1_655 1_665 ?
O4 Cd1 C44 110.6(4) 1_655 1_665 ?
O1 Cd1 C37 108.4(4) . 1_655 ?
N1 Cd1 C37 118.0(4) . 1_655 ?
O5 Cd1 C37 99.6(4) 1_665 1_655 ?
O6 Cd1 C37 143.8(4) 1_665 1_655 ?
O3 Cd1 C37 27.8(4) 1_655 1_655 ?
O4 Cd1 C37 28.0(4) 1_655 1_655 ?
C44 Cd1 C37 123.2(4) 1_665 1_655 ?
O2 Cd2 O7 174.1(4) . . ?
O2 Cd2 O14 85.5(11) . . ?
O7 Cd2 O14 88.8(11) . . ?
O2 Cd2 O2W 89(2) . . ?
O7 Cd2 O2W 85(2) . . ?
O14 Cd2 O2W 10(3) . . ?
O2 Cd2 O11 90.2(4) . 1_455 ?
O7 Cd2 O11 87.8(4) . 1_455 ?
O14 Cd2 O11 86.0(10) . 1_455 ?
O2W Cd2 O11 95(2) . 1_455 ?
O2 Cd2 N3 107.5(5) . . ?
O7 Cd2 N3 78.1(5) . . ?
O14 Cd2 N3 166.6(12) . . ?
O2W Cd2 N3 162(2) . . ?
O11 Cd2 N3 90.6(5) 1_455 . ?
O2 Cd2 O4 90.7(3) . 1_655 ?
O7 Cd2 O4 91.6(3) . 1_655 ?
O14 Cd2 O4 97.7(10) . 1_655 ?
O2W Cd2 O4 88(2) . 1_655 ?
O11 Cd2 O4 176.2(3) 1_455 1_655 ?
N3 Cd2 O4 85.6(4) . 1_655 ?
O8 Cd3 O9 95.3(5) . 1_445 ?
O8 Cd3 N2 86.3(4) . 1_656 ?
O9 Cd3 N2 88.2(5) 1_445 1_656 ?
O8 Cd3 O11 95.3(4) . 1_455 ?
O9 Cd3 O11 137.1(5) 1_445 1_455 ?
N2 Cd3 O11 133.8(4) 1_656 1_455 ?
O8 Cd3 O13 174.1(6) . . ?
O9 Cd3 O13 87.6(6) 1_445 . ?
N2 Cd3 O13 99.0(7) 1_656 . ?
O11 Cd3 O13 79.1(6) 1_455 . ?
O8 Cd3 O12 105.6(5) . 1_455 ?
O9 Cd3 O12 155.8(6) 1_445 1_455 ?
N2 Cd3 O12 81.2(4) 1_656 1_455 ?
O11 Cd3 O12 53.9(4) 1_455 1_455 ?
O13 Cd3 O12 72.7(7) . 1_455 ?
O8 Cd3 C71 107.1(4) . 1_455 ?
O9 Cd3 C71 153.1(5) 1_445 1_455 ?
N2 Cd3 C71 107.4(5) 1_656 1_455 ?
O11 Cd3 C71 28.6(4) 1_455 1_455 ?
O13 Cd3 C71 68.8(6) . 1_455 ?
O12 Cd3 C71 26.3(4) 1_455 1_455 ?
C30 O1 Cd1 133.6(9) . . ?
C30 O2 Cd2 136.6(9) . . ?
C37 O3 Cd1 92.1(8) . 1_455 ?
C37 O4 Cd1 91.2(7) . 1_455 ?
C37 O4 Cd2 128.4(8) . 1_455 ?
Cd1 O4 Cd2 116.1(3) 1_455 1_455 ?
C44 O5 Cd1 93.9(8) . 1_445 ?
C44 O6 Cd1 92.4(8) . 1_445 ?
C57 O7 Cd2 138.1(10) . . ?
C57 O8 Cd3 125.6(9) . . ?
C64 O9 Cd3 101.0(14) . 1_665 ?
C71 O11 Cd2 125.9(10) . 1_655 ?
C71 O11 Cd3 91.6(8) . 1_655 ?
Cd2 O11 Cd3 117.4(4) 1_655 1_655 ?
C71 O12 Cd3 88.0(11) . 1_655 ?
C1 N1 C5 115.1(13) . . ?
C1 N1 Cd1 122.8(10) . . ?
C5 N1 Cd1 121.8(10) . . ?
C10 N2 C11 121.5(16) . . ?
C10 N2 Cd3 123.2(11) . 1_454 ?
C11 N2 Cd3 115.3(12) . 1_454 ?
N1 C1 C2 125.4(15) . . ?
N1 C1 H1A 117.3 . . ?
C2 C1 H1A 117.3 . . ?
C1 C2 C3 117.7(15) . . ?
C1 C2 H2A 121.2 . . ?
C3 C2 H2A 121.2 . . ?
C4 C3 C2 119.1(15) . . ?
C4 C3 C6 116.3(16) . . ?
C2 C3 C6 124.5(16) . . ?
C5 C4 C3 118.5(18) . . ?
C5 C4 H4A 120.8 . . ?
C3 C4 H4A 120.8 . . ?
C4 C5 N1 123.9(16) . . ?
C4 C5 H5A 118.0 . . ?
N1 C5 H5A 118.0 . . ?
C7 C6 C3 124(2) . . ?
C7 C6 H6A 117.8 . . ?
C3 C6 H6A 117.8 . . ?
C6 C7 C8 120.5(19) . . ?
C6 C7 H7A 119.7 . . ?
C8 C7 H7A 119.7 . . ?
C12 C8 C9 116.9(17) . . ?
C12 C8 C7 123.9(18) . . ?
C9 C8 C7 119.2(18) . . ?
C8 C9 C10 120(2) . . ?
C8 C9 H9A 119.9 . . ?
C10 C9 H9A 119.9 . . ?
N2 C10 C9 122.1(19) . . ?
N2 C10 H10A 118.9 . . ?
C9 C10 H10A 118.9 . . ?
N2 C11 C12 117(2) . . ?
N2 C11 H11A 121.7 . . ?
C12 C11 H11A 121.7 . . ?
C8 C12 C11 122.6(18) . . ?
C8 C12 H12A 118.7 . . ?
C11 C12 H12A 118.7 . . ?
O1 C30 O2 126.2(12) . . ?
O1 C30 C31 117.5(13) . . ?
O2 C30 C31 116.3(13) . . ?
C36 C31 C32 118.6(11) . . ?
C36 C31 C30 122.1(12) . . ?
C32 C31 C30 119.3(12) . . ?
C31 C32 C33 118.4(12) . . ?
C31 C32 H32A 120.8 . . ?
C33 C32 H32A 120.8 . . ?
C32 C33 C34 123.6(13) . . ?
C32 C33 H33A 118.2 . . ?
C34 C33 H33A 118.2 . . ?
C35 C34 C33 116.0(12) . . ?
C35 C34 C51 121.5(13) . . ?
C33 C34 C51 122.5(12) . . ?
C36 C35 C34 121.1(13) . . ?
C36 C35 H35A 119.5 . . ?
C34 C35 H35A 119.5 . . ?
C35 C36 C31 122.3(13) . . ?
C35 C36 H36A 118.9 . . ?
C31 C36 H36A 118.9 . . ?
O3 C37 O4 120.5(11) . . ?
O3 C37 C38 118.5(12) . . ?
O4 C37 C38 120.9(12) . . ?
O3 C37 Cd1 60.1(6) . 1_455 ?
O4 C37 Cd1 60.8(6) . 1_455 ?
C38 C37 Cd1 172.9(10) . 1_455 ?
C39 C38 C43 119.8(11) . . ?
C39 C38 C37 122.2(11) . . ?
C43 C38 C37 118.0(11) . . ?
C38 C39 C40 121.3(11) . . ?
C38 C39 H39A 119.3 . . ?
C40 C39 H39A 119.3 . . ?
C39 C40 C41 119.6(11) . . ?
C39 C40 H40A 120.2 . . ?
C41 C40 H40A 120.2 . . ?
C42 C41 C40 118.9(11) . . ?
C42 C41 C53 121.6(12) . . ?
C40 C41 C53 119.3(12) . . ?
C41 C42 C43 121.7(12) . . ?
C41 C42 H42A 119.1 . . ?
C43 C42 H42A 119.1 . . ?
C42 C43 C38 118.6(12) . . ?
C42 C43 H43A 120.7 . . ?
C38 C43 H43A 120.7 . . ?
O5 C44 O6 118.1(11) . . ?
O5 C44 C45 120.3(12) . . ?
O6 C44 C45 121.7(12) . . ?
O5 C44 Cd1 58.5(6) . 1_445 ?
O6 C44 Cd1 59.6(6) . 1_445 ?
C45 C44 Cd1 178.7(10) . 1_445 ?
C46 C45 C50 117.8(11) . . ?
C46 C45 C44 121.1(12) . . ?
C50 C45 C44 121.1(11) . . ?
C45 C46 C47 120.6(13) . . ?
C45 C46 H46A 119.7 . . ?
C47 C46 H46A 119.7 . . ?
C46 C47 C48 120.8(12) . . ?
C46 C47 H47A 119.6 . . ?
C48 C47 H47A 119.6 . . ?
C49 C48 C47 118.0(11) . . ?
C49 C48 C55 121.2(11) . . ?
C47 C48 C55 120.8(11) . . ?
C50 C49 C48 120.6(12) . . ?
C50 C49 H49A 119.7 . . ?
C48 C49 H49A 119.7 . . ?
C49 C50 C45 122.1(13) . . ?
C49 C50 H50A 119.0 . . ?
C45 C50 H50A 119.0 . . ?
C56 C51 C52 117.9(11) . . ?
C56 C51 C34 121.5(11) . . ?
C52 C51 C34 120.5(11) . . ?
C53 C52 C51 121.7(11) . . ?
C53 C52 H52A 119.1 . . ?
C51 C52 H52A 119.1 . . ?
C54 C53 C52 117.6(11) . . ?
C54 C53 C41 122.1(11) . . ?
C52 C53 C41 120.2(11) . . ?
C53 C54 C55 122.4(11) . . ?
C53 C54 H54A 118.8 . . ?
C55 C54 H54A 118.8 . . ?
C56 C55 C54 117.7(11) . . ?
C56 C55 C48 122.1(11) . . ?
C54 C55 C48 120.1(11) . . ?
C51 C56 C55 122.6(11) . . ?
C51 C56 H56A 118.7 . . ?
C55 C56 H56A 118.7 . . ?
O7 C57 O8 127.6(14) . . ?
O7 C57 C58 115.1(15) . . ?
O8 C57 C58 117.2(14) . . ?
C63 C58 C59 118.9(14) . . ?
C63 C58 C57 119.1(13) . . ?
C59 C58 C57 121.9(15) . . ?
C60 C59 C58 119.7(17) . . ?
C60 C59 H59A 120.2 . . ?
C58 C59 H59A 120.2 . . ?
C61 C60 C59 121.3(15) . . ?
C61 C60 H60A 119.4 . . ?
C59 C60 H60A 119.4 . . ?
C62 C61 C60 118.6(13) . . ?
C62 C61 C78 120.3(14) . . ?
C60 C61 C78 121.1(13) . . ?
C61 C62 C63 121.5(15) . . ?
C61 C62 H62A 119.2 . . ?
C63 C62 H62A 119.2 . . ?
C58 C63 C62 119.9(14) . . ?
C58 C63 H63A 120.0 . . ?
C62 C63 H63A 120.0 . . ?
O9 C64 O10 124(2) . . ?
O9 C64 C65 114(2) . . ?
O10 C64 C65 121(2) . . ?
C70 C65 C66 116.7(16) . . ?
C70 C65 C64 124.2(18) . . ?
C66 C65 C64 119.0(17) . . ?
C67 C66 C65 119.4(16) . . ?
C67 C66 H66A 120.3 . . ?
C65 C66 H66A 120.3 . . ?
C66 C67 C68 123.1(16) . . ?
C66 C67 H67A 118.5 . . ?
C68 C67 H67A 118.5 . . ?
C69 C68 C67 116.1(15) . . ?
C69 C68 C80 122.1(14) . . ?
C67 C68 C80 121.7(15) . . ?
C70 C69 C68 120.2(16) . . ?
C70 C69 H69A 119.9 . . ?
C68 C69 H69A 119.9 . . ?
C65 C70 C69 124.6(17) . . ?
C65 C70 H70A 117.7 . . ?
C69 C70 H70A 117.7 . . ?
O12 C71 O11 122.1(14) . . ?
O12 C71 C72 121.5(15) . . ?
O11 C71 C72 116.3(13) . . ?
O12 C71 Cd3 65.7(9) . 1_655 ?
O11 C71 Cd3 59.8(7) . 1_655 ?
C72 C71 Cd3 158.7(12) . 1_655 ?
C77 C72 C73 120.2(13) . . ?
C77 C72 C71 122.0(14) . . ?
C73 C72 C71 117.7(14) . . ?
C72 C73 C74 117.5(16) . . ?
C72 C73 H73A 121.2 . . ?
C74 C73 H73A 121.2 . . ?
C75 C74 C73 123.9(16) . . ?
C75 C74 H74A 118.1 . . ?
C73 C74 H74A 118.1 . . ?
C74 C75 C76 117.5(13) . . ?
C74 C75 C82 123.5(16) . . ?
C76 C75 C82 119.0(14) . . ?
C75 C76 C77 120.2(14) . . ?
C75 C76 H76A 119.9 . . ?
C77 C76 H76A 119.9 . . ?
C72 C77 C76 120.6(14) . . ?
C72 C77 H77A 119.7 . . ?
C76 C77 H77A 119.7 . . ?
C79 C78 C83 116.9(13) . . ?
C79 C78 C61 120.9(12) . . ?
C83 C78 C61 122.2(13) . . ?
C78 C79 C80 124.4(13) . . ?
C78 C79 H79A 117.8 . . ?
C80 C79 H79A 117.8 . . ?
C81 C80 C79 116.3(14) . . ?
C81 C80 C68 119.3(14) . . ?
C79 C80 C68 124.3(13) . . ?
C80 C81 C82 120.8(14) . . ?
C80 C81 H81A 119.6 . . ?
C82 C81 H81A 119.6 . . ?
C83 C82 C81 120.3(13) . . ?
C83 C82 C75 122.8(15) . . ?
C81 C82 C75 116.7(14) . . ?
C82 C83 C78 121.2(14) . . ?
C82 C83 H83A 119.4 . . ?
C78 C83 H83A 119.4 . . ?
C17 N3 C13 116.8(17) . . ?
C17 N3 Cd2 121.3(14) . . ?
C13 N3 Cd2 119.9(11) . . ?
C23 N4 C22 112(3) . . ?
N3 C13 C14 123.3(17) . . ?
N3 C13 H13A 118.4 . . ?
C14 C13 H13A 118.4 . . ?
C15 C14 C13 120(2) . . ?
C15 C14 H14A 119.8 . . ?
C13 C14 H14A 119.8 . . ?
C16 C15 C14 117(2) . . ?
C16 C15 C18 123(2) . . ?
C14 C15 C18 119(2) . . ?
C15 C16 C17 119.0(19) . . ?
C15 C16 H16A 120.5 . . ?
C17 C16 H16A 120.5 . . ?
N3 C17 C16 123(2) . . ?
N3 C17 H17A 118.4 . . ?
C16 C17 H17A 118.4 . . ?
C19 C18 C15 128(2) . . ?
C19 C18 H18A 115.8 . . ?
C15 C18 H18A 115.8 . . ?
C18 C19 C20 133(3) . . ?
C18 C19 H19A 113.6 . . ?
C20 C19 H19A 113.6 . . ?
C19 C20 C24 131(3) . . ?
C19 C20 C21 122(2) . . ?
C24 C20 C21 106(3) . . ?
C22 C21 C20 123(3) . . ?
C22 C21 H21A 118.5 . . ?
C20 C21 H21A 118.5 . . ?
N4 C22 C21 125(3) . . ?
N4 C22 H22A 117.6 . . ?
C21 C22 H22A 117.6 . . ?
N4 C23 C24 125(3) . . ?
N4 C23 H23A 117.5 . . ?
C24 C23 H23A 117.5 . . ?
C23 C24 C20 129(3) . . ?
C23 C24 H24A 115.4 . . ?
C20 C24 H24A 115.4 . . ?
C25 O13 Cd3 116.9(18) . . ?
C25 N5 C29 135(2) . . ?
C25 N5 C27 122(2) . . ?
C29 N5 C27 100(2) . . ?
O13 C25 N5 125(2) . . ?
O13 C25 H25A 117.5 . . ?
N5 C25 H25A 117.5 . . ?
C27 C26 H26A 109.5 . . ?
C27 C26 H26B 109.5 . . ?
H26A C26 H26B 109.5 . . ?
C27 C26 H26C 109.5 . . ?
H26A C26 H26C 109.5 . . ?
H26B C26 H26C 109.5 . . ?
N5 C27 C26 120(3) . . ?
N5 C27 H27A 107.3 . . ?
C26 C27 H27A 107.3 . . ?
N5 C27 H27B 107.3 . . ?
C26 C27 H27B 107.3 . . ?
H27A C27 H27B 106.9 . . ?
C29 C28 H28A 109.5 . . ?
C29 C28 H28B 109.5 . . ?
H28A C28 H28B 109.5 . . ?
C29 C28 H28C 109.5 . . ?
H28A C28 H28C 109.5 . . ?
H28B C28 H28C 109.5 . . ?
N5 C29 C28 117(3) . . ?
N5 C29 H29A 108.0 . . ?
C28 C29 H29A 108.0 . . ?
N5 C29 H29B 108.0 . . ?
C28 C29 H29B 108.0 . . ?
H29A C29 H29B 107.2 . . ?
C84 O2W Cd2 161(9) . . ?
C84 O14 Cd2 144(4) . . ?
C84 N6 C86 120(3) . . ?
C84 N6 C88 122(3) . . ?
C86 N6 C88 101(3) . . ?
O2W C84 O14 18(6) . . ?
O2W C84 N6 147(6) . . ?
O14 C84 N6 130(3) . . ?
O2W C84 H84A 96.8 . . ?
O14 C84 H84A 96.8 . . ?
N6 C84 H84A 96.8 . . ?
C86 C85 H85A 109.5 . . ?
C86 C85 H85B 109.5 . . ?
H85A C85 H85B 109.5 . . ?
C86 C85 H85C 109.5 . . ?
H85A C85 H85C 109.5 . . ?
H85B C85 H85C 109.5 . . ?
N6 C86 C85 125(4) . . ?
N6 C86 H86A 106.1 . . ?
C85 C86 H86A 106.1 . . ?
N6 C86 H86B 106.1 . . ?
C85 C86 H86B 106.1 . . ?
H86A C86 H86B 106.3 . . ?
C88 C87 H87A 109.5 . . ?
C88 C87 H87B 109.5 . . ?
H87A C87 H87B 109.5 . . ?
C88 C87 H87C 109.5 . . ?
H87A C87 H87C 109.5 . . ?
H87B C87 H87C 109.5 . . ?
N6 C88 C87 117(4) . . ?
N6 C88 H88B 108.1 . . ?
C87 C88 H88B 108.1 . . ?
N6 C88 H88A 108.1 . . ?
C87 C88 H88A 108.1 . . ?
H88B C88 H88A 107.3 . . ?
loop_
_geom_bond_atom_site_label_1
_geom_bond_atom_site_label_2
_geom_bond_distance
_geom_bond_site_symmetry_2
_geom_bond_publ_flag
Cd1 O1 2.206(9) . ?
Cd1 N1 2.284(11) . ?
Cd1 O5 2.315(9) 1_665 ?
Cd1 O6 2.338(9) 1_665 ?
Cd1 O3 2.360(9) 1_655 ?
Cd1 O4 2.375(8) 1_655 ?
Cd1 C44 2.709(13) 1_665 ?
Cd1 C37 2.720(12) 1_655 ?
Cd2 O2 2.235(9) . ?
Cd2 O7 2.253(10) . ?
Cd2 O14 2.26(2) . ?
Cd2 O2W 2.33(7) . ?
Cd2 O11 2.340(10) 1_455 ?
Cd2 N3 2.371(15) . ?
Cd2 O4 2.400(9) 1_655 ?
Cd3 O8 2.230(11) . ?
Cd3 O9 2.279(13) 1_445 ?
Cd3 N2 2.369(12) 1_656 ?
Cd3 O11 2.368(9) 1_455 ?
Cd3 O13 2.38(2) . ?
Cd3 O12 2.497(14) 1_455 ?
Cd3 C71 2.737(16) 1_455 ?
O1 C30 1.258(17) . ?
O2 C30 1.263(17) . ?
O3 C37 1.269(16) . ?
O4 C37 1.278(16) . ?
O5 C44 1.257(16) . ?
O6 C44 1.274(16) . ?
O7 C57 1.232(19) . ?
O8 C57 1.235(19) . ?
O9 C64 1.22(3) . ?
O10 C64 1.25(3) . ?
O11 C71 1.310(19) . ?
O12 C71 1.212(19) . ?
N1 C1 1.303(18) . ?
N1 C5 1.38(2) . ?
N2 C10 1.28(2) . ?
N2 C11 1.32(2) . ?
C1 C2 1.36(2) . ?
C1 H1A 0.9300 . ?
C2 C3 1.38(2) . ?
C2 H2A 0.9300 . ?
C3 C4 1.37(2) . ?
C3 C6 1.50(2) . ?
C4 C5 1.34(2) . ?
C4 H4A 0.9300 . ?
C5 H5A 0.9300 . ?
C6 C7 1.28(2) . ?
C6 H6A 0.9300 . ?
C7 C8 1.53(2) . ?
C7 H7A 0.9300 . ?
C8 C12 1.33(3) . ?
C8 C9 1.35(3) . ?
C9 C10 1.39(2) . ?
C9 H9A 0.9300 . ?
C10 H10A 0.9300 . ?
C11 C12 1.44(2) . ?
C11 H11A 0.9300 . ?
C12 H12A 0.9300 . ?
C30 C31 1.492(16) . ?
C31 C36 1.369(19) . ?
C31 C32 1.384(18) . ?
C32 C33 1.383(17) . ?
C32 H32A 0.9300 . ?
C33 C34 1.39(2) . ?
C33 H33A 0.9300 . ?
C34 C35 1.378(19) . ?
C34 C51 1.482(16) . ?
C35 C36 1.372(18) . ?
C35 H35A 0.9300 . ?
C36 H36A 0.9300 . ?
C37 C38 1.478(16) . ?
C38 C39 1.377(17) . ?
C38 C43 1.413(18) . ?
C39 C40 1.392(17) . ?
C39 H39A 0.9300 . ?
C40 C41 1.403(18) . ?
C40 H40A 0.9300 . ?
C41 C42 1.392(18) . ?
C41 C53 1.472(16) . ?
C42 C43 1.392(16) . ?
C42 H42A 0.9300 . ?
C43 H43A 0.9300 . ?
C44 C45 1.481(16) . ?
C45 C46 1.365(18) . ?
C45 C50 1.401(18) . ?
C46 C47 1.382(17) . ?
C46 H46A 0.9300 . ?
C47 C48 1.393(18) . ?
C47 H47A 0.9300 . ?
C48 C49 1.383(18) . ?
C48 C55 1.485(16) . ?
C49 C50 1.341(17) . ?
C49 H49A 0.9300 . ?
C50 H50A 0.9300 . ?
C51 C56 1.360(16) . ?
C51 C52 1.399(16) . ?
C52 C53 1.398(16) . ?
C52 H52A 0.9300 . ?
C53 C54 1.363(16) . ?
C54 C55 1.398(17) . ?
C54 H54A 0.9300 . ?
C55 C56 1.383(17) . ?
C56 H56A 0.9300 . ?
C57 C58 1.523(19) . ?
C58 C63 1.38(2) . ?
C58 C59 1.41(2) . ?
C59 C60 1.38(2) . ?
C59 H59A 0.9300 . ?
C60 C61 1.38(2) . ?
C60 H60A 0.9300 . ?
C61 C62 1.37(2) . ?
C61 C78 1.475(18) . ?
C62 C63 1.39(2) . ?
C62 H62A 0.9300 . ?
C63 H63A 0.9300 . ?
C64 C65 1.51(3) . ?
C65 C70 1.37(2) . ?
C65 C66 1.41(2) . ?
C66 C67 1.38(2) . ?
C66 H66A 0.9300 . ?
C67 C68 1.41(2) . ?
C67 H67A 0.9300 . ?
C68 C69 1.39(2) . ?
C68 C80 1.46(2) . ?
C69 C70 1.37(2) . ?
C69 H69A 0.9300 . ?
C70 H70A 0.9300 . ?
C71 C72 1.49(2) . ?
C72 C77 1.37(2) . ?
C72 C73 1.39(2) . ?
C73 C74 1.392(19) . ?
C73 H73A 0.9300 . ?
C74 C75 1.36(2) . ?
C74 H74A 0.9300 . ?
C75 C76 1.39(2) . ?
C75 C82 1.491(18) . ?
C76 C77 1.397(18) . ?
C76 H76A 0.9300 . ?
C77 H77A 0.9300 . ?
C78 C79 1.382(19) . ?
C78 C83 1.402(19) . ?
C79 C80 1.41(2) . ?
C79 H79A 0.9300 . ?
C80 C81 1.398(18) . ?
C81 C82 1.40(2) . ?
C81 H81A 0.9300 . ?
C82 C83 1.38(2) . ?
C83 H83A 0.9300 . ?
N3 C17 1.30(2) . ?
N3 C13 1.36(2) . ?
N4 C23 1.32(3) . ?
N4 C22 1.34(3) . ?
C13 C14 1.40(3) . ?
C13 H13A 0.9300 . ?
C14 C15 1.38(3) . ?
C14 H14A 0.9300 . ?
C15 C16 1.38(3) . ?
C15 C18 1.46(3) . ?
C16 C17 1.46(3) . ?
C16 H16A 0.9300 . ?
C17 H17A 0.9300 . ?
C18 C19 1.29(3) . ?
C18 H18A 0.9300 . ?
C19 C20 1.35(3) . ?
C19 H19A 0.9300 . ?
C20 C24 1.37(3) . ?
C20 C21 1.44(4) . ?
C21 C22 1.43(3) . ?
C21 H21A 0.9300 . ?
C22 H22A 0.9300 . ?
C23 C24 1.35(3) . ?
C23 H23A 0.9300 . ?
C24 H24A 0.9300 . ?
O13 C25 1.256(18) . ?
N5 C25 1.306(17) . ?
N5 C29 1.405(18) . ?
N5 C27 1.431(18) . ?
C25 H25A 0.9300 . ?
C26 C27 1.520(19) . ?
C26 H26A 0.9600 . ?
C26 H26B 0.9600 . ?
C26 H26C 0.9600 . ?
C27 H27A 0.9700 . ?
C27 H27B 0.9700 . ?
C28 C29 1.542(19) . ?
C28 H28A 0.9600 . ?
C28 H28B 0.9600 . ?
C28 H28C 0.9600 . ?
C29 H29A 0.9700 . ?
C29 H29B 0.9700 . ?
O2W C84 1.06(7) . ?
O14 C84 1.238(19) . ?
N6 C84 1.337(18) . ?
N6 C86 1.449(19) . ?
N6 C88 1.454(19) . ?
C84 H84A 0.9800 . ?
C85 C86 1.54(2) . ?
C85 H85A 0.9600 . ?
C85 H85B 0.9600 . ?
C85 H85C 0.9600 . ?
C86 H86A 0.9700 . ?
C86 H86B 0.9700 . ?
C87 C88 1.54(2) . ?
C87 H87A 0.9600 . ?
C87 H87B 0.9600 . ?
C87 H87C 0.9600 . ?
C88 H88B 0.9700 . ?
C88 H88A 0.9700 . ?
loop_
_publcif_info_exptl_table_extra_item
sin_theta_over_lambda_max
loop_
_publcif_info_exptl_table_header_item
?
