#------------------------------------------------------------------------------
#$Date: 2020-06-05 12:42:00 +0300 (Fri, 05 Jun 2020) $
#$Revision: 252681 $
#$URL: file:///home/coder/svn-repositories/cod/cif/7/12/64/7126483.cif $
#------------------------------------------------------------------------------
#
# This file is available in the Crystallography Open Database (COD),
# http://www.crystallography.net/
#
# All data on this site have been placed in the public domain by the
# contributors.
#
data_7126483
loop_
_publ_author_name
'Chen, Jing'
'Chao, Meng-Yao'
'Yan Liu, ?'
'Xu, Bo-Wei'
'Zhang, Wen-Hua'
'Young, David J.'
_publ_section_title
;
 An N,N'-diethylformamide solvent-induced conversion cascade within a
 metal-organic framework single crystal.
;
_journal_issue                   44
_journal_name_full
'Chemical communications (Cambridge, England)'
_journal_page_first              5877
_journal_page_last               5880
_journal_paper_doi               10.1039/d0cc02420a
_journal_volume                  56
_journal_year                    2020
_chemical_formula_moiety         'C66 H44 Cd3 N2 O14, C12 H10 N2 [+ solvent]'
_chemical_formula_sum            'C78 H54 Cd3 N4 O14'
_chemical_formula_weight         1608.45
_space_group_crystal_system      triclinic
_space_group_IT_number           2
_space_group_name_Hall           '-P 1'
_space_group_name_H-M_alt        'P -1'
_atom_sites_solution_hydrogens   mixed
_audit_creation_method           SHELXL-2016/6
_audit_update_record
;
2020-01-17 deposited with the CCDC.	2020-04-28 downloaded from the CCDC.
;
_cell_angle_alpha                88.171(7)
_cell_angle_beta                 70.164(7)
_cell_angle_gamma                62.671(6)
_cell_formula_units_Z            2
_cell_length_a                   16.320(5)
_cell_length_b                   16.974(5)
_cell_length_c                   19.292(6)
_cell_measurement_reflns_used    9931
_cell_measurement_temperature    293(2)
_cell_measurement_theta_max      26.74
_cell_measurement_theta_min      2.27
_cell_volume                     4417(2)
_computing_structure_refinement  'SHELXL-2016/6 (Sheldrick, 2016)'
_computing_structure_solution    'SHELXT 2014/5 (Sheldrick, 2014)'
_diffrn_ambient_temperature      293(2)
_diffrn_measured_fraction_theta_full 0.996
_diffrn_measured_fraction_theta_max 0.988
_diffrn_measurement_device_type  'Bruker APEX-II CCD'
_diffrn_measurement_method       '\f and \w scans'
_diffrn_radiation_type           MoK\a
_diffrn_radiation_wavelength     0.71073
_diffrn_reflns_av_R_equivalents  0.1427
_diffrn_reflns_av_unetI/netI     0.1560
_diffrn_reflns_Laue_measured_fraction_full 0.996
_diffrn_reflns_Laue_measured_fraction_max 0.988
_diffrn_reflns_limit_h_max       21
_diffrn_reflns_limit_h_min       -21
_diffrn_reflns_limit_k_max       22
_diffrn_reflns_limit_k_min       -22
_diffrn_reflns_limit_l_max       25
_diffrn_reflns_limit_l_min       -25
_diffrn_reflns_number            99801
_diffrn_reflns_point_group_measured_fraction_full 0.996
_diffrn_reflns_point_group_measured_fraction_max 0.988
_diffrn_reflns_theta_full        25.242
_diffrn_reflns_theta_max         28.374
_diffrn_reflns_theta_min         2.195
_diffrn_standards_decay_%        0
_diffrn_standards_interval_count 0
_diffrn_standards_number         0
_exptl_absorpt_coefficient_mu    0.770
_exptl_absorpt_correction_T_max  0.926
_exptl_absorpt_correction_T_min  0.871
_exptl_absorpt_correction_type   multi-scan
_exptl_absorpt_process_details
;
 Sheldrick, G.M. SADABS (Program for Scaling and Correction of Area Detector
 Data), version 2008/1; University of G\"ottingen: G\"ottingen, Germany, 2008.
;
_exptl_crystal_colour            colourless
_exptl_crystal_density_diffrn    1.209
_exptl_crystal_description       block
_exptl_crystal_F_000             1612
_exptl_crystal_size_max          0.200
_exptl_crystal_size_mid          0.150
_exptl_crystal_size_min          0.100
_refine_diff_density_max         2.197
_refine_diff_density_min         -2.056
_refine_diff_density_rms         0.158
_refine_ls_extinction_method     none
_refine_ls_goodness_of_fit_ref   1.025
_refine_ls_hydrogen_treatment    constr
_refine_ls_matrix_type           full
_refine_ls_number_parameters     868
_refine_ls_number_reflns         21854
_refine_ls_number_restraints     131
_refine_ls_restrained_S_all      1.027
_refine_ls_R_factor_all          0.1899
_refine_ls_R_factor_gt           0.0949
_refine_ls_shift/su_max          0.001
_refine_ls_shift/su_mean         0.000
_refine_ls_structure_factor_coef Fsqd
_refine_ls_weighting_details
'w=1/[\s^2^(Fo^2^)+(0.2000P)^2^] where P=(Fo^2^+2Fc^2^)/3'
_refine_ls_weighting_scheme      calc
_refine_ls_wR_factor_gt          0.2847
_refine_ls_wR_factor_ref         0.3477
_reflns_Friedel_coverage         0.000
_reflns_number_gt                10040
_reflns_number_total             21854
_reflns_threshold_expression     'I > 2\s(I)'
_cod_data_source_file            d0cc02420a2.cif
_cod_data_source_block           CD3-40S
_cod_depositor_comments
'Adding full bibliography for 7126483--7126489.cif.'
_cod_database_code               7126483
_publcif_datablock.id            {a98d6aa6-d5d5-4e99-8ee4-8d2faf074c9d}
_shelx_shelxl_version_number     2016/6
_shelx_space_group_comment
;
The symmetry employed for this shelxl refinement is uniquely defined
by the following loop, which should always be used as a source of
symmetry information in preference to the above space-group names.
They are only intended as comments.
;
_shelx_estimated_absorpt_t_min   0.861
_shelx_estimated_absorpt_t_max   0.927
_shelx_res_file
;
TITL B181001B_0m_a_a.res in P-1
    T.res
    created by SHELXL-2016/6 at 08:00:41 on 06-Oct-2019
REM Old TITL B181001B_0m_a.res in P-1
REM SHELXT solution in P-1
REM R1 0.235, Rweak 0.026, Alpha 0.175, Orientation as input
REM Formula found by SHELXT: C79 N15 O17 Cd3
CELL 0.71073 16.3202 16.9745 19.2915 88.171 70.164 62.671
ZERR 2 0.0045 0.0047 0.0056 0.007 0.007 0.006
LATT 1
SFAC C H N O Cd
UNIT 156 108 8 28 6

L.S. 40
PLAN  20
SIZE 0.1 0.15 0.2
BOND $H
HTAB O1W N4
EQIV $5 x, y+1, z
HTAB O1W O3_$5
EQIV $7 x+1, y-1, z
HTAB O2W N3_$7
HTAB C5 O1
EQIV $9 x+2, y-1, z-1
HTAB C11 O12_$9
EQIV $10 -x+1, -y+1, -z+1
HTAB C70 O1_$10

fmap 2
acta
REM <olex2.extras>
REM <HklSrc "%.\\t.hkl">
REM </olex2.extras>
SIMU N3 > C78
DELU N3 > C78
DFIX 1.48 0.02 C69 C72 C73 C74
DFIX 1.28 0.02 C72 C73
FLAT C72 C73 C74 C75 C76 N4 C77 C78
ABIN
WGHT    0.200000
FVAR       0.19199
CD1   5    0.735097    0.287482    0.738161    11.00000    0.02367    0.03288 =
         0.04195    0.00942   -0.01163   -0.01318
CD2   5    0.826986    0.375653    0.556169    11.00000    0.02985    0.03200 =
         0.04794    0.01002   -0.01346   -0.01574
CD3   5    0.641297    0.201789    0.924099    11.00000    0.03672    0.03876 =
         0.04802    0.01116   -0.01322   -0.02138
O1    4    0.808207    0.260230    0.504947    11.00000    0.05222    0.05869 =
         0.05018   -0.00387    0.00564   -0.03725
O2    4    0.721458    0.321514    0.621359    11.00000    0.04003    0.03531 =
         0.04562    0.01160   -0.01861   -0.02942
O3    4    0.782971   -0.480653    0.608210    11.00000    0.07320    0.02307 =
         0.12291    0.01445   -0.06403   -0.01755
O4    4    0.711547   -0.492727    0.533660    11.00000    0.05570    0.03619 =
         0.08088    0.02054   -0.03863   -0.01806
O5    4   -0.077400    0.332128    0.622591    11.00000    0.03500    0.06018 =
         0.08295    0.02930   -0.03596   -0.02262
O6    4   -0.100567    0.229019    0.687096    11.00000    0.02607    0.04118 =
         0.06282    0.01101   -0.01058   -0.01092
O7    4    0.556573    0.231406    0.847870    11.00000    0.04750    0.04264 =
         0.05798    0.01170   -0.02832   -0.01458
O8    4    0.570260    0.345321    0.793674    11.00000    0.02190    0.06504 =
         0.08816    0.01254   -0.01437   -0.02201
O9    4   -0.333514    0.309151    0.970499    11.00000    0.07795    0.10140 =
         0.05735   -0.00962   -0.00234   -0.07259
O10   4   -0.249909    0.255613    0.854100    11.00000    0.05042    0.05658 =
         0.05146    0.01841   -0.02803   -0.03652
O11   4   -0.230647    1.061120    0.870470    11.00000    0.14206    0.03537 =
         0.22946    0.02773    0.00502   -0.03157
O12   4   -0.343752    1.067760    0.959380    11.00000    0.07753    0.03725 =
         0.22898    0.04342   -0.00348    0.01955
O1W   4    0.707356    0.430823    0.751712    11.00000    0.08147    0.04098 =
         0.09795   -0.00177   -0.03545   -0.02694
AFIX   3
H1W1  2    0.649473    0.468672    0.758136    11.00000   -1.20000
H2W1  2    0.744161    0.451282    0.727665    11.00000   -1.20000
AFIX   0
O2W   4    0.761043    0.146605    0.719034    11.00000    0.04439    0.03177 =
         0.11318    0.01006   -0.02445   -0.01928
AFIX   3
H1W2  2    0.733515    0.116309    0.717595    11.00000   -1.20000
H2W2  2    0.819694    0.111349    0.712744    11.00000   -1.20000
AFIX   0
N1    3    0.949002    0.357496    0.448476    11.00000    0.04567    0.07425 =
         0.03995   -0.00349   -0.00477   -0.03852
N2    3    1.491425    0.262209    0.022939    11.00000    0.07528    0.09870 =
         0.06939    0.02799   -0.02543   -0.07459
C1    1    0.984760    0.415366    0.432008    11.00000    0.05479    0.07473 =
         0.07808    0.01212    0.00318   -0.05015
AFIX  43
H1A   2    0.954845    0.467162    0.465906    11.00000   -1.20000
AFIX   0
C2    1    1.065501    0.403015    0.366105    11.00000    0.04842    0.08493 =
         0.08175    0.02737   -0.02077   -0.03743
AFIX  43
H2A   2    1.092058    0.442139    0.357803    11.00000   -1.20000
AFIX   0
C3    1    1.101771    0.328000    0.314988    11.00000    0.05771    0.12369 =
         0.03656    0.00461   -0.00901   -0.04342
C4    1    1.063539    0.273595    0.327956    11.00000    0.14476    0.09223 =
         0.11681   -0.05384    0.06319   -0.09450
AFIX  43
H4A   2    1.086179    0.225404    0.292292    11.00000   -1.20000
AFIX   0
C5    1    0.989344    0.289141    0.395276    11.00000    0.08869    0.08559 =
         0.10398   -0.04093    0.03000   -0.05866
AFIX  43
H5A   2    0.965387    0.248091    0.404250    11.00000   -1.20000
AFIX   0
C6    1    1.189244    0.308125    0.243764    11.00000    0.10317    0.14952 =
         0.04796    0.00430   -0.01591   -0.08779
AFIX  43
H6A   2    1.213622    0.254929    0.213271    11.00000   -1.20000
AFIX   0
C7    1    1.234945    0.354517    0.219229    11.00000    0.06701    0.13596 =
         0.07003    0.02966   -0.01178   -0.06477
AFIX  43
H7A   2    1.212243    0.409202    0.246864    11.00000   -1.20000
AFIX   0
C8    1    1.320461    0.324246    0.150056    11.00000    0.05468    0.08611 =
         0.07860    0.03221   -0.03492   -0.04337
C9    1    1.361256    0.378075    0.122155    11.00000    0.08130    0.05516 =
         0.08772   -0.00764    0.01948   -0.03784
AFIX  43
H9A   2    1.331901    0.436107    0.146572    11.00000   -1.20000
AFIX   0
C10   1    1.442955    0.349291    0.060153    11.00000    0.07866    0.04963 =
         0.09276    0.00822   -0.00329   -0.04023
AFIX  43
H10A  2    1.467665    0.388452    0.041694    11.00000   -1.20000
AFIX   0
C11   1    1.452599    0.213214    0.045212    11.00000    0.11497    0.09162 =
         0.08780   -0.02412    0.02148   -0.08301
AFIX  43
H11A  2    1.481582    0.156500    0.018453    11.00000   -1.20000
AFIX   0
C12   1    1.363176    0.241718    0.111861    11.00000    0.07615    0.08474 =
         0.10411    0.00073    0.01184   -0.06867
AFIX  43
H12A  2    1.336241    0.203506    0.127620    11.00000   -1.20000
AFIX   0
C13   1    0.742578    0.269690    0.565974    11.00000    0.02923    0.02698 =
         0.06035    0.00804   -0.01965   -0.01354
C14   1    0.686699    0.217472    0.572634    11.00000    0.03229    0.02989 =
         0.05342    0.00733   -0.00837   -0.02156
C15   1    0.593001    0.250821    0.626732    11.00000    0.03424    0.03067 =
         0.07671    0.00578   -0.02171   -0.02065
AFIX  43
H15A  2    0.565224    0.304290    0.658011    11.00000   -1.20000
AFIX   0
C16   1    0.541971    0.204772    0.633740    11.00000    0.03513    0.04285 =
         0.06917    0.01392   -0.01768   -0.02463
AFIX  43
H16A  2    0.481066    0.224206    0.672420    11.00000   -1.20000
AFIX   0
C17   1    0.579939    0.129341    0.583825    11.00000    0.04014    0.03495 =
         0.06672    0.00432   -0.02600   -0.01810
C18   1    0.670621    0.097819    0.528436    11.00000    0.03036    0.04359 =
         0.07469   -0.00883   -0.01151   -0.02771
AFIX  43
H18A  2    0.697169    0.045758    0.495748    11.00000   -1.20000
AFIX   0
C19   1    0.722622    0.145340    0.521899    11.00000    0.02444    0.05048 =
         0.05949   -0.00748   -0.00236   -0.02123
AFIX  43
H19A  2    0.782496    0.127370    0.482367    11.00000   -1.20000
AFIX   0
C20   1    0.725050   -0.446752    0.571452    11.00000    0.04510    0.03346 =
         0.08142    0.01916   -0.04516   -0.02476
C21   1    0.669505   -0.346179    0.580846    11.00000    0.04038    0.03295 =
         0.06992    0.01684   -0.02802   -0.01907
C22   1    0.594084   -0.305114    0.552757    11.00000    0.04346    0.04519 =
         0.09271    0.02352   -0.04548   -0.02874
AFIX  43
H22A  2    0.579260   -0.340354    0.528410    11.00000   -1.20000
AFIX   0
C23   1    0.540913   -0.212930    0.560440    11.00000    0.04047    0.03541 =
         0.09138    0.01175   -0.02937   -0.02159
AFIX  43
H23A  2    0.485934   -0.186139    0.546529    11.00000   -1.20000
AFIX   0
C24   1    0.570250   -0.160468    0.589156    11.00000    0.03073    0.03675 =
         0.07044    0.01885   -0.01990   -0.01641
C25   1    0.641473   -0.201768    0.617885    11.00000    0.04924    0.02394 =
         0.11100    0.01109   -0.04764   -0.01232
AFIX  43
H25A  2    0.657425   -0.166975    0.641589    11.00000   -1.20000
AFIX   0
C26   1    0.692330   -0.295013    0.613401    11.00000    0.05326    0.03258 =
         0.11147    0.02658   -0.06257   -0.01702
AFIX  43
H26A  2    0.741950   -0.321279    0.633075    11.00000   -1.20000
AFIX   0
C27   1   -0.049116    0.262576    0.651780    11.00000    0.02502    0.03541 =
         0.04598    0.00709   -0.01136   -0.01023
C28   1    0.059421    0.214871    0.641653    11.00000    0.04525    0.05528 =
         0.05754    0.02060   -0.02930   -0.02938
C29   1    0.096275    0.142227    0.676530    11.00000    0.03436    0.07125 =
         0.12041    0.06264   -0.03454   -0.03791
AFIX  43
H29A  2    0.053521    0.123087    0.707697    11.00000   -1.20000
AFIX   0
C30   1    0.196715    0.096297    0.666267    11.00000    0.04944    0.06319 =
         0.10159    0.05494   -0.04973   -0.03071
AFIX  43
H30A  2    0.220871    0.045526    0.688673    11.00000   -1.20000
AFIX   0
C31   1    0.260379    0.126674    0.622512    11.00000    0.03006    0.04390 =
         0.08296    0.01047   -0.02132   -0.02060
C32   1    0.223527    0.199780    0.588020    11.00000    0.03756    0.05284 =
         0.07620    0.02652   -0.01437   -0.02950
AFIX  43
H32A  2    0.265767    0.220058    0.557877    11.00000   -1.20000
AFIX   0
C33   1    0.123797    0.243953    0.597562    11.00000    0.02777    0.05256 =
         0.08900    0.02826   -0.02341   -0.01293
AFIX  43
H33A  2    0.100005    0.293715    0.574004    11.00000   -1.20000
AFIX   0
C34   1    0.521077    0.078862    0.595088    11.00000    0.01926    0.03516 =
         0.08045   -0.00494   -0.01066   -0.01097
C35   1    0.567499   -0.014727    0.587399    11.00000    0.03928    0.03543 =
         0.09012   -0.00101   -0.03682   -0.01700
AFIX  43
H35A  2    0.635636   -0.045803    0.575789    11.00000   -1.20000
AFIX   0
C36   1    0.517708   -0.062461    0.596099    11.00000    0.04042    0.02977 =
         0.08003    0.00376   -0.02689   -0.01316
C37   1    0.415672   -0.013337    0.607142    11.00000    0.02923    0.02600 =
         0.10082    0.01234   -0.02995   -0.01568
AFIX  43
H37A  2    0.380380   -0.044492    0.611028    11.00000   -1.20000
AFIX   0
C38   1    0.366851    0.078327    0.612333    11.00000    0.02598    0.03530 =
         0.08201    0.01039   -0.02741   -0.01257
C39   1    0.419198    0.124161    0.606174    11.00000    0.03052    0.03576 =
         0.06875    0.00051   -0.02077   -0.01451
AFIX  43
H39A  2    0.386961    0.186268    0.609361    11.00000   -1.20000
AFIX   0
C40   1    0.521934    0.307594    0.826090    11.00000    0.02691    0.03695 =
         0.04532    0.00397   -0.00916   -0.01469
C41   1    0.411285    0.356181    0.841489    11.00000    0.01831    0.03155 =
         0.04865    0.00246   -0.01007   -0.00696
C42   1    0.352980    0.316987    0.873360    11.00000    0.04054    0.04159 =
         0.05192    0.02150   -0.02783   -0.02324
AFIX  43
H42A  2    0.380938    0.259533    0.885599    11.00000   -1.20000
AFIX   0
C43   1    0.252342    0.363398    0.887199    11.00000    0.04085    0.04086 =
         0.07044    0.01011   -0.02100   -0.02067
AFIX  43
H43A  2    0.212585    0.337603    0.910469    11.00000   -1.20000
AFIX   0
C44   1    0.209882    0.448007    0.866806    11.00000    0.03460    0.02861 =
         0.04953    0.01329   -0.02214   -0.01749
C45   1    0.269814    0.486119    0.835868    11.00000    0.02955    0.04775 =
         0.06893    0.02160   -0.01747   -0.01893
AFIX  43
H45A  2    0.242913    0.543668    0.823608    11.00000   -1.20000
AFIX   0
C46   1    0.369932    0.438998    0.822987    11.00000    0.04149    0.04915 =
         0.07557    0.02619   -0.02229   -0.02582
AFIX  43
H46A  2    0.409849    0.465049    0.800993    11.00000   -1.20000
AFIX   0
C47   1   -0.269784    0.306363    0.910255    11.00000    0.03811    0.05459 =
         0.03586   -0.00067   -0.00776   -0.03266
C48   1   -0.211862    0.353902    0.904552    11.00000    0.03804    0.06479 =
         0.05071    0.00834   -0.02045   -0.02121
C49   1   -0.124453    0.331908    0.848004    11.00000    0.05056    0.07948 =
         0.04201    0.00260   -0.00816   -0.04919
AFIX  43
H49A  2   -0.099784    0.286111    0.809491    11.00000   -1.20000
AFIX   0
C50   1   -0.073093    0.375641    0.847054    11.00000    0.05120    0.07302 =
         0.04983   -0.00051   -0.01780   -0.03874
AFIX  43
H50A  2   -0.011519    0.357279    0.809478    11.00000   -1.20000
AFIX   0
C51   1   -0.111003    0.448217    0.901726    11.00000    0.04088    0.04662 =
         0.07388    0.02184   -0.03279   -0.02733
C52   1   -0.199624    0.471444    0.958939    11.00000    0.03555    0.06867 =
         0.05221   -0.02296   -0.00220   -0.02073
AFIX  43
H52A  2   -0.224833    0.518798    0.996212    11.00000   -1.20000
AFIX   0
C53   1   -0.251212    0.426314    0.962017    11.00000    0.05097    0.06741 =
         0.05562   -0.00782   -0.00819   -0.03802
AFIX  43
H53A  2   -0.311148    0.442483    1.000986    11.00000   -1.20000
AFIX   0
C54   1   -0.261151    1.019459    0.917151    11.00000    0.05465    0.01549 =
         0.10649    0.00048   -0.01660    0.00767
C55   1   -0.207904    0.926065    0.916990    11.00000    0.04493    0.03079 =
         0.08975    0.02037   -0.02688   -0.01193
C56   1   -0.251267    0.882186    0.960171    11.00000    0.04181    0.07956 =
         0.17293    0.06532   -0.04496   -0.03054
AFIX  43
H56A  2   -0.317033    0.914962    0.992009    11.00000   -1.20000
AFIX   0
C57   1   -0.201523    0.787677    0.959712    11.00000    0.04299    0.02678 =
         0.09786    0.02435   -0.00111   -0.00238
AFIX  43
H57A  2   -0.233733    0.760565    0.992427    11.00000   -1.20000
AFIX   0
C58   1   -0.104120    0.735839    0.909908    11.00000    0.04704    0.03297 =
         0.08059    0.00606   -0.01676   -0.02108
C59   1   -0.062693    0.780779    0.860705    11.00000    0.07007    0.03632 =
         0.10552    0.01644   -0.00739   -0.01606
AFIX  43
H59A  2   -0.000600    0.747677    0.823646    11.00000   -1.20000
AFIX   0
C60   1   -0.112163    0.875819    0.865150    11.00000    0.06153    0.06767 =
         0.11391    0.04049   -0.02202   -0.03810
AFIX  43
H60A  2   -0.080651    0.904230    0.833550    11.00000   -1.20000
AFIX   0
C61   1    0.099150    0.497887    0.882202    11.00000    0.03464    0.03695 =
         0.05111    0.00692   -0.00778   -0.02008
C62   1    0.048397    0.450927    0.886148    11.00000    0.03064    0.02913 =
         0.06133    0.01900   -0.02011   -0.01449
AFIX  43
H62A  2    0.081781    0.388576    0.879049    11.00000   -1.20000
AFIX   0
C63   1   -0.052995    0.496633    0.900767    11.00000    0.04040    0.04185 =
         0.06540    0.01164   -0.02451   -0.02271
C64   1   -0.101361    0.590112    0.911126    11.00000    0.02837    0.03339 =
         0.06377    0.01120   -0.01245   -0.01216
AFIX  43
H64A  2   -0.169464    0.620948    0.922539    11.00000   -1.20000
AFIX   0
C65   1   -0.050842    0.637770    0.904878    11.00000    0.03372    0.03045 =
         0.06846    0.02139   -0.01847   -0.02108
C66   1    0.049520    0.590421    0.891235    11.00000    0.04428    0.04564 =
         0.06872    0.01333   -0.02360   -0.03016
AFIX  43
H66A  2    0.084542    0.621692    0.888054    11.00000   -1.20000
AFIX  66
N3    3   -0.061142    1.009447    0.712919    11.00000    0.13472    0.05057 =
         0.18098    0.00939   -0.03932   -0.04148
C67   1   -0.033577    1.025084    0.769633    11.00000    0.08779    0.12488 =
         0.19195   -0.01718   -0.01537   -0.06547
AFIX  43
H67A  2   -0.074848    1.077282    0.804007    11.00000   -1.20000
AFIX  65
C68   1    0.055674    0.962705    0.774969    11.00000    0.11119    0.08676 =
         0.15818   -0.00795   -0.01577   -0.05932
AFIX  43
H68A  2    0.074117    0.973167    0.812914    11.00000   -1.20000
AFIX  65
C69   1    0.117360    0.884688    0.723592    11.00000    0.09944    0.09231 =
         0.17553   -0.00609    0.02452   -0.05249
C70   1    0.089795    0.869050    0.666879    11.00000    0.12915    0.06154 =
         0.07386   -0.00632    0.04218   -0.00270
AFIX  43
H70A  2    0.131067    0.816851    0.632504    11.00000   -1.20000
AFIX  65
C71   1    0.000545    0.931429    0.661541    11.00000    0.15795    0.07357 =
         0.11883    0.00556    0.01081   -0.00792
AFIX  43
H71A  2   -0.017897    0.920966    0.623595    11.00000   -1.20000
AFIX   0
C72   1    0.223881    0.823369    0.714866    11.00000    0.22194    0.12062 =
         0.33029   -0.05940   -0.12311    0.04762
AFIX  43
H72A  2    0.250415    0.851685    0.733960    11.00000   -1.20000
AFIX   0
C73   1    0.282310    0.745822    0.688653    11.00000    0.21358    0.17617 =
         0.31063   -0.11917   -0.15700    0.07398
AFIX  43
H73A  2    0.268122    0.724159    0.652980    11.00000   -1.20000
AFIX  66
C74   1    0.370981    0.678463    0.701122    11.00000    0.16518    0.10909 =
         0.31937    0.00795   -0.11693   -0.01233
C75   1    0.407353    0.699314    0.749353    11.00000    0.22654    0.12868 =
         0.35420    0.02431   -0.18364    0.00235
AFIX  43
H75A  2    0.374845    0.756991    0.775316    11.00000   -1.20000
AFIX  65
C76   1    0.492311    0.633960    0.758778    11.00000    0.15621    0.14240 =
         0.39164   -0.02883   -0.13494    0.01522
AFIX  43
H76A  2    0.516645    0.647911    0.791048    11.00000   -1.20000
AFIX  65
N4    3    0.540898    0.547755    0.719972    11.00000    0.12461    0.08486 =
         0.35002    0.03445   -0.04593   -0.04647
C77   1    0.504528    0.526903    0.671742    11.00000    0.10634    0.07778 =
         0.25515    0.02935    0.01753   -0.04365
AFIX  43
H77A  2    0.537036    0.469225    0.645778    11.00000   -1.20000
AFIX  65
C78   1    0.419570    0.592256    0.662316    11.00000    0.14251    0.09349 =
         0.21722    0.05557   -0.01355   -0.05770
AFIX  43
H78A  2    0.395236    0.578304    0.630046    11.00000   -1.20000


OMIT    -2  -1   2
OMIT     1   7   0
OMIT    -2   6   2
OMIT     2   1   4
OMIT    -1   5   0
OMIT     2   0   3
OMIT     3   4   3
OMIT     2   1   3
OMIT    -3   5   0
OMIT    -4  -6   6
OMIT     2 -10   7
OMIT     4   6   1
OMIT    -5  -8   5
OMIT     0   6   2
OMIT    -5  -7   1
OMIT     4  -3   7
OMIT     2   8   2
OMIT     2  -6   6
OMIT    -1  -2   1
OMIT    -5  -9   4
OMIT     1  -1   9
OMIT     0   3   3
OMIT    -2   4   2
OMIT    -1  -7   4
OMIT    -4  -9   1
OMIT     7   9   2
OMIT    -2  -7   1
OMIT     0 -12   5
OMIT     1  -6   1
OMIT     7   0   6
OMIT     5   3   5
OMIT    -9 -10   1
OMIT     0   7   2
OMIT     8  -7  12
OMIT     1   1   3
OMIT     5  -3   6
OMIT    -3   6   3
OMIT    15   8   6
OMIT    -3   2   2
OMIT     3  -7   7
OMIT     5   2   7
OMIT     6  -3   8
OMIT     6  -1   4
OMIT    -6  -2   1
OMIT     4   1   2
OMIT     1  -5   4
OMIT     4   5   2
OMIT    -7 -15   1
OMIT     4   4   5
OMIT     3   1   3

AFIX   0
HKLF 4




REM  B181001B_0m_a_a.res in P-1
REM R1 =  0.0949 for   10040 Fo > 4sig(Fo)  and  0.1899 for all   21854 data
REM    868 parameters refined using    131 restraints

END

WGHT      0.1360     15.2866

REM Highest difference peak  2.197,  deepest hole -2.056,  1-sigma level  0.158
Q1    1   0.3119  0.8088  0.6581  11.00000  0.05    2.20
Q2    1   0.4659  0.5373  0.6433  11.00000  0.05    1.61
Q3    1  -0.2630  1.0651  0.9555  11.00000  0.05    1.23
Q4    1   0.4397  0.6163  0.8436  11.00000  0.05    1.21
Q5    1   0.2015  0.8234  0.7364  11.00000  0.05    1.15
Q6    1   0.3777  0.7199  0.8620  11.00000  0.05    1.04
Q7    1   0.0958  0.8793  0.6864  11.00000  0.05    1.04
Q8    1   0.7928  0.3815  0.6079  11.00000  0.05    1.00
Q9    1   0.6619  0.1652  0.8822  11.00000  0.05    1.00
Q10   1  -0.3452  1.0519  0.9712  11.00000  0.05    0.96
Q11   1   0.8164  0.1616  0.7777  11.00000  0.05    0.93
Q12   1   0.5287  0.5863  0.7932  11.00000  0.05    0.88
Q13   1   0.6641  0.4500  0.7037  11.00000  0.05    0.86
Q14   1   0.3984  0.7689  0.8221  11.00000  0.05    0.85
Q15   1  -0.3793  0.3514  0.9396  11.00000  0.05    0.83
Q16   1   0.2119  0.7426  0.7622  11.00000  0.05    0.82
Q17   1   0.7373  0.1539  0.7874  11.00000  0.05    0.81
Q18   1   0.7637  0.2745  0.6807  11.00000  0.05    0.81
Q19   1   0.5782  0.3597  0.8801  11.00000  0.05    0.79
Q20   1   1.4168  0.1677  0.1081  11.00000  0.05    0.75
;
_shelx_res_checksum              21484
_shelx_fab_file
;
    2    0    0     35.00      0.00
    3    0    0    -47.60      0.00
    4    0    0     12.87      0.00
    5    0    0    -16.23      0.00
    6    0    0     39.56      0.00
    7    0    0      6.13      0.00
    8    0    0    -10.62      0.00
    9    0    0     13.34      0.00
   10    0    0     -9.78      0.00
   11    0    0      1.74      0.00
   12    0    0      2.07      0.00
   13    0    0     -2.79      0.00
   14    0    0     -1.75      0.00
   15    0    0      0.32      0.00
   16    0    0     -7.26      0.00
   17    0    0     -0.72      0.00
   18    0    0      0.31      0.00
  -17    1    0      2.79      0.00
  -16    1    0     -5.65      0.00
  -15    1    0     -4.76      0.00
  -14    1    0     -4.16      0.00
  -13    1    0     -1.22      0.00
  -12    1    0     -3.25      0.00
  -11    1    0     -0.71      0.00
  -10    1    0      4.96      0.00
   -9    1    0      9.65      0.00
   -8    1    0      8.09      0.00
   -7    1    0      7.61      0.00
   -6    1    0      8.67      0.00
   -5    1    0    -56.69      0.00
   -4    1    0     48.93      0.00
   -3    1    0     14.38      0.00
   -2    1    0     61.72      0.00
   -1    1    0     -8.99      0.00
    2    1    0     74.04      0.00
    3    1    0     74.96      0.00
    4    1    0     27.18      0.00
    5    1    0    -25.57      0.00
    6    1    0    -11.91      0.00
    7    1    0     -1.36      0.00
    8    1    0      4.47      0.00
    9    1    0     -0.05      0.00
   10    1    0      6.25      0.00
   11    1    0     -2.05      0.00
   12    1    0     -5.29      0.00
   13    1    0     -0.40      0.00
   14    1    0     -3.13      0.00
   15    1    0     -0.69      0.00
   16    1    0      2.76      0.00
   17    1    0      2.35      0.00
   18    1    0      0.76      0.00
  -17    2    0      6.05      0.00
  -16    2    0     -1.65      0.00
  -15    2    0     -2.70      0.00
  -14    2    0     -4.19      0.00
  -13    2    0      1.83      0.00
  -12    2    0      2.68      0.00
  -11    2    0      1.34      0.00
  -10    2    0      0.37      0.00
   -9    2    0     -6.43      0.00
   -8    2    0     10.36      0.00
   -7    2    0      2.55      0.00
   -6    2    0     12.95      0.00
   -5    2    0      1.97      0.00
   -4    2    0     -7.41      0.00
   -3    2    0    -22.95      0.00
   -2    2    0     31.71      0.00
   -1    2    0    -63.21      0.00
    0    2    0    180.58      0.00
    1    2    0    -57.65      0.00
    2    2    0      9.52      0.00
    3    2    0      2.35      0.00
    4    2    0     54.56      0.00
    5    2    0    -16.97      0.00
    6    2    0     33.63      0.00
    7    2    0     -2.13      0.00
    8    2    0    -14.59      0.00
    9    2    0      8.83      0.00
   10    2    0     -5.71      0.00
   11    2    0      1.03      0.00
   12    2    0      4.97      0.00
   13    2    0      0.52      0.00
   14    2    0      1.47      0.00
   15    2    0      3.46      0.00
   16    2    0      4.85      0.00
   17    2    0      2.16      0.00
   18    2    0      4.72      0.00
  -16    3    0     -1.25      0.00
  -15    3    0      4.78      0.00
  -14    3    0     -3.71      0.00
  -13    3    0     -1.26      0.00
  -12    3    0      3.10      0.00
  -11    3    0     -1.00      0.00
  -10    3    0      6.15      0.00
   -9    3    0      4.14      0.00
   -8    3    0     -8.34      0.00
   -7    3    0     -2.78      0.00
   -6    3    0      6.83      0.00
   -5    3    0    -33.64      0.00
   -4    3    0     35.31      0.00
   -3    3    0     -9.47      0.00
   -2    3    0    -26.01      0.00
   -1    3    0     -3.42      0.00
    0    3    0     -5.35      0.00
    1    3    0    -82.31      0.00
    2    3    0    -38.63      0.00
    3    3    0     42.53      0.00
    4    3    0    -10.13      0.00
    5    3    0     48.62      0.00
    6    3    0     31.13      0.00
    7    3    0      1.60      0.00
    8    3    0     12.63      0.00
    9    3    0     -9.13      0.00
   10    3    0     -0.07      0.00
   11    3    0     -1.01      0.00
   12    3    0      3.89      0.00
   13    3    0     -2.47      0.00
   14    3    0      3.08      0.00
   15    3    0      3.79      0.00
   16    3    0      9.66      0.00
   17    3    0     -3.05      0.00
   18    3    0      2.23      0.00
   19    3    0      2.23      0.00
  -15    4    0      0.88      0.00
  -14    4    0      2.57      0.00
  -13    4    0      3.55      0.00
  -12    4    0     -0.17      0.00
  -11    4    0      2.10      0.00
  -10    4    0      3.18      0.00
   -9    4    0    -12.90      0.00
   -8    4    0     13.11      0.00
   -7    4    0     -1.12      0.00
   -6    4    0    -20.49      0.00
   -5    4    0     -7.37      0.00
   -4    4    0      6.69      0.00
   -3    4    0     -7.43      0.00
   -2    4    0      5.88      0.00
   -1    4    0     -2.31      0.00
    0    4    0    -38.58      0.00
    1    4    0    -21.90      0.00
    2    4    0     11.81      0.00
    3    4    0    -17.70      0.00
    4    4    0     32.36      0.00
    5    4    0    -18.12      0.00
    6    4    0     43.09      0.00
    7    4    0     -5.95      0.00
    8    4    0     26.38      0.00
    9    4    0      7.67      0.00
   10    4    0      5.56      0.00
   11    4    0    -13.14      0.00
   12    4    0      3.60      0.00
   13    4    0     -2.15      0.00
   14    4    0      0.81      0.00
   15    4    0      5.62      0.00
   16    4    0      0.31      0.00
   17    4    0     -1.41      0.00
   18    4    0     -1.17      0.00
   19    4    0      5.18      0.00
  -15    5    0     -1.48      0.00
  -14    5    0     -2.93      0.00
  -13    5    0     -1.55      0.00
  -12    5    0      1.49      0.00
  -11    5    0      2.80      0.00
  -10    5    0     -1.44      0.00
   -9    5    0     -2.87      0.00
   -8    5    0     -9.84      0.00
   -7    5    0      2.56      0.00
   -6    5    0      9.57      0.00
   -5    5    0     -0.84      0.00
   -4    5    0      0.68      0.00
   -3    5    0     -5.27      0.00
   -2    5    0    -24.85      0.00
   -1    5    0     10.58      0.00
    0    5    0     32.78      0.00
    1    5    0    -35.01      0.00
    2    5    0     -6.69      0.00
    3    5    0     -3.04      0.00
    4    5    0    -38.51      0.00
    5    5    0     11.26      0.00
    6    5    0     52.00      0.00
    7    5    0      2.83      0.00
    8    5    0      7.88      0.00
    9    5    0    -13.22      0.00
   10    5    0     -6.45      0.00
   11    5    0     -4.53      0.00
   12    5    0      9.34      0.00
   13    5    0     -7.64      0.00
   14    5    0     -3.70      0.00
   15    5    0      2.06      0.00
   16    5    0     -2.16      0.00
   17    5    0      3.51      0.00
   18    5    0      1.72      0.00
   19    5    0      4.01      0.00
  -14    6    0      2.44      0.00
  -13    6    0      3.63      0.00
  -12    6    0     -2.87      0.00
  -11    6    0     -5.15      0.00
  -10    6    0      0.94      0.00
   -9    6    0     -0.50      0.00
   -8    6    0      4.27      0.00
   -7    6    0      2.03      0.00
   -6    6    0    -13.69      0.00
   -5    6    0    -20.20      0.00
   -4    6    0     26.36      0.00
   -3    6    0      5.87      0.00
   -2    6    0     -0.30      0.00
   -1    6    0     14.41      0.00
    0    6    0    -49.29      0.00
    1    6    0    -32.70      0.00
    2    6    0     -4.71      0.00
    3    6    0     11.13      0.00
    4    6    0     11.36      0.00
    5    6    0    -18.03      0.00
    6    6    0    -11.57      0.00
    7    6    0    -27.32      0.00
    8    6    0     15.92      0.00
    9    6    0      3.30      0.00
   10    6    0      9.39      0.00
   11    6    0     -7.57      0.00
   12    6    0      2.56      0.00
   13    6    0     -5.03      0.00
   14    6    0      0.40      0.00
   15    6    0      1.05      0.00
   16    6    0     -8.31      0.00
   17    6    0      1.58      0.00
   18    6    0     -2.26      0.00
   19    6    0     -0.05      0.00
  -14    7    0     -2.33      0.00
  -13    7    0     -2.35      0.00
  -12    7    0     -2.61      0.00
  -11    7    0      6.13      0.00
  -10    7    0     -2.17      0.00
   -9    7    0     -3.76      0.00
   -8    7    0     -2.48      0.00
   -7    7    0     -5.01      0.00
   -6    7    0      4.76      0.00
   -5    7    0      8.23      0.00
   -4    7    0     -7.95      0.00
   -3    7    0     -9.65      0.00
   -2    7    0     -8.08      0.00
   -1    7    0      0.34      0.00
    0    7    0     19.50      0.00
    1    7    0    -15.41      0.00
    2    7    0    -23.34      0.00
    3    7    0    -16.49      0.00
    4    7    0    -11.52      0.00
    5    7    0     -5.67      0.00
    6    7    0     13.23      0.00
    7    7    0      4.15      0.00
    8    7    0     -4.62      0.00
    9    7    0    -10.92      0.00
   10    7    0     -3.50      0.00
   11    7    0      5.90      0.00
   12    7    0      7.87      0.00
   13    7    0      0.12      0.00
   14    7    0      4.13      0.00
   15    7    0      0.79      0.00
   16    7    0     -3.31      0.00
   17    7    0     -0.52      0.00
   18    7    0     -1.34      0.00
   19    7    0     -7.25      0.00
   20    7    0     -0.65      0.00
  -13    8    0      2.43      0.00
  -12    8    0      2.88      0.00
  -11    8    0      1.44      0.00
  -10    8    0     -3.47      0.00
   -9    8    0      1.03      0.00
   -8    8    0     -1.51      0.00
   -7    8    0     -2.03      0.00
   -6    8    0      2.96      0.00
   -5    8    0    -20.07      0.00
   -4    8    0     21.23      0.00
   -3    8    0     -2.51      0.00
   -2    8    0      3.66      0.00
   -1    8    0    -11.09      0.00
    0    8    0    -20.26      0.00
    1    8    0    -14.77      0.00
    2    8    0      3.14      0.00
    3    8    0      2.42      0.00
    4    8    0    -26.62      0.00
    5    8    0      9.35      0.00
    6    8    0    -16.45      0.00
    7    8    0      7.51      0.00
    8    8    0      9.08      0.00
    9    8    0     -7.46      0.00
   10    8    0      4.02      0.00
   11    8    0     12.27      0.00
   12    8    0      4.21      0.00
   13    8    0      0.25      0.00
   14    8    0      5.66      0.00
   15    8    0      1.29      0.00
   16    8    0      0.98      0.00
   17    8    0      1.49      0.00
   18    8    0      2.13      0.00
   19    8    0     -0.54      0.00
   20    8    0      1.88      0.00
  -12    9    0      2.75      0.00
  -11    9    0      7.13      0.00
  -10    9    0      1.43      0.00
   -9    9    0     -6.76      0.00
   -8    9    0     -3.54      0.00
   -7    9    0     -0.63      0.00
   -6    9    0      1.41      0.00
   -5    9    0      1.62      0.00
   -4    9    0     -3.54      0.00
   -3    9    0    -20.28      0.00
   -2    9    0      6.11      0.00
   -1    9    0      5.14      0.00
    0    9    0     -6.07      0.00
    1    9    0      8.26      0.00
    2    9    0      3.49      0.00
    3    9    0     -4.14      0.00
    4    9    0      2.72      0.00
    5    9    0     -1.01      0.00
    6    9    0     -8.80      0.00
    7    9    0      1.81      0.00
    8    9    0     12.25      0.00
    9    9    0     -5.66      0.00
   10    9    0      0.46      0.00
   11    9    0     11.55      0.00
   12    9    0      2.11      0.00
   13    9    0     -1.24      0.00
   14    9    0      7.26      0.00
   15    9    0     -3.04      0.00
   16    9    0     -0.09      0.00
   17    9    0     -1.72      0.00
   18    9    0      8.49      0.00
   19    9    0     -5.02      0.00
   20    9    0      0.02      0.00
  -11   10    0      3.87      0.00
  -10   10    0      1.10      0.00
   -9   10    0     -6.51      0.00
   -8   10    0     -0.95      0.00
   -7   10    0      1.80      0.00
   -6   10    0      3.33      0.00
   -5   10    0     -1.91      0.00
   -4   10    0      8.28      0.00
   -3   10    0     -7.69      0.00
   -2   10    0     -5.96      0.00
   -1   10    0    -21.95      0.00
    0   10    0     11.69      0.00
    1   10    0     -1.49      0.00
    2   10    0      2.57      0.00
    3   10    0     -2.34      0.00
    4   10    0     -4.96      0.00
    5   10    0     21.35      0.00
    6   10    0    -17.69      0.00
    7   10    0     -3.90      0.00
    8   10    0     -9.18      0.00
    9   10    0     -2.52      0.00
   10   10    0      0.86      0.00
   11   10    0     14.81      0.00
   12   10    0      1.76      0.00
   13   10    0     -5.15      0.00
   14   10    0      0.45      0.00
   15   10    0     -2.86      0.00
   16   10    0      2.52      0.00
   17   10    0      0.24      0.00
   18   10    0      6.00      0.00
   19   10    0      6.48      0.00
   20   10    0      1.50      0.00
  -10   11    0      3.02      0.00
   -9   11    0      1.46      0.00
   -8   11    0      3.69      0.00
   -7   11    0      1.37      0.00
   -6   11    0     -1.86      0.00
   -5   11    0     -9.76      0.00
   -4   11    0     -2.01      0.00
   -3   11    0      0.01      0.00
   -2   11    0      7.98      0.00
   -1   11    0      0.35      0.00
    0   11    0     -9.85      0.00
    1   11    0     -4.56      0.00
    2   11    0      7.37      0.00
    3   11    0      8.65      0.00
    4   11    0      6.17      0.00
    5   11    0     -2.81      0.00
    6   11    0     -8.21      0.00
    7   11    0    -13.71      0.00
    8   11    0      8.00      0.00
    9   11    0     -8.52      0.00
   10   11    0      4.99      0.00
   11   11    0     -4.77      0.00
   12   11    0      4.13      0.00
   13   11    0     -5.46      0.00
   14   11    0      7.71      0.00
   15   11    0     -7.25      0.00
   16   11    0      4.77      0.00
   17   11    0     -2.95      0.00
   18   11    0      4.39      0.00
   19   11    0      1.45      0.00
   20   11    0      0.21      0.00
  -10   12    0      2.35      0.00
   -9   12    0     -2.29      0.00
   -8   12    0     -0.70      0.00
   -7   12    0      1.79      0.00
   -6   12    0      5.20      0.00
   -5   12    0      9.98      0.00
   -4   12    0      2.49      0.00
   -3   12    0     -4.43      0.00
   -2   12    0     -4.96      0.00
   -1   12    0    -11.37      0.00
    0   12    0     13.44      0.00
    1   12    0     -4.44      0.00
    2   12    0      5.83      0.00
    3   12    0    -11.48      0.00
    4   12    0      2.03      0.00
    5   12    0      2.13      0.00
    6   12    0      9.93      0.00
    7   12    0     -6.01      0.00
    8   12    0     -3.03      0.00
    9   12    0     -7.25      0.00
   10   12    0     -1.06      0.00
   11   12    0     -0.43      0.00
   12   12    0     -0.27      0.00
   13   12    0      4.96      0.00
   14   12    0      0.27      0.00
   15   12    0     -5.99      0.00
   16   12    0     -2.11      0.00
   17   12    0      4.43      0.00
   18   12    0     -3.73      0.00
   19   12    0     -0.92      0.00
   20   12    0     -0.09      0.00
   -9   13    0      4.04      0.00
   -8   13    0      2.48      0.00
   -7   13    0     -3.41      0.00
   -6   13    0      1.62      0.00
   -5   13    0     -0.93      0.00
   -4   13    0      1.58      0.00
   -3   13    0     -0.34      0.00
   -2   13    0     -7.60      0.00
   -1   13    0     -1.80      0.00
    0   13    0      6.59      0.00
    1   13    0     -4.57      0.00
    2   13    0      5.12      0.00
    3   13    0      1.99      0.00
    4   13    0     10.57      0.00
    5   13    0     -8.37      0.00
    6   13    0     -6.86      0.00
    7   13    0     -1.85      0.00
    8   13    0      5.28      0.00
    9   13    0      0.38      0.00
   10   13    0      3.83      0.00
   11   13    0     -4.79      0.00
   12   13    0      2.33      0.00
   13   13    0      4.34      0.00
   14   13    0      4.87      0.00
   15   13    0     -1.71      0.00
   16   13    0     -1.71      0.00
   17   13    0     -7.36      0.00
   18   13    0      0.43      0.00
   19   13    0      0.37      0.00
   20   13    0     -0.58      0.00
   -8   14    0     -8.59      0.00
   -7   14    0     -5.50      0.00
   -6   14    0      6.62      0.00
   -5   14    0      4.83      0.00
   -4   14    0      1.92      0.00
   -3   14    0     -5.37      0.00
   -2   14    0     -0.01      0.00
   -1   14    0     -1.40      0.00
    0   14    0      1.32      0.00
    1   14    0     -3.19      0.00
    2   14    0      1.80      0.00
    3   14    0     -7.15      0.00
    4   14    0      3.21      0.00
    6   14    0      2.38      0.00
    7   14    0      1.60      0.00
    8   14    0     -4.85      0.00
    9   14    0     -6.73      0.00
   10   14    0      2.73      0.00
   11   14    0     -0.95      0.00
   12   14    0     -4.79      0.00
   13   14    0      2.75      0.00
   14   14    0     -1.76      0.00
   15   14    0      3.38      0.00
   16   14    0     -2.78      0.00
   17   14    0      5.29      0.00
   18   14    0     -7.73      0.00
   19   14    0      7.07      0.00
   20   14    0     -1.26      0.00
   -6   15    0      4.22      0.00
   -5   15    0     -1.72      0.00
   -4   15    0      4.43      0.00
   -3   15    0     -1.97      0.00
   -2   15    0     -3.05      0.00
   -1   15    0     -3.66      0.00
    0   15    0      6.58      0.00
    1   15    0     -3.72      0.00
    2   15    0      3.91      0.00
    3   15    0     -6.22      0.00
    4   15    0      2.86      0.00
    5   15    0     -4.82      0.00
    6   15    0     -3.70      0.00
    7   15    0     -0.56      0.00
    8   15    0     -0.76      0.00
    9   15    0     -4.33      0.00
   10   15    0      2.98      0.00
   11   15    0      7.93      0.00
   12   15    0     -5.48      0.00
   13   15    0     -3.93      0.00
   14   15    0     -3.23      0.00
   15   15    0     -0.36      0.00
   16   15    0      0.10      0.00
   17   15    0      4.58      0.00
   18   15    0      0.49      0.00
   19   15    0      0.97      0.00
   -5   16    0     -3.33      0.00
   -4   16    0     -0.15      0.00
   -3   16    0     -0.97      0.00
   -2   16    0     -1.81      0.00
   -1   16    0      3.05      0.00
    0   16    0     -3.48      0.00
    1   16    0     -1.21      0.00
    2   16    0     -4.59      0.00
    3   16    0     -2.42      0.00
    4   16    0      3.21      0.00
    5   16    0     -6.41      0.00
    6   16    0     -6.06      0.00
    7   16    0     -0.28      0.00
    8   16    0      4.33      0.00
    9   16    0     -8.34      0.00
   10   16    0      5.11      0.00
   11   16    0     -6.63      0.00
   12   16    0     -2.11      0.00
   13   16    0      1.30      0.00
   14   16    0      1.50      0.00
   15   16    0      4.47      0.00
   16   16    0     -9.11      0.00
   17   16    0      4.08      0.00
   18   16    0     -4.03      0.00
   19   16    0      4.90      0.00
   -4   17    0      2.79      0.00
   -3   17    0     -0.93      0.00
   -2   17    0     -0.42      0.00
   -1   17    0      4.04      0.00
    0   17    0      4.23      0.00
    1   17    0      0.59      0.00
    2   17    0     -6.82      0.00
    3   17    0     -3.84      0.00
    4   17    0     -0.40      0.00
    5   17    0     -4.48      0.00
    6   17    0      3.59      0.00
    7   17    0      1.30      0.00
    8   17    0     -2.31      0.00
    9   17    0     -4.13      0.00
   10   17    0     -1.85      0.00
   11   17    0      1.88      0.00
   12   17    0     -0.86      0.00
   13   17    0      0.75      0.00
   14   17    0     -7.23      0.00
   15   17    0     -0.91      0.00
   16   17    0     -4.79      0.00
   17   17    0     -1.98      0.00
   18   17    0     -2.99      0.00
   19   17    0      6.35      0.00
   -3   18    0      8.71      0.00
   -2   18    0     -5.83      0.00
   -1   18    0      0.46      0.00
    0   18    0      1.45      0.00
    1   18    0     -1.18      0.00
    2   18    0     -1.39      0.00
    3   18    0      0.22      0.00
    4   18    0     -2.01      0.00
    5   18    0     -0.94      0.00
    6   18    0     -5.05      0.00
    7   18    0      3.24      0.00
    8   18    0      2.18      0.00
    9   18    0      4.64      0.00
   10   18    0     -2.37      0.00
   11   18    0     -9.95      0.00
   12   18    0     -1.32      0.00
   13   18    0     -7.37      0.00
   14   18    0     -4.38      0.00
   15   18    0      2.03      0.00
   16   18    0      0.25      0.00
   17   18    0      1.48      0.00
   18   18    0     -1.04      0.00
   -1   19    0      3.44      0.00
    0   19    0      6.09      0.00
    1   19    0    -14.23      0.00
    2   19    0     -2.55      0.00
    3   19    0     -0.30      0.00
    4   19    0     -2.94      0.00
    5   19    0     -1.37      0.00
    6   19    0      2.51      0.00
    7   19    0     -0.98      0.00
    8   19    0      0.30      0.00
    9   19    0     -4.54      0.00
   10   19    0     -0.86      0.00
   11   19    0     -3.27      0.00
   12   19    0      3.01      0.00
   13   19    0      0.60      0.00
   14   19    0    -11.30      0.00
   15   19    0      0.46      0.00
   16   19    0      4.32      0.00
   17   19    0      1.66      0.00
    1   20    0     -7.57      0.00
    2   20    0     -0.63      0.00
    3   20    0      1.32      0.00
    4   20    0      3.24      0.00
    5   20    0     -0.72      0.00
    6   20    0     -3.99      0.00
    7   20    0      0.90      0.00
    8   20    0     -0.43      0.00
    9   20    0     -0.25      0.00
   10   20    0     -3.10      0.00
   11   20    0     -3.18      0.00
   12   20    0     -3.53      0.00
   13   20    0     -6.60      0.00
   14   20    0     -1.03      0.00
   15   20    0      3.51      0.00
   16   20    0      3.22      0.00
   17   20    0     -0.84      0.00
    3   21    0      0.50      0.00
    4   21    0     -6.74      0.00
    5   21    0     -0.15      0.00
    6   21    0      2.70      0.00
    7   21    0      6.99      0.00
    8   21    0     -2.38      0.00
    9   21    0     -7.79      0.00
   10   21    0     -1.47      0.00
   11   21    0      2.57      0.00
   12   21    0      3.29      0.00
   13   21    0     -2.28      0.00
   14   21    0     -4.05      0.00
   15   21    0     -2.04      0.00
    6   22    0     -0.09      0.00
    7   22    0      7.25      0.00
    8   22    0     -0.18      0.00
    9   22    0     -1.03      0.00
   10   22    0     -2.42      0.00
   11   22    0      3.18      0.00
   12   22    0     -0.60      0.00
   13   22    0     -0.40      0.00
  -13  -22    1      0.49      0.00
  -12  -22    1      3.59      0.00
  -11  -22    1     -0.88      0.00
  -10  -22    1      0.45      0.00
   -9  -22    1     -1.96      0.00
   -8  -22    1      1.68      0.00
   -7  -22    1      3.88      0.00
   -6  -22    1      1.01      0.00
  -15  -21    1     -3.49      0.00
  -14  -21    1      1.83      0.00
  -13  -21    1     -3.97      0.00
  -12  -21    1      3.35      0.00
  -11  -21    1      4.23      0.00
  -10  -21    1      3.26      0.00
   -9  -21    1      3.54      0.00
   -8  -21    1     -0.11      0.00
   -7  -21    1     -0.78      0.00
   -6  -21    1      4.59      0.00
   -5  -21    1      5.73      0.00
   -4  -21    1      0.33      0.00
   -3  -21    1      0.14      0.00
  -16  -20    1     -0.49      0.00
  -15  -20    1     -2.16      0.00
  -14  -20    1      5.82      0.00
  -13  -20    1      1.38      0.00
  -12  -20    1      2.73      0.00
  -11  -20    1      3.32      0.00
  -10  -20    1      1.24      0.00
   -9  -20    1     -2.22      0.00
   -8  -20    1      0.70      0.00
   -7  -20    1      2.81      0.00
   -6  -20    1      2.24      0.00
   -5  -20    1     -1.07      0.00
   -4  -20    1     -2.04      0.00
   -3  -20    1     -1.38      0.00
   -2  -20    1      0.76      0.00
   -1  -20    1     -6.47      0.00
  -17  -19    1     -1.98      0.00
  -16  -19    1      4.01      0.00
  -15  -19    1      6.26      0.00
  -14  -19    1      5.48      0.00
  -13  -19    1    -10.24      0.00
  -12  -19    1      2.66      0.00
  -11  -19    1      1.89      0.00
  -10  -19    1      1.00      0.00
   -9  -19    1      8.28      0.00
   -8  -19    1     -3.36      0.00
   -7  -19    1      2.55      0.00
   -6  -19    1     -1.69      0.00
   -5  -19    1      4.79      0.00
   -4  -19    1      2.83      0.00
   -3  -19    1      2.42      0.00
   -2  -19    1      5.73      0.00
   -1  -19    1      0.86      0.00
    0  -19    1     -4.17      0.00
    1  -19    1     -2.47      0.00
  -18  -18    1     -0.06      0.00
  -17  -18    1      3.12      0.00
  -16  -18    1      0.14      0.00
  -15  -18    1      7.03      0.00
  -14  -18    1     -1.98      0.00
  -13  -18    1     -1.06      0.00
  -12  -18    1      4.85      0.00
  -11  -18    1      3.35      0.00
  -10  -18    1     -8.81      0.00
   -9  -18    1      2.65      0.00
   -8  -18    1      4.76      0.00
   -7  -18    1      2.89      0.00
   -6  -18    1     -0.40      0.00
   -5  -18    1      1.46      0.00
   -4  -18    1     -1.75      0.00
   -3  -18    1      2.89      0.00
   -2  -18    1      3.78      0.00
   -1  -18    1      4.66      0.00
    0  -18    1      8.88      0.00
    1  -18    1      3.60      0.00
    2  -18    1     -3.61      0.00
    3  -18    1     -2.92      0.00
  -18  -17    1     -0.15      0.00
  -17  -17    1      0.88      0.00
  -16  -17    1     -3.37      0.00
  -15  -17    1      7.41      0.00
  -14  -17    1      0.02      0.00
  -13  -17    1     -7.96      0.00
  -12  -17    1      1.37      0.00
  -11  -17    1     -0.40      0.00
  -10  -17    1      2.72      0.00
   -9  -17    1      1.04      0.00
   -8  -17    1      5.47      0.00
   -7  -17    1     -1.68      0.00
   -6  -17    1     -0.73      0.00
   -5  -17    1      4.68      0.00
   -4  -17    1      6.11      0.00
   -3  -17    1      3.30      0.00
   -2  -17    1      2.02      0.00
   -1  -17    1     -0.38      0.00
    0  -17    1      2.47      0.00
    1  -17    1      2.83      0.00
    2  -17    1      4.01      0.00
    3  -17    1      1.76      0.00
    4  -17    1     -0.04      0.00
  -19  -16    1     -0.25      0.00
  -18  -16    1     -2.27      0.00
  -17  -16    1      0.51      0.00
  -16  -16    1     -5.77      0.00
  -15  -16    1      0.14      0.00
  -14  -16    1     -1.49      0.00
  -13  -16    1      5.80      0.00
  -12  -16    1      6.69      0.00
  -11  -16    1     11.23      0.00
  -10  -16    1     -1.63      0.00
   -9  -16    1     -3.78      0.00
   -8  -16    1     -2.35      0.00
   -7  -16    1      3.88      0.00
   -6  -16    1      5.76      0.00
   -5  -16    1      0.75      0.00
   -4  -16    1      4.29      0.00
   -3  -16    1     -0.18      0.00
   -2  -16    1      1.32      0.00
   -1  -16    1     -0.48      0.00
    0  -16    1      0.61      0.00
    1  -16    1     -0.60      0.00
    2  -16    1      3.51      0.00
    3  -16    1      1.82      0.00
    4  -16    1      1.34      0.00
    5  -16    1     -0.07      0.00
    6  -16    1     -6.11      0.00
  -19  -15    1      1.17      0.00
  -18  -15    1     -5.78      0.00
  -17  -15    1      4.97      0.00
  -16  -15    1     -2.71      0.00
  -15  -15    1      4.20      0.00
  -14  -15    1     -0.56      0.00
  -13  -15    1      1.85      0.00
  -12  -15    1     -3.32      0.00
  -11  -15    1      0.61      0.00
  -10  -15    1      8.13      0.00
   -9  -15    1     -0.72      0.00
   -8  -15    1      5.29      0.00
   -7  -15    1      3.24      0.00
   -6  -15    1      5.19      0.00
   -4  -15    1      6.09      0.00
   -3  -15    1     -0.33      0.00
   -2  -15    1     -2.57      0.00
   -1  -15    1     -1.32      0.00
    0  -15    1     -2.85      0.00
    1  -15    1      5.04      0.00
    2  -15    1     -2.75      0.00
    3  -15    1     -2.69      0.00
    4  -15    1      2.54      0.00
    5  -15    1     -1.37      0.00
    6  -15    1      1.91      0.00
    7  -15    1     -3.16      0.00
  -19  -14    1      4.92      0.00
  -18  -14    1     -4.46      0.00
  -17  -14    1     -0.36      0.00
  -16  -14    1     -0.35      0.00
  -15  -14    1      3.98      0.00
  -14  -14    1      1.12      0.00
  -13  -14    1      1.47      0.00
  -12  -14    1     -2.94      0.00
  -11  -14    1     -0.55      0.00
  -10  -14    1      3.08      0.00
   -9  -14    1      0.17      0.00
   -8  -14    1      0.61      0.00
   -7  -14    1     -1.31      0.00
   -6  -14    1      1.68      0.00
   -5  -14    1      5.75      0.00
   -4  -14    1      1.99      0.00
   -3  -14    1      2.78      0.00
   -2  -14    1      3.59      0.00
   -1  -14    1     -0.46      0.00
    0  -14    1     -3.05      0.00
    1  -14    1      2.33      0.00
    2  -14    1     -7.15      0.00
    3  -14    1      8.47      0.00
    4  -14    1     -2.18      0.00
    5  -14    1     -0.06      0.00
    6  -14    1     -2.09      0.00
    7  -14    1      3.41      0.00
    8  -14    1     -2.41      0.00
  -20  -13    1      0.82      0.00
  -19  -13    1     -0.96      0.00
  -18  -13    1     -1.23      0.00
  -17  -13    1      2.18      0.00
  -16  -13    1     -6.50      0.00
  -15  -13    1     -1.44      0.00
  -14  -13    1     -0.89      0.00
  -13  -13    1     -0.58      0.00
  -12  -13    1      2.70      0.00
  -11  -13    1     -5.56      0.00
  -10  -13    1     -0.72      0.00
   -9  -13    1     -8.38      0.00
   -8  -13    1      6.48      0.00
   -7  -13    1      3.11      0.00
   -6  -13    1     18.05      0.00
   -5  -13    1     -5.98      0.00
   -4  -13    1     -4.63      0.00
   -3  -13    1      2.48      0.00
   -2  -13    1      7.77      0.00
   -1  -13    1      1.96      0.00
    0  -13    1     -3.88      0.00
    1  -13    1      0.57      0.00
    2  -13    1     -4.67      0.00
    3  -13    1     -0.90      0.00
    4  -13    1      5.46      0.00
    5  -13    1      0.70      0.00
    6  -13    1      0.84      0.00
    7  -13    1     -5.93      0.00
    8  -13    1     -4.90      0.00
    9  -13    1     -1.52      0.00
  -20  -12    1      7.53      0.00
  -19  -12    1      1.32      0.00
  -18  -12    1     -0.69      0.00
  -17  -12    1     -1.63      0.00
  -16  -12    1      1.94      0.00
  -15  -12    1      1.63      0.00
  -14  -12    1     -0.74      0.00
  -13  -12    1     -4.27      0.00
  -12  -12    1      1.86      0.00
  -11  -12    1     -6.00      0.00
  -10  -12    1     -1.33      0.00
   -9  -12    1     -5.65      0.00
   -8  -12    1     -2.23      0.00
   -7  -12    1    -12.00      0.00
   -6  -12    1      2.14      0.00
   -5  -12    1      7.60      0.00
   -4  -12    1      2.12      0.00
   -3  -12    1      8.97      0.00
   -2  -12    1     -0.27      0.00
   -1  -12    1    -10.43      0.00
    0  -12    1      4.36      0.00
    1  -12    1      9.17      0.00
    2  -12    1      1.82      0.00
    3  -12    1     -2.66      0.00
    4  -12    1    -10.02      0.00
    5  -12    1     -4.90      0.00
    6  -12    1      1.27      0.00
    7  -12    1      3.63      0.00
    8  -12    1      3.72      0.00
    9  -12    1      2.32      0.00
   10  -12    1     -1.12      0.00
  -20  -11    1      2.78      0.00
  -19  -11    1     -4.99      0.00
  -18  -11    1      4.14      0.00
  -17  -11    1     -4.26      0.00
  -16  -11    1      1.57      0.00
  -15  -11    1     -0.49      0.00
  -14  -11    1     -4.82      0.00
  -13  -11    1     -3.86      0.00
  -12  -11    1     -4.46      0.00
  -11  -11    1      2.56      0.00
  -10  -11    1    -13.42      0.00
   -9  -11    1     -4.68      0.00
   -8  -11    1     -5.33      0.00
   -7  -11    1     -2.44      0.00
   -6  -11    1      5.22      0.00
   -5  -11    1      2.87      0.00
   -4  -11    1     -9.85      0.00
   -3  -11    1     -9.15      0.00
   -2  -11    1      9.05      0.00
   -1  -11    1     -6.09      0.00
    0  -11    1      7.34      0.00
    1  -11    1    -14.78      0.00
    2  -11    1      8.01      0.00
    3  -11    1      0.91      0.00
    4  -11    1      5.39      0.00
    5  -11    1     -2.33      0.00
    6  -11    1     -2.89      0.00
    7  -11    1     -5.58      0.00
    8  -11    1      0.35      0.00
    9  -11    1     -3.53      0.00
   10  -11    1      4.17      0.00
   11  -11    1      2.18      0.00
  -20  -10    1     -0.84      0.00
  -19  -10    1     -3.34      0.00
  -18  -10    1      5.86      0.00
  -17  -10    1      0.68      0.00
  -16  -10    1      0.60      0.00
  -15  -10    1      6.86      0.00
  -14  -10    1     -0.18      0.00
  -13  -10    1     -0.79      0.00
  -12  -10    1     -5.77      0.00
  -11  -10    1      7.10      0.00
  -10  -10    1    -11.68      0.00
   -9  -10    1      2.33      0.00
   -8  -10    1      2.70      0.00
   -7  -10    1     -8.16      0.00
   -6  -10    1    -11.63      0.00
   -5  -10    1     -3.30      0.00
   -4  -10    1      5.57      0.00
   -3  -10    1      4.78      0.00
   -2  -10    1      3.86      0.00
   -1  -10    1    -10.12      0.00
    0  -10    1      7.45      0.00
    1  -10    1     10.02      0.00
    2  -10    1      4.57      0.00
    3  -10    1    -17.79      0.00
    4  -10    1      1.08      0.00
    5  -10    1     -3.56      0.00
    6  -10    1     -1.41      0.00
    7  -10    1      0.57      0.00
    8  -10    1      2.21      0.00
    9  -10    1     -0.73      0.00
   10  -10    1     -0.76      0.00
   11  -10    1      1.69      0.00
   12  -10    1      2.68      0.00
  -20   -9    1      2.01      0.00
  -19   -9    1     -4.41      0.00
  -18   -9    1      0.85      0.00
  -17   -9    1     -2.02      0.00
  -16   -9    1      2.17      0.00
  -15   -9    1      2.04      0.00
  -14   -9    1     -2.16      0.00
  -13   -9    1      1.24      0.00
  -12   -9    1     -0.96      0.00
  -11   -9    1      9.12      0.00
  -10   -9    1     -8.08      0.00
   -9   -9    1      1.28      0.00
   -8   -9    1     -2.82      0.00
   -7   -9    1      5.46      0.00
   -6   -9    1      4.27      0.00
   -5   -9    1      4.67      0.00
   -4   -9    1     -6.41      0.00
   -3   -9    1      1.61      0.00
   -2   -9    1     13.63      0.00
   -1   -9    1    -12.24      0.00
    0   -9    1     24.23      0.00
    1   -9    1    -10.54      0.00
    2   -9    1     20.51      0.00
    3   -9    1      0.27      0.00
    4   -9    1      2.28      0.00
    5   -9    1     -6.96      0.00
    6   -9    1      0.53      0.00
    7   -9    1     -3.41      0.00
    8   -9    1      2.77      0.00
    9   -9    1     -5.93      0.00
   10   -9    1     -6.52      0.00
   11   -9    1      3.85      0.00
   12   -9    1      0.62      0.00
  -20   -8    1     -0.99      0.00
  -19   -8    1     -3.79      0.00
  -18   -8    1     -0.14      0.00
  -17   -8    1      2.14      0.00
  -16   -8    1      0.21      0.00
  -15   -8    1      7.00      0.00
  -14   -8    1      1.06      0.00
  -13   -8    1      4.96      0.00
  -12   -8    1     -3.37      0.00
  -11   -8    1      1.02      0.00
  -10   -8    1     -6.61      0.00
   -9   -8    1      8.01      0.00
   -8   -8    1     -8.57      0.00
   -7   -8    1      6.18      0.00
   -6   -8    1     13.50      0.00
   -5   -8    1    -11.51      0.00
   -4   -8    1     -0.30      0.00
   -3   -8    1    -18.06      0.00
   -2   -8    1     12.10      0.00
   -1   -8    1      9.01      0.00
    0   -8    1     18.93      0.00
    1   -8    1      3.30      0.00
    2   -8    1      5.75      0.00
    3   -8    1     -6.88      0.00
    4   -8    1     10.98      0.00
    5   -8    1     10.34      0.00
    6   -8    1     -5.02      0.00
    7   -8    1     -5.93      0.00
    8   -8    1     -0.56      0.00
    9   -8    1     -4.63      0.00
   10   -8    1      2.39      0.00
   11   -8    1      2.94      0.00
   12   -8    1      0.48      0.00
   13   -8    1     -1.00      0.00
  -19   -7    1      0.23      0.00
  -18   -7    1     -3.94      0.00
  -17   -7    1     -2.19      0.00
  -16   -7    1     -0.93      0.00
  -15   -7    1      0.17      0.00
  -14   -7    1     -1.55      0.00
  -13   -7    1      1.17      0.00
  -12   -7    1     -1.00      0.00
  -11   -7    1     -3.66      0.00
  -10   -7    1     10.22      0.00
   -9   -7    1      6.13      0.00
   -8   -7    1     -4.46      0.00
   -7   -7    1    -18.66      0.00
   -6   -7    1      9.88      0.00
   -5   -7    1     -0.94      0.00
   -4   -7    1     -8.63      0.00
   -3   -7    1     18.13      0.00
   -2   -7    1     -9.48      0.00
   -1   -7    1    -33.32      0.00
    0   -7    1     -1.46      0.00
    1   -7    1     29.77      0.00
    2   -7    1     19.15      0.00
    3   -7    1     16.58      0.00
    4   -7    1      8.55      0.00
    5   -7    1    -24.38      0.00
    6   -7    1      6.93      0.00
    7   -7    1      2.84      0.00
    8   -7    1      1.51      0.00
    9   -7    1      0.68      0.00
   10   -7    1     -5.13      0.00
   11   -7    1     -1.51      0.00
   12   -7    1      1.49      0.00
   13   -7    1      1.55      0.00
   14   -7    1     -3.01      0.00
  -19   -6    1      3.37      0.00
  -18   -6    1     -7.35      0.00
  -17   -6    1      1.03      0.00
  -16   -6    1     -2.60      0.00
  -15   -6    1     -0.09      0.00
  -14   -6    1     -7.99      0.00
  -13   -6    1     -3.61      0.00
  -12   -6    1     -0.60      0.00
  -11   -6    1    -15.48      0.00
  -10   -6    1     -7.98      0.00
   -9   -6    1      3.99      0.00
   -8   -6    1     -5.86      0.00
   -7   -6    1     18.11      0.00
   -6   -6    1     17.97      0.00
   -5   -6    1    -49.77      0.00
   -4   -6    1    -39.50      0.00
   -3   -6    1     13.20      0.00
   -2   -6    1     12.02      0.00
   -1   -6    1     14.50      0.00
    0   -6    1     29.09      0.00
    1   -6    1     -8.81      0.00
    2   -6    1     -2.65      0.00
    3   -6    1      2.83      0.00
    4   -6    1      5.07      0.00
    5   -6    1     21.50      0.00
    6   -6    1      4.47      0.00
    7   -6    1    -12.06      0.00
    8   -6    1      7.59      0.00
    9   -6    1     -3.13      0.00
   10   -6    1      3.83      0.00
   11   -6    1      3.02      0.00
   12   -6    1     -5.94      0.00
   13   -6    1     -5.54      0.00
   14   -6    1      1.62      0.00
   15   -6    1      3.22      0.00
  -19   -5    1     -0.50      0.00
  -18   -5    1      0.29      0.00
  -17   -5    1     -3.68      0.00
  -16   -5    1      4.04      0.00
  -15   -5    1     -1.73      0.00
  -14   -5    1     -4.52      0.00
  -13   -5    1     -6.22      0.00
  -12   -5    1     -8.54      0.00
  -11   -5    1     -6.32      0.00
  -10   -5    1     15.06      0.00
   -9   -5    1      6.91      0.00
   -8   -5    1     -2.04      0.00
   -7   -5    1    -19.92      0.00
   -6   -5    1      7.86      0.00
   -5   -5    1     -5.90      0.00
   -4   -5    1    -16.19      0.00
   -3   -5    1     18.06      0.00
   -2   -5    1    -28.01      0.00
   -1   -5    1      5.17      0.00
    0   -5    1    -32.19      0.00
    1   -5    1     53.79      0.00
    2   -5    1      9.41      0.00
    3   -5    1     -1.89      0.00
    4   -5    1      9.60      0.00
    5   -5    1    -20.57      0.00
    6   -5    1      9.93      0.00
    7   -5    1     10.32      0.00
    8   -5    1     17.58      0.00
    9   -5    1     -8.31      0.00
   10   -5    1      2.96      0.00
   11   -5    1     -4.89      0.00
   12   -5    1     -2.17      0.00
   13   -5    1      2.69      0.00
   14   -5    1      3.10      0.00
   15   -5    1      1.01      0.00
  -19   -4    1      3.01      0.00
  -18   -4    1      0.22      0.00
  -17   -4    1     -1.00      0.00
  -16   -4    1      2.00      0.00
  -15   -4    1     -0.71      0.00
  -14   -4    1     -6.81      0.00
  -13   -4    1     -3.17      0.00
  -12   -4    1     -2.22      0.00
  -11   -4    1     -8.14      0.00
  -10   -4    1     -8.40      0.00
   -9   -4    1      1.54      0.00
   -8   -4    1      1.15      0.00
   -7   -4    1     24.44      0.00
   -6   -4    1     19.95      0.00
   -5   -4    1      6.13      0.00
   -4   -4    1    -41.85      0.00
   -3   -4    1     36.53      0.00
   -2   -4    1    -49.95      0.00
   -1   -4    1     13.74      0.00
    0   -4    1     32.48      0.00
    1   -4    1    -28.78      0.00
    2   -4    1     -8.93      0.00
    3   -4    1     -1.89      0.00
    4   -4    1     -1.60      0.00
    5   -4    1     -7.80      0.00
    6   -4    1     19.21      0.00
    7   -4    1    -23.56      0.00
    8   -4    1      9.88      0.00
    9   -4    1     -2.59      0.00
   10   -4    1     -0.57      0.00
   11   -4    1     -3.05      0.00
   12   -4    1     -0.52      0.00
   13   -4    1     -4.20      0.00
   14   -4    1      3.94      0.00
   15   -4    1      4.67      0.00
   16   -4    1      0.65      0.00
  -18   -3    1      4.43      0.00
  -17   -3    1     -4.72      0.00
  -16   -3    1      2.59      0.00
  -15   -3    1     -0.64      0.00
  -14   -3    1     -0.67      0.00
  -13   -3    1      3.99      0.00
  -12   -3    1     -2.13      0.00
  -11   -3    1      0.33      0.00
  -10   -3    1      9.48      0.00
   -9   -3    1      4.39      0.00
   -8   -3    1    -14.12      0.00
   -7   -3    1      7.94      0.00
   -6   -3    1     -4.85      0.00
   -5   -3    1     -7.79      0.00
   -4   -3    1     25.38      0.00
   -3   -3    1     19.61      0.00
   -2   -3    1    -46.87      0.00
   -1   -3    1     17.83      0.00
    0   -3    1    -63.15      0.00
    1   -3    1    -59.74      0.00
    2   -3    1    -39.22      0.00
    3   -3    1    -42.97      0.00
    4   -3    1     -5.76      0.00
    5   -3    1      5.03      0.00
    6   -3    1      1.65      0.00
    7   -3    1    -10.62      0.00
    8   -3    1     13.46      0.00
    9   -3    1    -17.01      0.00
   10   -3    1      5.45      0.00
   11   -3    1     -1.84      0.00
   12   -3    1      2.01      0.00
   13   -3    1      3.09      0.00
   14   -3    1     -0.34      0.00
   15   -3    1      2.15      0.00
   16   -3    1      2.98      0.00
  -18   -2    1      1.33      0.00
  -17   -2    1      3.37      0.00
  -16   -2    1     -0.31      0.00
  -15   -2    1      1.45      0.00
  -14   -2    1     -4.76      0.00
  -13   -2    1      3.16      0.00
  -12   -2    1     -4.73      0.00
  -11   -2    1      4.39      0.00
  -10   -2    1      8.97      0.00
   -9   -2    1     -6.25      0.00
   -8   -2    1    -13.56      0.00
   -7   -2    1    -13.53      0.00
   -6   -2    1    -16.08      0.00
   -5   -2    1     -3.16      0.00
   -4   -2    1      5.42      0.00
   -3   -2    1     56.86      0.00
   -2   -2    1    -24.37      0.00
   -1   -2    1   -102.24      0.00
    0   -2    1    -35.19      0.00
    1   -2    1   -115.69      0.00
    2   -2    1    -31.81      0.00
    3   -2    1    -23.89      0.00
    4   -2    1     -0.71      0.00
    5   -2    1    -44.78      0.00
    6   -2    1     17.56      0.00
    7   -2    1    -10.70      0.00
    8   -2    1      5.76      0.00
    9   -2    1      6.42      0.00
   10   -2    1     -5.62      0.00
   11   -2    1     -2.71      0.00
   12   -2    1      1.54      0.00
   13   -2    1      1.45      0.00
   14   -2    1     -0.17      0.00
   15   -2    1      2.15      0.00
   16   -2    1     -1.60      0.00
   17   -2    1      5.30      0.00
  -18   -1    1      2.99      0.00
  -17   -1    1     -3.19      0.00
  -16   -1    1      0.22      0.00
  -15   -1    1     -0.50      0.00
  -14   -1    1      2.39      0.00
  -13   -1    1      3.87      0.00
  -12   -1    1      1.35      0.00
  -11   -1    1     -3.02      0.00
  -10   -1    1      2.47      0.00
   -9   -1    1      0.90      0.00
   -8   -1    1    -22.67      0.00
   -7   -1    1      2.03      0.00
   -6   -1    1     -3.82      0.00
   -5   -1    1    -64.14      0.00
   -4   -1    1      1.29      0.00
   -3   -1    1    -24.84      0.00
   -2   -1    1     32.91      0.00
    1   -1    1   -228.22      0.00
    2   -1    1    -87.23      0.00
    3   -1    1    -53.62      0.00
    4   -1    1     -8.30      0.00
    5   -1    1     30.10      0.00
    6   -1    1     -2.26      0.00
    7   -1    1    -19.64      0.00
    8   -1    1     -1.19      0.00
    9   -1    1     -4.14      0.00
   10   -1    1     -4.53      0.00
   11   -1    1      6.83      0.00
   12   -1    1      1.52      0.00
   13   -1    1     -0.02      0.00
   14   -1    1      1.28      0.00
   15   -1    1     -0.08      0.00
   16   -1    1     -6.25      0.00
   17   -1    1      3.53      0.00
  -17    0    1     -0.03      0.00
  -16    0    1     -6.81      0.00
  -15    0    1     -2.85      0.00
  -14    0    1     -1.37      0.00
  -13    0    1      2.24      0.00
  -12    0    1     -5.60      0.00
  -11    0    1      3.24      0.00
  -10    0    1      9.97      0.00
   -9    0    1     -9.63      0.00
   -8    0    1     -0.47      0.00
   -7    0    1    -17.82      0.00
   -6    0    1    -16.46      0.00
   -5    0    1    -30.10      0.00
   -4    0    1     47.20      0.00
   -3    0    1      5.40      0.00
   -2    0    1    -10.65      0.00
   -1    0    1   -165.46      0.00
    2    0    1     60.68      0.00
    3    0    1    -15.11      0.00
    4    0    1     -7.12      0.00
    5    0    1    -60.74      0.00
    6    0    1     -7.01      0.00
    7    0    1      2.59      0.00
    8    0    1     -1.14      0.00
    9    0    1     -1.21      0.00
   10    0    1     -3.57      0.00
   11    0    1     -4.55      0.00
   12    0    1     -0.07      0.00
   13    0    1      1.47      0.00
   14    0    1     -4.13      0.00
   15    0    1      5.64      0.00
   16    0    1     -3.77      0.00
   17    0    1     -1.46      0.00
   18    0    1     -5.06      0.00
  -17    1    1     -0.47      0.00
  -16    1    1     -1.33      0.00
  -15    1    1     -3.95      0.00
  -14    1    1      2.55      0.00
  -13    1    1      0.34      0.00
  -12    1    1      2.38      0.00
  -11    1    1     -1.49      0.00
  -10    1    1     -1.03      0.00
   -9    1    1     -4.23      0.00
   -8    1    1     -2.05      0.00
   -7    1    1      0.16      0.00
   -6    1    1     13.02      0.00
   -5    1    1    -28.29      0.00
   -4    1    1    -20.31      0.00
   -3    1    1     -5.59      0.00
   -2    1    1      3.78      0.00
   -1    1    1    -18.54      0.00
    2    1    1    -23.68      0.00
    3    1    1    -15.49      0.00
    4    1    1     29.09      0.00
    5    1    1     10.16      0.00
    6    1    1    -14.43      0.00
    7    1    1    -37.27      0.00
    8    1    1    -13.44      0.00
    9    1    1     -1.91      0.00
   10    1    1    -14.03      0.00
   11    1    1      8.62      0.00
   12    1    1      1.80      0.00
   13    1    1     -3.05      0.00
   14    1    1      2.84      0.00
   15    1    1     -0.90      0.00
   16    1    1     -3.54      0.00
   17    1    1     -5.56      0.00
   18    1    1     -1.49      0.00
  -16    2    1      3.86      0.00
  -15    2    1      0.61      0.00
  -14    2    1     -5.32      0.00
  -13    2    1      0.66      0.00
  -12    2    1     -1.28      0.00
  -11    2    1      3.64      0.00
  -10    2    1      7.96      0.00
   -9    2    1     -5.63      0.00
   -8    2    1     -7.02      0.00
   -7    2    1      7.41      0.00
   -6    2    1     -8.54      0.00
   -5    2    1    -11.68      0.00
   -4    2    1     50.88      0.00
   -3    2    1    -43.57      0.00
   -2    2    1     -3.31      0.00
   -1    2    1    -71.83      0.00
    0    2    1    -99.88      0.00
    1    2    1    -38.32      0.00
    2    2    1     71.18      0.00
    3    2    1    -23.24      0.00
    4    2    1     29.22      0.00
    5    2    1      5.18      0.00
    6    2    1    -18.79      0.00
    7    2    1    -21.72      0.00
    8    2    1     -3.77      0.00
    9    2    1    -26.47      0.00
   10    2    1     -0.57      0.00
   11    2    1     -1.33      0.00
   12    2    1      1.21      0.00
   13    2    1      0.83      0.00
   14    2    1      4.11      0.00
   15    2    1      1.85      0.00
   16    2    1     -0.50      0.00
   17    2    1     -1.93      0.00
   18    2    1      1.85      0.00
   19    2    1      5.09      0.00
  -16    3    1     -0.59      0.00
  -15    3    1      2.64      0.00
  -14    3    1      1.80      0.00
  -13    3    1      2.29      0.00
  -12    3    1      2.46      0.00
  -11    3    1      2.48      0.00
  -10    3    1     -4.65      0.00
   -9    3    1     -0.89      0.00
   -8    3    1      5.84      0.00
   -7    3    1     -4.13      0.00
   -6    3    1    -11.50      0.00
   -5    3    1      2.19      0.00
   -4    3    1     -0.43      0.00
   -3    3    1      1.54      0.00
   -2    3    1      0.82      0.00
   -1    3    1    -52.39      0.00
    0    3    1     -4.88      0.00
    1    3    1    -42.77      0.00
    2    3    1     47.24      0.00
    3    3    1    -60.98      0.00
    4    3    1     51.72      0.00
    5    3    1    -15.30      0.00
    6    3    1     29.06      0.00
    7    3    1    -26.86      0.00
    8    3    1     11.17      0.00
    9    3    1     -8.79      0.00
   10    3    1     -9.01      0.00
   11    3    1      0.79      0.00
   12    3    1      3.63      0.00
   13    3    1     -1.60      0.00
   14    3    1      0.37      0.00
   15    3    1      1.30      0.00
   16    3    1     -0.10      0.00
   17    3    1      0.43      0.00
   18    3    1      0.06      0.00
   19    3    1      2.65      0.00
  -15    4    1      0.23      0.00
  -14    4    1     -0.29      0.00
  -13    4    1      1.87      0.00
  -12    4    1      1.51      0.00
  -11    4    1     -0.69      0.00
  -10    4    1      1.81      0.00
   -9    4    1      0.39      0.00
   -8    4    1    -10.97      0.00
   -7    4    1     25.88      0.00
   -6    4    1      3.80      0.00
   -5    4    1     -4.46      0.00
   -4    4    1     16.16      0.00
   -3    4    1    -31.79      0.00
   -2    4    1     -1.47      0.00
   -1    4    1     -4.35      0.00
    0    4    1     23.24      0.00
    1    4    1    -74.56      0.00
    2    4    1     97.83      0.00
    3    4    1    -59.43      0.00
    4    4    1     36.09      0.00
    5    4    1     26.28      0.00
    6    4    1     13.82      0.00
    7    4    1    -19.89      0.00
    8    4    1     13.91      0.00
    9    4    1    -14.24      0.00
   10    4    1      6.36      0.00
   11    4    1      5.92      0.00
   12    4    1      2.64      0.00
   13    4    1     -5.18      0.00
   14    4    1     -1.45      0.00
   15    4    1      3.02      0.00
   16    4    1     -0.14      0.00
   17    4    1      5.70      0.00
   18    4    1     -4.37      0.00
   19    4    1      3.36      0.00
  -15    5    1      0.36      0.00
  -14    5    1      3.93      0.00
  -13    5    1      3.35      0.00
  -12    5    1     -4.64      0.00
  -11    5    1      0.20      0.00
  -10    5    1     -1.68      0.00
   -9    5    1      0.64      0.00
   -8    5    1     -0.63      0.00
   -7    5    1      1.92      0.00
   -6    5    1     -9.25      0.00
   -5    5    1     19.02      0.00
   -4    5    1     22.27      0.00
   -3    5    1     -7.46      0.00
   -2    5    1      7.56      0.00
   -1    5    1    -27.66      0.00
    0    5    1     -3.72      0.00
    1    5    1     14.34      0.00
    2    5    1     66.77      0.00
    3    5    1     -3.47      0.00
    4    5    1     39.76      0.00
    5    5    1    -42.11      0.00
    6    5    1     -1.71      0.00
    7    5    1     -3.44      0.00
    8    5    1     36.14      0.00
    9    5    1      0.86      0.00
   10    5    1      2.05      0.00
   11    5    1     -9.05      0.00
   12    5    1     -2.54      0.00
   13    5    1     -3.78      0.00
   14    5    1     -3.22      0.00
   15    5    1     -0.20      0.00
   16    5    1     -7.39      0.00
   17    5    1      1.13      0.00
   18    5    1     -1.29      0.00
   19    5    1      3.16      0.00
  -14    6    1     -4.19      0.00
  -13    6    1      0.50      0.00
  -12    6    1      1.82      0.00
  -11    6    1     -1.26      0.00
  -10    6    1     -5.98      0.00
   -9    6    1      0.33      0.00
   -8    6    1     -1.61      0.00
   -7    6    1     11.03      0.00
   -6    6    1     16.81      0.00
   -5    6    1     -1.40      0.00
   -4    6    1     -3.79      0.00
   -3    6    1     -2.39      0.00
   -2    6    1     10.09      0.00
   -1    6    1      8.25      0.00
    0    6    1     50.22      0.00
    1    6    1    -41.06      0.00
    2    6    1     15.98      0.00
    3    6    1    -22.79      0.00
    4    6    1     32.66      0.00
    5    6    1     11.62      0.00
    6    6    1      6.66      0.00
    7    6    1    -11.89      0.00
    8    6    1     -8.13      0.00
    9    6    1    -16.11      0.00
   10    6    1      9.08      0.00
   11    6    1     11.09      0.00
   12    6    1     -2.33      0.00
   13    6    1     -8.46      0.00
   14    6    1     -3.48      0.00
   15    6    1     -0.12      0.00
   16    6    1     -6.06      0.00
   17    6    1     -1.31      0.00
   18    6    1     -3.98      0.00
   19    6    1     -1.23      0.00
   20    6    1     -0.92      0.00
  -13    7    1      5.16      0.00
  -12    7    1     -6.48      0.00
  -11    7    1     -4.95      0.00
  -10    7    1     -1.28      0.00
   -9    7    1      4.34      0.00
   -8    7    1      0.12      0.00
   -7    7    1      0.02      0.00
   -6    7    1     -7.07      0.00
   -5    7    1     -0.27      0.00
   -4    7    1     27.95      0.00
   -3    7    1     -5.64      0.00
   -2    7    1     14.01      0.00
   -1    7    1     -9.40      0.00
    0    7    1     -6.43      0.00
    1    7    1     19.51      0.00
    2    7    1      8.62      0.00
    3    7    1     -9.67      0.00
    4    7    1      5.29      0.00
    5    7    1    -12.58      0.00
    6    7    1    -21.11      0.00
    7    7    1     12.16      0.00
    8    7    1     25.58      0.00
    9    7    1    -18.92      0.00
   10    7    1     10.31      0.00
   11    7    1     -4.06      0.00
   12    7    1     -4.15      0.00
   13    7    1     -2.14      0.00
   14    7    1      2.53      0.00
   15    7    1     -1.94      0.00
   16    7    1     -2.77      0.00
   17    7    1     -4.34      0.00
   18    7    1      0.45      0.00
   19    7    1     -5.14      0.00
   20    7    1      2.10      0.00
  -13    8    1     -2.15      0.00
  -12    8    1     -1.39      0.00
  -11    8    1      0.58      0.00
  -10    8    1     -5.61      0.00
   -9    8    1     -3.47      0.00
   -8    8    1      3.02      0.00
   -7    8    1     -3.49      0.00
   -6    8    1      6.92      0.00
   -5    8    1     -1.84      0.00
   -4    8    1    -12.91      0.00
   -3    8    1      5.50      0.00
   -2    8    1     24.04      0.00
   -1    8    1     17.35      0.00
    0    8    1     18.43      0.00
    1    8    1     -3.48      0.00
    2    8    1    -12.59      0.00
    3    8    1     -9.94      0.00
    4    8    1     14.50      0.00
    5    8    1    -13.88      0.00
    6    8    1     -2.64      0.00
    7    8    1      7.62      0.00
    8    8    1     17.15      0.00
    9    8    1     -8.09      0.00
   10    8    1      5.22      0.00
   11    8    1      5.68      0.00
   12    8    1     -3.53      0.00
   13    8    1      1.21      0.00
   14    8    1      6.08      0.00
   15    8    1      0.10      0.00
   16    8    1     -0.74      0.00
   17    8    1      1.25      0.00
   18    8    1      0.77      0.00
   19    8    1     -5.92      0.00
   20    8    1     -3.08      0.00
  -12    9    1     -1.41      0.00
  -11    9    1     -1.81      0.00
  -10    9    1     -0.26      0.00
   -9    9    1      0.57      0.00
   -8    9    1     -1.04      0.00
   -7    9    1     -1.40      0.00
   -6    9    1      0.94      0.00
   -5    9    1     -1.39      0.00
   -4    9    1     13.88      0.00
   -3    9    1     -5.11      0.00
   -2    9    1     -6.42      0.00
   -1    9    1      8.04      0.00
    0    9    1     11.25      0.00
    1    9    1     15.11      0.00
    2    9    1      8.04      0.00
    3    9    1     -3.19      0.00
    4    9    1     -8.87      0.00
    5    9    1      8.82      0.00
    6    9    1    -20.93      0.00
    7    9    1      6.38      0.00
    8    9    1     12.81      0.00
    9    9    1     -4.30      0.00
   10    9    1     17.09      0.00
   11    9    1      1.56      0.00
   12    9    1      1.68      0.00
   13    9    1     -8.91      0.00
   14    9    1      6.69      0.00
   15    9    1     -1.30      0.00
   16    9    1      7.59      0.00
   17    9    1     -0.31      0.00
   18    9    1      4.07      0.00
   19    9    1      2.03      0.00
   20    9    1     -1.12      0.00
  -11   10    1     -0.82      0.00
  -10   10    1      4.28      0.00
   -9   10    1      0.48      0.00
   -8   10    1     -3.14      0.00
   -7   10    1     -2.15      0.00
   -6   10    1     -3.08      0.00
   -5   10    1     -3.87      0.00
   -4   10    1      0.50      0.00
   -3   10    1      0.86      0.00
   -2   10    1      5.43      0.00
   -1   10    1      1.23      0.00
    0   10    1     -9.64      0.00
    1   10    1     20.23      0.00
    2   10    1      2.48      0.00
    3   10    1      5.29      0.00
    4   10    1      0.85      0.00
    5   10    1    -13.08      0.00
    6   10    1     -6.12      0.00
    7   10    1     -5.54      0.00
    8   10    1     13.40      0.00
    9   10    1    -11.41      0.00
   10   10    1      3.22      0.00
   11   10    1     -2.46      0.00
   12   10    1      7.98      0.00
   13   10    1     -3.58      0.00
   14   10    1      1.24      0.00
   15   10    1     -6.58      0.00
   16   10    1      2.54      0.00
   17   10    1      0.78      0.00
   18   10    1     -1.18      0.00
   19   10    1      0.37      0.00
   20   10    1     -1.74      0.00
  -10   11    1      4.31      0.00
   -9   11    1     -0.63      0.00
   -8   11    1     -0.87      0.00
   -7   11    1      3.12      0.00
   -6   11    1      6.76      0.00
   -5   11    1     -2.17      0.00
   -4   11    1     -9.46      0.00
   -3   11    1     -8.83      0.00
   -2   11    1     -5.33      0.00
   -1   11    1      3.46      0.00
    0   11    1     14.61      0.00
    1   11    1     -5.71      0.00
    2   11    1     -6.65      0.00
    3   11    1     -8.07      0.00
    4   11    1     10.06      0.00
    5   11    1      4.18      0.00
    6   11    1     -4.26      0.00
    7   11    1     -7.63      0.00
    8   11    1     -3.30      0.00
    9   11    1     -4.75      0.00
   10   11    1      3.92      0.00
   11   11    1     -4.18      0.00
   12   11    1      2.23      0.00
   13   11    1     -7.76      0.00
   14   11    1     -0.63      0.00
   15   11    1     -7.64      0.00
   16   11    1      8.34      0.00
   17   11    1      1.47      0.00
   18   11    1      2.18      0.00
   19   11    1      4.01      0.00
   20   11    1      6.99      0.00
   -9   12    1      5.23      0.00
   -8   12    1     -3.04      0.00
   -7   12    1     -0.93      0.00
   -6   12    1     -5.44      0.00
   -5   12    1     -3.54      0.00
   -4   12    1     -1.51      0.00
   -3   12    1      2.09      0.00
   -2   12    1      2.93      0.00
   -1   12    1      0.33      0.00
    0   12    1     -0.95      0.00
    1   12    1      4.64      0.00
    2   12    1      1.55      0.00
    3   12    1      5.85      0.00
    4   12    1      0.45      0.00
    5   12    1    -12.47      0.00
    6   12    1      2.82      0.00
    7   12    1     11.97      0.00
    8   12    1      4.57      0.00
    9   12    1     -2.84      0.00
   10   12    1      1.60      0.00
   11   12    1     -7.45      0.00
   12   12    1     -1.64      0.00
   13   12    1     -3.72      0.00
   14   12    1      2.98      0.00
   15   12    1     -5.83      0.00
   16   12    1     -2.28      0.00
   17   12    1     -2.61      0.00
   18   12    1      0.31      0.00
   19   12    1      0.29      0.00
   20   12    1     -3.51      0.00
   -8   13    1      0.22      0.00
   -7   13    1      3.45      0.00
   -6   13    1      3.38      0.00
   -5   13    1     -1.00      0.00
   -4   13    1      0.06      0.00
   -3   13    1     -4.63      0.00
   -2   13    1      5.87      0.00
   -1   13    1    -11.00      0.00
    0   13    1      7.43      0.00
    1   13    1     -1.59      0.00
    2   13    1      0.88      0.00
    3   13    1     -5.18      0.00
    4   13    1     13.91      0.00
    5   13    1      6.38      0.00
    6   13    1      7.07      0.00
    7   13    1      7.33      0.00
    8   13    1     -5.70      0.00
    9   13    1      1.63      0.00
   10   13    1      1.72      0.00
   11   13    1     -1.20      0.00
   12   13    1     -3.54      0.00
   13   13    1      0.90      0.00
   14   13    1      3.68      0.00
   15   13    1     -2.65      0.00
   16   13    1      4.16      0.00
   17   13    1     -3.50      0.00
   18   13    1      0.22      0.00
   19   13    1      0.52      0.00
   20   13    1      0.09      0.00
   -7   14    1     -1.82      0.00
   -6   14    1     -3.63      0.00
   -5   14    1     -1.00      0.00
   -4   14    1      4.34      0.00
   -3   14    1     -0.10      0.00
   -2   14    1      0.01      0.00
   -1   14    1     -1.56      0.00
    0   14    1      5.50      0.00
    1   14    1     -2.88      0.00
    2   14    1      5.98      0.00
    3   14    1     -0.28      0.00
    4   14    1      8.26      0.00
    5   14    1     -1.59      0.00
    6   14    1      1.30      0.00
    7   14    1     15.62      0.00
    8   14    1      5.81      0.00
    9   14    1     -0.35      0.00
   10   14    1      4.20      0.00
   11   14    1     -1.48      0.00
   12   14    1     -5.44      0.00
   13   14    1     -0.96      0.00
   14   14    1      2.73      0.00
   15   14    1      4.13      0.00
   16   14    1      2.19      0.00
   17   14    1     -1.20      0.00
   18   14    1      0.34      0.00
   19   14    1     -2.20      0.00
   20   14    1      2.24      0.00
   -6   15    1      1.02      0.00
   -5   15    1      0.60      0.00
   -4   15    1      1.91      0.00
   -3   15    1     -1.79      0.00
   -2   15    1      7.14      0.00
   -1   15    1     -6.53      0.00
    0   15    1      2.44      0.00
    1   15    1     -0.87      0.00
    2   15    1      2.27      0.00
    3   15    1      0.86      0.00
    4   15    1     10.69      0.00
    5   15    1     -3.64      0.00
    6   15    1      5.31      0.00
    7   15    1      3.83      0.00
    8   15    1      2.18      0.00
    9   15    1     -1.36      0.00
   10   15    1      5.09      0.00
   11   15    1     -1.70      0.00
   12   15    1      4.65      0.00
   13   15    1     -0.51      0.00
   14   15    1      3.78      0.00
   15   15    1      0.36      0.00
   16   15    1      2.53      0.00
   17   15    1      6.51      0.00
   18   15    1      3.65      0.00
   19   15    1      2.28      0.00
   20   15    1      0.07      0.00
   -5   16    1      1.50      0.00
   -4   16    1     -1.54      0.00
   -3   16    1     -2.19      0.00
   -2   16    1     -1.93      0.00
   -1   16    1      1.43      0.00
    0   16    1      3.82      0.00
    1   16    1     -1.19      0.00
    2   16    1     -1.19      0.00
    3   16    1     -2.19      0.00
    4   16    1      5.36      0.00
    5   16    1      4.66      0.00
    6   16    1      5.53      0.00
    7   16    1      1.33      0.00
    8   16    1     -0.93      0.00
    9   16    1      0.12      0.00
   10   16    1      3.05      0.00
   11   16    1      6.49      0.00
   12   16    1      3.39      0.00
   13   16    1     -0.12      0.00
   14   16    1     -0.59      0.00
   15   16    1      1.37      0.00
   16   16    1     -0.51      0.00
   17   16    1      2.87      0.00
   18   16    1      0.24      0.00
   19   16    1      1.06      0.00
   -4   17    1      0.60      0.00
   -3   17    1      0.37      0.00
   -2   17    1      0.91      0.00
   -1   17    1      1.27      0.00
    0   17    1      2.10      0.00
    1   17    1      1.38      0.00
    2   17    1      2.13      0.00
    3   17    1     -1.28      0.00
    4   17    1      3.33      0.00
    5   17    1     -1.77      0.00
    6   17    1     -0.03      0.00
    7   17    1      7.84      0.00
    8   17    1      3.27      0.00
    9   17    1     -0.99      0.00
   10   17    1     -1.01      0.00
   11   17    1     -3.72      0.00
   12   17    1      3.88      0.00
   13   17    1      3.58      0.00
   14   17    1      5.59      0.00
   15   17    1      3.98      0.00
   16   17    1      2.57      0.00
   17   17    1      0.44      0.00
   18   17    1     -4.36      0.00
   19   17    1      1.51      0.00
   -2   18    1      4.87      0.00
   -1   18    1     -3.07      0.00
    0   18    1      4.50      0.00
    1   18    1     -3.81      0.00
    2   18    1      2.63      0.00
    3   18    1      0.66      0.00
    4   18    1      2.48      0.00
    5   18    1     -0.78      0.00
    6   18    1      5.55      0.00
    7   18    1     -1.14      0.00
    8   18    1      0.98      0.00
    9   18    1      4.65      0.00
   10   18    1      6.78      0.00
   11   18    1      0.65      0.00
   12   18    1      4.88      0.00
   13   18    1      2.83      0.00
   14   18    1    -13.35      0.00
   15   18    1      2.72      0.00
   16   18    1      4.20      0.00
   17   18    1      0.11      0.00
   18   18    1     -1.63      0.00
   -1   19    1     -5.06      0.00
    0   19    1      3.83      0.00
    1   19    1      4.24      0.00
    2   19    1      4.02      0.00
    3   19    1      1.12      0.00
    4   19    1      1.34      0.00
    5   19    1     -5.19      0.00
    6   19    1      2.12      0.00
    7   19    1     -0.48      0.00
    8   19    1     -0.30      0.00
    9   19    1     -0.05      0.00
   10   19    1      2.68      0.00
   11   19    1     -6.65      0.00
   12   19    1      0.84      0.00
   13   19    1      6.60      0.00
   14   19    1     -0.31      0.00
   15   19    1      6.68      0.00
   16   19    1      7.09      0.00
   17   19    1      0.32      0.00
   18   19    1     -0.27      0.00
    1   20    1     -1.10      0.00
    2   20    1      1.45      0.00
    3   20    1     -2.31      0.00
    4   20    1     -1.14      0.00
    5   20    1      8.35      0.00
    6   20    1      3.71      0.00
    7   20    1     -1.75      0.00
    8   20    1     -4.63      0.00
    9   20    1     -0.35      0.00
   10   20    1      7.13      0.00
   11   20    1      1.43      0.00
   12   20    1     -0.52      0.00
   13   20    1      1.20      0.00
   14   20    1     -6.76      0.00
   15   20    1      8.69      0.00
   16   20    1      4.43      0.00
   17   20    1      2.46      0.00
    3   21    1     -0.54      0.00
    4   21    1     -2.14      0.00
    5   21    1     -0.98      0.00
    6   21    1      2.44      0.00
    7   21    1      1.79      0.00
    8   21    1     -1.55      0.00
    9   21    1     -0.27      0.00
   10   21    1     -2.70      0.00
   11   21    1     -2.29      0.00
   12   21    1      0.43      0.00
   13   21    1      4.66      0.00
   14   21    1     -2.87      0.00
   15   21    1      5.06      0.00
    6   22    1     -0.54      0.00
    7   22    1      4.17      0.00
    8   22    1     -0.92      0.00
    9   22    1      2.21      0.00
   10   22    1     -0.93      0.00
   11   22    1      2.37      0.00
   12   22    1      1.67      0.00
   13   22    1      7.63      0.00
  -12  -22    2      0.51      0.00
  -11  -22    2      1.62      0.00
  -10  -22    2      0.87      0.00
   -9  -22    2     -2.12      0.00
   -8  -22    2     -3.31      0.00
   -7  -22    2     -1.54      0.00
   -6  -22    2      5.56      0.00
  -14  -21    2      3.83      0.00
  -13  -21    2     -4.18      0.00
  -12  -21    2      0.96      0.00
  -11  -21    2      2.81      0.00
  -10  -21    2      0.73      0.00
   -9  -21    2     -2.53      0.00
   -8  -21    2     -0.03      0.00
   -7  -21    2     -0.16      0.00
   -6  -21    2     -0.56      0.00
   -5  -21    2     -2.46      0.00
   -4  -21    2     -1.06      0.00
   -3  -21    2      1.77      0.00
  -16  -20    2      3.99      0.00
  -15  -20    2      1.69      0.00
  -14  -20    2     -0.78      0.00
  -13  -20    2     -5.63      0.00
  -12  -20    2     -3.08      0.00
  -11  -20    2      4.79      0.00
  -10  -20    2      0.03      0.00
   -9  -20    2      2.65      0.00
   -8  -20    2    -11.89      0.00
   -7  -20    2     -2.16      0.00
   -6  -20    2      1.15      0.00
   -5  -20    2      3.15      0.00
   -4  -20    2      0.63      0.00
   -3  -20    2     -1.44      0.00
   -2  -20    2     -2.76      0.00
   -1  -20    2     -5.42      0.00
    0  -20    2    -15.05      0.00
  -17  -19    2     -0.09      0.00
  -16  -19    2     -3.46      0.00
  -15  -19    2      4.07      0.00
  -14  -19    2      4.42      0.00
  -13  -19    2     -1.63      0.00
  -12  -19    2     -1.61      0.00
  -11  -19    2     -1.00      0.00
  -10  -19    2     -6.12      0.00
   -9  -19    2      3.17      0.00
   -8  -19    2     -0.31      0.00
   -7  -19    2     -4.26      0.00
   -6  -19    2     -2.89      0.00
   -5  -19    2     -1.31      0.00
   -4  -19    2     -4.48      0.00
   -3  -19    2      2.51      0.00
   -2  -19    2     -2.74      0.00
   -1  -19    2      0.25      0.00
    0  -19    2     -4.78      0.00
    1  -19    2     -7.93      0.00
  -17  -18    2      2.31      0.00
  -16  -18    2      1.24      0.00
  -15  -18    2      7.25      0.00
  -14  -18    2     -2.70      0.00
  -13  -18    2    -14.14      0.00
  -12  -18    2     -0.54      0.00
  -11  -18    2      0.83      0.00
  -10  -18    2     -9.92      0.00
   -9  -18    2     -3.89      0.00
   -8  -18    2     -2.39      0.00
   -7  -18    2      1.04      0.00
   -6  -18    2     -1.26      0.00
   -5  -18    2      2.23      0.00
   -4  -18    2     -0.88      0.00
   -3  -18    2     -6.71      0.00
   -2  -18    2     -0.31      0.00
   -1  -18    2     -4.79      0.00
    0  -18    2     -5.07      0.00
    1  -18    2      0.42      0.00
    2  -18    2      8.32      0.00
    3  -18    2     -2.44      0.00
  -18  -17    2      5.41      0.00
  -17  -17    2     -1.70      0.00
  -16  -17    2     -4.96      0.00
  -15  -17    2      3.18      0.00
  -14  -17    2      2.17      0.00
  -13  -17    2     -0.85      0.00
  -12  -17    2     -1.73      0.00
  -11  -17    2     -1.69      0.00
  -10  -17    2    -14.58      0.00
   -9  -17    2     -4.77      0.00
   -8  -17    2      0.51      0.00
   -7  -17    2     -1.85      0.00
   -6  -17    2      0.47      0.00
   -5  -17    2     -5.20      0.00
   -4  -17    2     -2.51      0.00
   -3  -17    2     -4.86      0.00
   -2  -17    2      0.88      0.00
   -1  -17    2     -3.09      0.00
    0  -17    2      2.00      0.00
    1  -17    2     -2.68      0.00
    2  -17    2      6.85      0.00
    3  -17    2     -3.76      0.00
    4  -17    2      2.74      0.00
  -18  -16    2      2.55      0.00
  -16  -16    2     -6.15      0.00
  -15  -16    2     -0.15      0.00
  -14  -16    2     -3.25      0.00
  -13  -16    2     -5.51      0.00
  -12  -16    2     -3.37      0.00
  -10  -16    2      1.06      0.00
   -9  -16    2      0.64      0.00
   -8  -16    2     -6.30      0.00
   -7  -16    2     -8.24      0.00
   -6  -16    2      1.60      0.00
   -5  -16    2      1.35      0.00
   -4  -16    2     -1.76      0.00
   -3  -16    2     -5.10      0.00
   -2  -16    2     -0.75      0.00
   -1  -16    2     -5.58      0.00
    0  -16    2      3.27      0.00
    1  -16    2     -0.31      0.00
    2  -16    2      3.21      0.00
    3  -16    2     -0.10      0.00
    4  -16    2     -2.99      0.00
    5  -16    2      5.44      0.00
    6  -16    2      1.27      0.00
  -19  -15    2     -1.92      0.00
  -18  -15    2     -4.03      0.00
  -17  -15    2     -1.37      0.00
  -16  -15    2      0.60      0.00
  -15  -15    2      0.36      0.00
  -14  -15    2      3.67      0.00
  -13  -15    2      0.70      0.00
  -12  -15    2     -0.84      0.00
  -11  -15    2     -2.32      0.00
  -10  -15    2     -5.25      0.00
   -9  -15    2      1.49      0.00
   -8  -15    2     -3.30      0.00
   -7  -15    2      2.31      0.00
   -6  -15    2     -0.45      0.00
   -5  -15    2     -0.97      0.00
   -4  -15    2     -3.71      0.00
   -3  -15    2      4.24      0.00
   -2  -15    2     -1.11      0.00
   -1  -15    2     -4.93      0.00
    0  -15    2     -5.44      0.00
    1  -15    2      3.56      0.00
    2  -15    2      4.03      0.00
    3  -15    2      1.75      0.00
    4  -15    2     -5.02      0.00
    5  -15    2     -1.89      0.00
    6  -15    2     -1.52      0.00
    7  -15    2      1.23      0.00
  -19  -14    2     -0.27      0.00
  -18  -14    2     -1.11      0.00
  -17  -14    2     -0.17      0.00
  -16  -14    2     -1.46      0.00
  -15  -14    2      1.31      0.00
  -14  -14    2      1.43      0.00
  -13  -14    2     -1.68      0.00
  -12  -14    2      1.25      0.00
  -11  -14    2     -6.78      0.00
  -10  -14    2      3.34      0.00
   -9  -14    2      3.70      0.00
   -8  -14    2      3.24      0.00
   -7  -14    2      4.09      0.00
   -6  -14    2      2.68      0.00
   -5  -14    2     -6.24      0.00
   -4  -14    2     -2.05      0.00
   -3  -14    2      2.69      0.00
   -2  -14    2     -0.33      0.00
   -1  -14    2      1.30      0.00
    0  -14    2     -7.19      0.00
    1  -14    2      8.18      0.00
    2  -14    2     -0.39      0.00
    3  -14    2      2.21      0.00
    4  -14    2      3.10      0.00
    5  -14    2      3.63      0.00
    6  -14    2     -2.15      0.00
    7  -14    2      0.53      0.00
    8  -14    2     -2.41      0.00
  -19  -13    2     -6.70      0.00
  -18  -13    2      1.52      0.00
  -17  -13    2     -2.83      0.00
  -16  -13    2      5.45      0.00
  -15  -13    2     -0.67      0.00
  -14  -13    2      1.05      0.00
  -13  -13    2     -2.37      0.00
  -12  -13    2      8.50      0.00
  -11  -13    2     -0.43      0.00
  -10  -13    2      1.49      0.00
   -9  -13    2      4.57      0.00
   -8  -13    2     -5.48      0.00
   -7  -13    2     -0.97      0.00
   -6  -13    2      5.31      0.00
   -5  -13    2     13.34      0.00
   -4  -13    2     -7.13      0.00
   -3  -13    2      3.40      0.00
   -2  -13    2     -7.97      0.00
   -1  -13    2      4.50      0.00
    0  -13    2      0.91      0.00
    1  -13    2      8.80      0.00
    2  -13    2     -3.07      0.00
    3  -13    2     -5.01      0.00
    4  -13    2     -3.88      0.00
    5  -13    2      3.48      0.00
    6  -13    2      5.09      0.00
    7  -13    2      4.25      0.00
    8  -13    2     -0.01      0.00
    9  -13    2     -5.46      0.00
  -19  -12    2     -2.53      0.00
  -18  -12    2      3.15      0.00
  -17  -12    2     -0.03      0.00
  -16  -12    2     -3.78      0.00
  -15  -12    2     -0.14      0.00
  -14  -12    2     -4.32      0.00
  -13  -12    2      1.53      0.00
  -12  -12    2      4.57      0.00
  -11  -12    2      2.18      0.00
  -10  -12    2     -6.81      0.00
   -9  -12    2     14.45      0.00
   -8  -12    2      1.83      0.00
   -7  -12    2      5.35      0.00
   -6  -12    2     -1.95      0.00
   -5  -12    2      0.42      0.00
   -4  -12    2     -8.35      0.00
   -3  -12    2      7.90      0.00
   -2  -12    2      9.80      0.00
   -1  -12    2      1.25      0.00
    0  -12    2     -5.09      0.00
    1  -12    2      5.20      0.00
    2  -12    2      7.73      0.00
    3  -12    2      0.20      0.00
    4  -12    2      1.68      0.00
    5  -12    2     -4.48      0.00
    6  -12    2     -2.22      0.00
    7  -12    2      1.33      0.00
    8  -12    2      1.52      0.00
    9  -12    2      4.32      0.00
   10  -12    2      6.00      0.00
  -19  -11    2     -1.29      0.00
  -18  -11    2      8.06      0.00
  -17  -11    2      2.66      0.00
  -16  -11    2      2.23      0.00
  -15  -11    2      3.54      0.00
  -14  -11    2     -4.78      0.00
  -13  -11    2      2.03      0.00
  -12  -11    2     -2.40      0.00
  -11  -11    2     -3.08      0.00
  -10  -11    2     -2.23      0.00
   -9  -11    2      9.62      0.00
   -8  -11    2     -0.66      0.00
   -7  -11    2     -7.63      0.00
   -6  -11    2     -2.94      0.00
   -5  -11    2      9.38      0.00
   -4  -11    2      2.13      0.00
   -3  -11    2      2.40      0.00
   -2  -11    2     -8.43      0.00
   -1  -11    2      3.26      0.00
    0  -11    2      0.41      0.00
    1  -11    2      6.09      0.00
    2  -11    2    -12.01      0.00
    3  -11    2     -5.66      0.00
    4  -11    2     -1.64      0.00
    5  -11    2     -0.36      0.00
    6  -11    2      7.43      0.00
    7  -11    2      0.59      0.00
    8  -11    2      5.95      0.00
    9  -11    2      0.15      0.00
   10  -11    2      0.36      0.00
   11  -11    2      3.49      0.00
  -19  -10    2     -2.88      0.00
  -18  -10    2      3.58      0.00
  -17  -10    2      4.84      0.00
  -16  -10    2     -2.16      0.00
  -15  -10    2      2.17      0.00
  -14  -10    2     -8.03      0.00
  -13  -10    2      4.54      0.00
  -12  -10    2     -6.85      0.00
  -11  -10    2      3.01      0.00
  -10  -10    2     -4.04      0.00
   -9  -10    2     11.99      0.00
   -8  -10    2     -7.25      0.00
   -7  -10    2     14.10      0.00
   -6  -10    2     -1.43      0.00
   -5  -10    2     -7.00      0.00
   -4  -10    2     -3.56      0.00
   -3  -10    2      3.98      0.00
   -2  -10    2     14.24      0.00
   -1  -10    2     -0.85      0.00
    0  -10    2      6.12      0.00
    1  -10    2    -17.10      0.00
    2  -10    2      9.87      0.00
    3  -10    2     -6.29      0.00
    4  -10    2     -2.97      0.00
    5  -10    2     -1.17      0.00
    6  -10    2     -2.96      0.00
    7  -10    2     -1.53      0.00
    8  -10    2      3.93      0.00
    9  -10    2     -3.84      0.00
   10  -10    2     -1.01      0.00
   11  -10    2      2.28      0.00
   12  -10    2     -1.28      0.00
  -19   -9    2      1.42      0.00
  -18   -9    2      7.45      0.00
  -17   -9    2      4.64      0.00
  -16   -9    2      1.03      0.00
  -15   -9    2      3.87      0.00
  -14   -9    2     -5.09      0.00
  -13   -9    2      7.30      0.00
  -12   -9    2     -6.70      0.00
  -11   -9    2      8.41      0.00
  -10   -9    2     10.67      0.00
   -9   -9    2      5.47      0.00
   -8   -9    2     -8.15      0.00
   -7   -9    2     -7.50      0.00
   -6   -9    2     11.45      0.00
   -5   -9    2    -15.38      0.00
   -4   -9    2     16.58      0.00
   -3   -9    2     -7.23      0.00
   -2   -9    2     13.77      0.00
   -1   -9    2      2.58      0.00
    0   -9    2      0.23      0.00
    1   -9    2     -0.59      0.00
    2   -9    2    -19.63      0.00
    3   -9    2     -7.99      0.00
    4   -9    2     -2.16      0.00
    5   -9    2      1.97      0.00
    6   -9    2     -2.36      0.00
    7   -9    2      0.27      0.00
    8   -9    2      4.46      0.00
    9   -9    2     -1.26      0.00
   10   -9    2     -2.30      0.00
   11   -9    2     -0.20      0.00
   12   -9    2      1.38      0.00
   13   -9    2      0.07      0.00
  -19   -8    2      3.41      0.00
  -18   -8    2     -6.63      0.00
  -17   -8    2      3.44      0.00
  -16   -8    2     -2.50      0.00
  -15   -8    2      1.22      0.00
  -14   -8    2     -5.18      0.00
  -13   -8    2     10.65      0.00
  -12   -8    2      3.27      0.00
  -11   -8    2      6.85      0.00
  -10   -8    2     13.10      0.00
   -9   -8    2      6.83      0.00
   -8   -8    2    -15.50      0.00
   -7   -8    2      2.59      0.00
   -6   -8    2      9.93      0.00
   -5   -8    2     -1.80      0.00
   -4   -8    2      2.42      0.00
   -3   -8    2      6.69      0.00
   -2   -8    2    -13.89      0.00
   -1   -8    2     -7.97      0.00
    0   -8    2     19.29      0.00
    1   -8    2     -3.78      0.00
    2   -8    2     10.02      0.00
    3   -8    2     -6.75      0.00
    4   -8    2    -17.83      0.00
    5   -8    2     -5.61      0.00
    6   -8    2      9.95      0.00
    7   -8    2     -0.78      0.00
    8   -8    2      0.12      0.00
    9   -8    2     -5.08      0.00
   10   -8    2     -7.60      0.00
   11   -8    2      2.22      0.00
   12   -8    2      2.84      0.00
   13   -8    2      0.49      0.00
  -19   -7    2     -0.56      0.00
  -18   -7    2     -5.56      0.00
  -17   -7    2     -0.77      0.00
  -16   -7    2      4.28      0.00
  -15   -7    2     -0.19      0.00
  -14   -7    2     -5.34      0.00
  -13   -7    2     13.68      0.00
  -12   -7    2     -0.19      0.00
  -11   -7    2      0.80      0.00
  -10   -7    2      6.95      0.00
   -9   -7    2     12.67      0.00
   -8   -7    2     -8.58      0.00
   -7   -7    2      9.36      0.00
   -6   -7    2     -9.45      0.00
   -5   -7    2    -41.21      0.00
   -4   -7    2      3.82      0.00
   -3   -7    2      1.33      0.00
   -2   -7    2     29.92      0.00
   -1   -7    2     -2.27      0.00
    0   -7    2    -19.97      0.00
    1   -7    2    -32.09      0.00
    2   -7    2     -0.64      0.00
    3   -7    2      2.44      0.00
    4   -7    2     11.97      0.00
    5   -7    2     13.41      0.00
    6   -7    2    -19.18      0.00
    7   -7    2     -3.40      0.00
    8   -7    2      1.52      0.00
    9   -7    2     -2.49      0.00
   10   -7    2      5.26      0.00
   11   -7    2     -3.56      0.00
   12   -7    2     -5.30      0.00
   13   -7    2      0.90      0.00
   14   -7    2     -1.40      0.00
  -19   -6    2      1.09      0.00
  -18   -6    2     -6.68      0.00
  -17   -6    2     -2.21      0.00
  -16   -6    2      2.54      0.00
  -15   -6    2     -1.43      0.00
  -14   -6    2     -2.13      0.00
  -13   -6    2      6.67      0.00
  -12   -6    2     -3.74      0.00
  -11   -6    2     10.42      0.00
  -10   -6    2      8.83      0.00
   -9   -6    2      1.30      0.00
   -8   -6    2    -21.24      0.00
   -7   -6    2     -8.44      0.00
   -6   -6    2     12.93      0.00
   -5   -6    2      9.35      0.00
   -4   -6    2    -20.72      0.00
   -3   -6    2     -4.45      0.00
   -2   -6    2    -18.30      0.00
   -1   -6    2     -9.52      0.00
    0   -6    2     12.52      0.00
    1   -6    2     26.49      0.00
    2   -6    2     12.10      0.00
    3   -6    2     -5.60      0.00
    4   -6    2     -2.62      0.00
    5   -6    2    -16.55      0.00
    6   -6    2     26.72      0.00
    7   -6    2     -7.27      0.00
    8   -6    2     -0.75      0.00
    9   -6    2     -2.35      0.00
   10   -6    2     -1.55      0.00
   11   -6    2     -1.61      0.00
   12   -6    2      3.11      0.00
   13   -6    2     -0.36      0.00
   14   -6    2     -2.56      0.00
   15   -6    2     -2.05      0.00
  -19   -5    2     -0.56      0.00
  -18   -5    2     -2.42      0.00
  -17   -5    2     -0.37      0.00
  -16   -5    2      6.28      0.00
  -15   -5    2     -2.82      0.00
  -14   -5    2     -1.99      0.00
  -13   -5    2      4.47      0.00
  -12   -5    2    -12.06      0.00
  -11   -5    2     -3.12      0.00
  -10   -5    2     -8.90      0.00
   -9   -5    2     14.24      0.00
   -8   -5    2     -3.47      0.00
   -7   -5    2     27.77      0.00
   -6   -5    2    -20.13      0.00
   -5   -5    2     -4.03      0.00
   -4   -5    2    -16.54      0.00
   -3   -5    2      8.21      0.00
   -2   -5    2     -7.10      0.00
   -1   -5    2     14.88      0.00
    0   -5    2      1.21      0.00
    1   -5    2    -38.76      0.00
    2   -5    2     44.07      0.00
    3   -5    2      0.13      0.00
    4   -5    2     13.49      0.00
    5   -5    2     14.19      0.00
    6   -5    2     -1.35      0.00
    7   -5    2    -21.15      0.00
    8   -5    2     16.49      0.00
    9   -5    2     -2.75      0.00
   10   -5    2      2.23      0.00
   11   -5    2     -2.88      0.00
   12   -5    2     -4.95      0.00
   13   -5    2     -2.31      0.00
   14   -5    2      0.06      0.00
   15   -5    2      5.60      0.00
  -18   -4    2      2.18      0.00
  -17   -4    2      3.55      0.00
  -16   -4    2      0.18      0.00
  -15   -4    2      1.44      0.00
  -14   -4    2      0.43      0.00
  -13   -4    2      4.49      0.00
  -12   -4    2    -11.25      0.00
  -11   -4    2     10.19      0.00
  -10   -4    2     -2.25      0.00
   -9   -4    2     -6.69      0.00
   -8   -4    2    -13.47      0.00
   -7   -4    2     17.95      0.00
   -6   -4    2      5.96      0.00
   -5   -4    2     46.12      0.00
   -4   -4    2     25.29      0.00
   -3   -4    2    -24.55      0.00
   -2   -4    2     -7.54      0.00
   -1   -4    2      0.21      0.00
    0   -4    2    -33.89      0.00
    1   -4    2     21.43      0.00
    2   -4    2     12.48      0.00
    3   -4    2     -5.55      0.00
    4   -4    2     14.29      0.00
    5   -4    2     -2.41      0.00
    6   -4    2     20.76      0.00
    7   -4    2     -6.40      0.00
    8   -4    2      6.80      0.00
    9   -4    2    -11.42      0.00
   10   -4    2      2.49      0.00
   11   -4    2     -4.19      0.00
   12   -4    2      3.78      0.00
   13   -4    2      1.10      0.00
   14   -4    2     -1.14      0.00
   15   -4    2      3.65      0.00
   16   -4    2     -3.56      0.00
  -18   -3    2      2.81      0.00
  -17   -3    2      2.42      0.00
  -16   -3    2     -0.22      0.00
  -15   -3    2     -0.59      0.00
  -14   -3    2      0.14      0.00
  -13   -3    2      4.59      0.00
  -12   -3    2     -5.81      0.00
  -11   -3    2      4.92      0.00
  -10   -3    2     -8.69      0.00
   -9   -3    2     -0.10      0.00
   -8   -3    2     -4.61      0.00
   -7   -3    2     27.30      0.00
   -6   -3    2      3.09      0.00
   -5   -3    2     40.56      0.00
   -4   -3    2     18.16      0.00
   -3   -3    2     46.48      0.00
   -2   -3    2    -25.74      0.00
   -1   -3    2      6.86      0.00
    0   -3    2     -6.40      0.00
    1   -3    2    -35.22      0.00
    2   -3    2     48.25      0.00
    3   -3    2     -4.57      0.00
    4   -3    2     -7.65      0.00
    5   -3    2      3.73      0.00
    6   -3    2     31.55      0.00
    7   -3    2    -18.41      0.00
    8   -3    2     13.36      0.00
    9   -3    2      0.22      0.00
   10   -3    2     -9.14      0.00
   11   -3    2     -0.21      0.00
   12   -3    2     -1.66      0.00
   13   -3    2     -1.51      0.00
   14   -3    2      2.40      0.00
   15   -3    2      3.83      0.00
   16   -3    2     -2.29      0.00
   17   -3    2      5.12      0.00
  -18   -2    2      1.61      0.00
  -17   -2    2      3.75      0.00
  -16   -2    2     -0.49      0.00
  -15   -2    2      5.86      0.00
  -14   -2    2      1.66      0.00
  -13   -2    2      7.82      0.00
  -12   -2    2     -8.80      0.00
  -11   -2    2      0.50      0.00
  -10   -2    2      1.45      0.00
   -9   -2    2     -0.74      0.00
   -8   -2    2     -2.79      0.00
   -7   -2    2     12.83      0.00
   -6   -2    2    -18.35      0.00
   -5   -2    2      0.88      0.00
   -4   -2    2     49.73      0.00
   -3   -2    2    -11.18      0.00
   -2   -2    2     91.28      0.00
   -1   -2    2     42.95      0.00
    0   -2    2    -98.88      0.00
    1   -2    2    -59.79      0.00
    2   -2    2     -0.50      0.00
    3   -2    2    -16.07      0.00
    4   -2    2     22.31      0.00
    5   -2    2     32.92      0.00
    6   -2    2    -15.08      0.00
    7   -2    2     -8.56      0.00
    8   -2    2      7.27      0.00
    9   -2    2     -4.84      0.00
   10   -2    2     14.97      0.00
   11   -2    2      0.74      0.00
   12   -2    2     -0.44      0.00
   13   -2    2      3.81      0.00
   14   -2    2     -1.97      0.00
   15   -2    2      0.50      0.00
   16   -2    2     -4.76      0.00
   17   -2    2      1.36      0.00
  -17   -1    2      4.47      0.00
  -16   -1    2      1.70      0.00
  -15   -1    2      0.62      0.00
  -14   -1    2      0.47      0.00
  -13   -1    2      2.03      0.00
  -12   -1    2     -4.44      0.00
  -11   -1    2      0.44      0.00
  -10   -1    2     -1.40      0.00
   -9   -1    2    -10.93      0.00
   -8   -1    2      6.60      0.00
   -7   -1    2    -11.16      0.00
   -6   -1    2      3.58      0.00
   -5   -1    2     32.72      0.00
   -4   -1    2      7.90      0.00
   -3   -1    2     31.05      0.00
   -2   -1    2    -39.42      0.00
   -1   -1    2     42.62      0.00
    0   -1    2     42.30      0.00
    1   -1    2    236.94      0.00
    2   -1    2     16.08      0.00
    3   -1    2    -10.56      0.00
    4   -1    2    -32.08      0.00
    5   -1    2    -15.24      0.00
    6   -1    2     44.05      0.00
    7   -1    2      1.25      0.00
    8   -1    2     14.55      0.00
    9   -1    2      2.84      0.00
   10   -1    2     -2.76      0.00
   11   -1    2      0.32      0.00
   12   -1    2      3.68      0.00
   13   -1    2     -0.68      0.00
   14   -1    2      0.97      0.00
   15   -1    2      4.49      0.00
   16   -1    2     -7.47      0.00
   17   -1    2     -0.04      0.00
   18   -1    2      2.47      0.00
  -17    0    2      1.18      0.00
  -16    0    2      0.60      0.00
  -15    0    2     -2.93      0.00
  -14    0    2     -0.47      0.00
  -13    0    2      0.35      0.00
  -12    0    2     -4.91      0.00
  -11    0    2     -8.28      0.00
  -10    0    2     -3.39      0.00
   -9    0    2     -1.11      0.00
   -8    0    2      1.12      0.00
   -7    0    2     10.09      0.00
   -6    0    2     -4.14      0.00
   -5    0    2     -9.53      0.00
   -4    0    2     -9.47      0.00
   -3    0    2     23.00      0.00
   -2    0    2     64.42      0.00
   -1    0    2     90.42      0.00
    0    0    2    -22.05      0.00
    1    0    2    112.01      0.00
    2    0    2     93.37      0.00
    3    0    2     20.18      0.00
    4    0    2     37.54      0.00
    5    0    2     23.69      0.00
    6    0    2    -45.17      0.00
    7    0    2    -12.63      0.00
    8    0    2     18.70      0.00
    9    0    2      3.77      0.00
   10    0    2     15.22      0.00
   11    0    2      5.82      0.00
   12    0    2      3.56      0.00
   13    0    2     -0.35      0.00
   14    0    2      0.44      0.00
   15    0    2     -5.00      0.00
   16    0    2     -7.63      0.00
   17    0    2     -2.29      0.00
   18    0    2      0.49      0.00
  -16    1    2      0.20      0.00
  -15    1    2     -7.02      0.00
  -14    1    2     -0.61      0.00
  -13    1    2      0.37      0.00
  -12    1    2     -6.09      0.00
  -11    1    2      2.27      0.00
  -10    1    2     -1.74      0.00
   -9    1    2    -11.39      0.00
   -8    1    2      8.47      0.00
   -7    1    2     -6.16      0.00
   -6    1    2      2.37      0.00
   -5    1    2     40.16      0.00
   -4    1    2     -7.29      0.00
   -3    1    2    -22.23      0.00
   -2    1    2     -4.10      0.00
   -1    1    2     15.69      0.00
    0    1    2    -16.44      0.00
    1    1    2    377.51      0.00
    2    1    2     51.31      0.00
    3    1    2    -34.71      0.00
    4    1    2     10.91      0.00
    5    1    2      2.69      0.00
    6    1    2      1.12      0.00
    7    1    2     -6.95      0.00
    8    1    2      7.04      0.00
    9    1    2    -11.44      0.00
   10    1    2     15.10      0.00
   11    1    2     -4.36      0.00
   12    1    2      7.36      0.00
   13    1    2      4.86      0.00
   14    1    2      0.88      0.00
   15    1    2     -0.06      0.00
   16    1    2     -0.66      0.00
   17    1    2     -1.06      0.00
   18    1    2      2.06      0.00
  -16    2    2      4.28      0.00
  -15    2    2     -1.22      0.00
  -14    2    2      0.72      0.00
  -13    2    2     -0.90      0.00
  -12    2    2     -2.98      0.00
  -11    2    2     -4.84      0.00
  -10    2    2     -2.50      0.00
   -9    2    2      2.97      0.00
   -8    2    2     -0.48      0.00
   -7    2    2     -3.58      0.00
   -6    2    2     -2.41      0.00
   -5    2    2      1.09      0.00
   -4    2    2    -25.76      0.00
   -3    2    2     17.03      0.00
   -2    2    2      7.31      0.00
   -1    2    2     21.60      0.00
    0    2    2      5.23      0.00
    1    2    2    -13.28      0.00
    2    2    2     31.29      0.00
    3    2    2    -77.75      0.00
    4    2    2     62.14      0.00
    5    2    2      4.11      0.00
    6    2    2      2.75      0.00
    7    2    2    -24.20      0.00
    8    2    2     20.53      0.00
    9    2    2     -6.43      0.00
   10    2    2     -2.33      0.00
   11    2    2      7.89      0.00
   12    2    2      3.39      0.00
   13    2    2     -2.28      0.00
   14    2    2      3.76      0.00
   15    2    2      0.80      0.00
   16    2    2     -1.74      0.00
   17    2    2     -0.09      0.00
   18    2    2      0.36      0.00
   19    2    2      2.93      0.00
  -15    3    2     -1.70      0.00
  -14    3    2      0.82      0.00
  -13    3    2     -4.41      0.00
  -12    3    2     -2.75      0.00
  -11    3    2      6.21      0.00
  -10    3    2      0.43      0.00
   -9    3    2      0.31      0.00
   -8    3    2     -2.60      0.00
   -7    3    2     14.25      0.00
   -6    3    2    -14.89      0.00
   -5    3    2     -7.32      0.00
   -4    3    2    -16.51      0.00
   -3    3    2    -35.97      0.00
   -2    3    2     31.97      0.00
   -1    3    2     -9.51      0.00
    0    3    2    -41.79      0.00
    1    3    2      9.99      0.00
    2    3    2     21.88      0.00
    3    3    2    -86.08      0.00
    4    3    2     30.34      0.00
    5    3    2     11.78      0.00
    6    3    2    -11.97      0.00
    7    3    2      8.21      0.00
    8    3    2     11.36      0.00
    9    3    2    -12.28      0.00
   10    3    2     12.84      0.00
   11    3    2     -1.07      0.00
   12    3    2      0.46      0.00
   13    3    2      1.67      0.00
   14    3    2      1.35      0.00
   15    3    2      4.22      0.00
   16    3    2      1.20      0.00
   17    3    2      5.33      0.00
   18    3    2      0.71      0.00
   19    3    2      3.94      0.00
  -15    4    2     -2.57      0.00
  -14    4    2      5.14      0.00
  -13    4    2     -1.54      0.00
  -12    4    2     -0.57      0.00
  -11    4    2      3.50      0.00
  -10    4    2     -2.58      0.00
   -9    4    2      4.02      0.00
   -8    4    2     -2.15      0.00
   -7    4    2    -12.66      0.00
   -6    4    2      0.39      0.00
   -5    4    2      5.95      0.00
   -4    4    2    -22.24      0.00
   -3    4    2     -7.24      0.00
   -2    4    2     -8.24      0.00
   -1    4    2    -52.71      0.00
    0    4    2     26.54      0.00
    1    4    2    -13.97      0.00
    2    4    2     33.27      0.00
    3    4    2    -65.38      0.00
    4    4    2     17.84      0.00
    5    4    2    -40.37      0.00
    6    4    2     36.46      0.00
    7    4    2     15.15      0.00
    8    4    2     26.47      0.00
    9    4    2      2.75      0.00
   10    4    2     -4.49      0.00
   11    4    2      0.11      0.00
   12    4    2     -1.76      0.00
   13    4    2      2.02      0.00
   14    4    2      1.11      0.00
   15    4    2     -0.95      0.00
   16    4    2     -0.96      0.00
   17    4    2      7.16      0.00
   18    4    2      0.68      0.00
   19    4    2      3.96      0.00
  -14    5    2     -4.57      0.00
  -13    5    2      5.48      0.00
  -12    5    2      3.66      0.00
  -11    5    2      2.55      0.00
  -10    5    2     -1.04      0.00
   -9    5    2      4.40      0.00
   -8    5    2     -7.43      0.00
   -7    5    2     14.07      0.00
   -6    5    2     -5.85      0.00
   -5    5    2    -20.65      0.00
   -4    5    2    -10.40      0.00
   -3    5    2    -16.51      0.00
   -2    5    2     16.65      0.00
   -1    5    2    -24.89      0.00
    0    5    2      3.17      0.00
    1    5    2    -63.79      0.00
    2    5    2     21.49      0.00
    3    5    2    -25.68      0.00
    4    5    2     37.60      0.00
    5    5    2     11.25      0.00
    6    5    2    -15.97      0.00
    7    5    2     -1.01      0.00
    8    5    2     -3.72      0.00
    9    5    2      6.64      0.00
   10    5    2     19.60      0.00
   11    5    2      3.27      0.00
   12    5    2    -11.31      0.00
   13    5    2     -1.29      0.00
   14    5    2     -0.26      0.00
   15    5    2      2.11      0.00
   16    5    2      1.77      0.00
   17    5    2      3.08      0.00
   18    5    2      1.64      0.00
   19    5    2      2.21      0.00
   20    5    2      2.81      0.00
  -14    6    2     -0.55      0.00
  -13    6    2     -0.30      0.00
  -12    6    2     -4.27      0.00
  -11    6    2      4.13      0.00
  -10    6    2      1.99      0.00
   -9    6    2      0.98      0.00
   -8    6    2     -0.72      0.00
   -7    6    2    -11.85      0.00
   -6    6    2      2.19      0.00
   -5    6    2     10.61      0.00
   -4    6    2     -1.46      0.00
   -3    6    2    -15.59      0.00
   -2    6    2      7.35      0.00
   -1    6    2    -51.07      0.00
    0    6    2     13.97      0.00
    1    6    2      8.49      0.00
    2    6    2    -14.22      0.00
    3    6    2    -37.88      0.00
    4    6    2     24.46      0.00
    5    6    2    -35.01      0.00
    6    6    2     24.78      0.00
    7    6    2     22.07      0.00
    8    6    2     12.18      0.00
    9    6    2    -20.29      0.00
   10    6    2     -3.96      0.00
   11    6    2     -8.48      0.00
   12    6    2     -2.64      0.00
   13    6    2      2.26      0.00
   14    6    2     -6.08      0.00
   15    6    2     -5.58      0.00
   16    6    2     -0.50      0.00
   17    6    2     -1.99      0.00
   18    6    2      3.07      0.00
   19    6    2      0.41      0.00
   20    6    2      1.29      0.00
  -13    7    2      1.59      0.00
  -12    7    2      4.15      0.00
  -11    7    2     -2.18      0.00
  -10    7    2     -4.35      0.00
   -9    7    2      5.12      0.00
   -8    7    2      1.88      0.00
   -7    7    2      2.06      0.00
   -6    7    2     -1.00      0.00
   -5    7    2    -13.37      0.00
   -4    7    2    -18.03      0.00
   -3    7    2     16.04      0.00
   -2    7    2     12.74      0.00
   -1    7    2    -15.66      0.00
    0    7    2      4.33      0.00
    1    7    2    -61.66      0.00
    2    7    2    -11.70      0.00
    3    7    2    -31.11      0.00
    4    7    2     27.26      0.00
    5    7    2    -15.52      0.00
    6    7    2     -1.70      0.00
    7    7    2     -7.32      0.00
    8    7    2      4.47      0.00
    9    7    2     -4.80      0.00
   10    7    2      4.48      0.00
   11    7    2     -1.84      0.00
   12    7    2     -4.08      0.00
   13    7    2      3.26      0.00
   14    7    2      1.14      0.00
   15    7    2     -0.77      0.00
   16    7    2     -0.95      0.00
   17    7    2     -2.65      0.00
   18    7    2     -1.80      0.00
   19    7    2     -4.44      0.00
   20    7    2     -2.31      0.00
  -12    8    2     -0.68      0.00
  -11    8    2     -0.86      0.00
  -10    8    2      4.85      0.00
   -9    8    2      0.77      0.00
   -8    8    2     -2.02      0.00
   -7    8    2     -5.42      0.00
   -6    8    2     -1.30      0.00
   -5    8    2      7.74      0.00
   -4    8    2      4.43      0.00
   -3    8    2    -17.34      0.00
   -2    8    2      1.69      0.00
   -1    8    2    -10.16      0.00
    0    8    2      9.02      0.00
    1    8    2      2.76      0.00
    2    8    2    -14.96      0.00
    3    8    2    -39.27      0.00
    4    8    2      3.30      0.00
    5    8    2    -17.91      0.00
    6    8    2     -0.71      0.00
    7    8    2      8.08      0.00
    8    8    2     18.55      0.00
    9    8    2     -4.44      0.00
   10    8    2      7.25      0.00
   11    8    2    -10.54      0.00
   12    8    2      0.16      0.00
   13    8    2     -1.74      0.00
   14    8    2      5.14      0.00
   15    8    2      4.18      0.00
   16    8    2      2.68      0.00
   17    8    2     -3.25      0.00
   18    8    2      1.17      0.00
   19    8    2     -0.33      0.00
   20    8    2     -3.34      0.00
  -12    9    2      3.18      0.00
  -11    9    2      3.30      0.00
  -10    9    2      5.02      0.00
   -9    9    2      0.58      0.00
   -8    9    2     -4.84      0.00
   -7    9    2     -7.43      0.00
   -6    9    2     -1.41      0.00
   -5    9    2      2.90      0.00
   -4    9    2     -4.33      0.00
   -3    9    2     17.21      0.00
   -2    9    2      0.21      0.00
   -1    9    2     -9.15      0.00
    0    9    2      1.17      0.00
    1    9    2     -7.82      0.00
    2    9    2      6.96      0.00
    3    9    2     -3.88      0.00
    4    9    2      2.84      0.00
    5    9    2    -34.01      0.00
    6    9    2     14.87      0.00
    7    9    2     -7.69      0.00
    8    9    2     14.22      0.00
    9    9    2     -7.20      0.00
   10    9    2      1.52      0.00
   11    9    2      1.67      0.00
   12    9    2     12.79      0.00
   13    9    2     -3.34      0.00
   14    9    2      1.14      0.00
   15    9    2      2.16      0.00
   16    9    2      1.36      0.00
   17    9    2      0.29      0.00
   18    9    2      2.03      0.00
   19    9    2      0.26      0.00
   20    9    2      2.63      0.00
  -11   10    2      2.88      0.00
  -10   10    2      2.27      0.00
   -9   10    2      1.37      0.00
   -8   10    2     -6.45      0.00
   -7   10    2     -0.54      0.00
   -6   10    2      3.26      0.00
   -5   10    2     -5.69      0.00
   -4   10    2     -1.95      0.00
   -3   10    2     -2.45      0.00
   -2   10    2     -4.88      0.00
   -1   10    2      6.56      0.00
    0   10    2      2.63      0.00
    1   10    2    -14.75      0.00
    2   10    2      5.90      0.00
    3   10    2     -0.10      0.00
    4   10    2     14.99      0.00
    5   10    2     -5.12      0.00
    6   10    2      0.85      0.00
    7   10    2    -14.13      0.00
    8   10    2     -5.14      0.00
    9   10    2     -0.77      0.00
   10   10    2      4.26      0.00
   11   10    2     -7.77      0.00
   12   10    2      6.68      0.00
   13   10    2     -0.67      0.00
   14   10    2      0.81      0.00
   15   10    2      3.63      0.00
   16   10    2     -0.01      0.00
   17   10    2     -1.89      0.00
   18   10    2      2.24      0.00
   19   10    2      5.89      0.00
   20   10    2      2.58      0.00
  -10   11    2     -0.87      0.00
   -9   11    2      2.00      0.00
   -8   11    2     -8.34      0.00
   -7   11    2     -4.02      0.00
   -6   11    2      0.54      0.00
   -5   11    2      5.20      0.00
   -4   11    2      2.68      0.00
   -3   11    2      2.16      0.00
   -2   11    2     -1.96      0.00
   -1   11    2     -5.65      0.00
    0   11    2     -5.48      0.00
    1   11    2     10.45      0.00
    2   11    2     -5.07      0.00
    3   11    2     -4.03      0.00
    4   11    2     -6.80      0.00
    5   11    2     -9.29      0.00
    6   11    2     14.99      0.00
    7   11    2    -10.96      0.00
    8   11    2    -15.62      0.00
    9   11    2    -12.01      0.00
   10   11    2      0.48      0.00
   11   11    2     -7.74      0.00
   12   11    2      7.37      0.00
   13   11    2     -1.05      0.00
   14   11    2      3.51      0.00
   15   11    2     -3.33      0.00
   16   11    2     -1.85      0.00
   17   11    2     -1.36      0.00
   18   11    2      1.80      0.00
   19   11    2      1.31      0.00
   20   11    2      1.76      0.00
   -9   12    2      2.30      0.00
   -8   12    2     -0.77      0.00
   -7   12    2      1.81      0.00
   -6   12    2      2.36      0.00
   -5   12    2     -2.92      0.00
   -4   12    2     -2.35      0.00
   -3   12    2     -2.89      0.00
   -2   12    2      0.25      0.00
   -1   12    2     -2.30      0.00
    0   12    2     -0.36      0.00
    1   12    2     -3.97      0.00
    2   12    2     -6.58      0.00
    3   12    2      5.98      0.00
    4   12    2      8.80      0.00
    5   12    2     -0.93      0.00
    6   12    2     -6.50      0.00
    7   12    2     -7.79      0.00
    8   12    2    -11.79      0.00
    9   12    2      0.27      0.00
   10   12    2      2.24      0.00
   11   12    2     -1.14      0.00
   13   12    2      1.63      0.00
   14   12    2     -3.19      0.00
   15   12    2      3.53      0.00
   16   12    2     -3.50      0.00
   17   12    2     -0.14      0.00
   18   12    2      0.53      0.00
   19   12    2     -1.98      0.00
   20   12    2     -2.23      0.00
   -8   13    2     -3.43      0.00
   -7   13    2     -2.63      0.00
   -6   13    2     -4.74      0.00
   -5   13    2      2.71      0.00
   -4   13    2      7.57      0.00
   -3   13    2      0.50      0.00
   -2   13    2      0.54      0.00
   -1   13    2     -6.97      0.00
    0   13    2     -5.08      0.00
    1   13    2      5.41      0.00
    2   13    2     -0.54      0.00
    3   13    2      2.69      0.00
    4   13    2     -8.05      0.00
    5   13    2     -7.69      0.00
    6   13    2      0.21      0.00
    7   13    2      6.58      0.00
    8   13    2     -5.72      0.00
    9   13    2     -4.92      0.00
   10   13    2      0.78      0.00
   11   13    2     -9.24      0.00
   12   13    2      0.99      0.00
   13   13    2      1.24      0.00
   14   13    2      7.31      0.00
   15   13    2     -1.74      0.00
   16   13    2     -3.33      0.00
   17   13    2    -10.11      0.00
   18   13    2     -0.44      0.00
   19   13    2     -5.52      0.00
   20   13    2     -7.01      0.00
   -7   14    2      0.18      0.00
   -6   14    2     -5.47      0.00
   -5   14    2      2.48      0.00
   -4   14    2      0.11      0.00
   -3   14    2      1.66      0.00
   -2   14    2     -2.56      0.00
   -1   14    2    -11.13      0.00
    0   14    2     -0.59      0.00
    1   14    2      0.58      0.00
    2   14    2     -0.13      0.00
    3   14    2      5.00      0.00
    4   14    2      1.05      0.00
    5   14    2     -1.74      0.00
    6   14    2     -2.19      0.00
    7   14    2     -5.78      0.00
    8   14    2      6.25      0.00
    9   14    2     -4.99      0.00
   10   14    2      2.28      0.00
   11   14    2     -5.53      0.00
   12   14    2      0.12      0.00
   13   14    2     -1.96      0.00
   14   14    2      0.23      0.00
   15   14    2      1.44      0.00
   16   14    2      4.42      0.00
   17   14    2     -1.76      0.00
   18   14    2     -3.09      0.00
   19   14    2     -1.70      0.00
   20   14    2     -0.66      0.00
   -6   15    2     -7.21      0.00
   -5   15    2      8.50      0.00
   -4   15    2      1.35      0.00
   -3   15    2      0.31      0.00
   -2   15    2     -2.58      0.00
   -1   15    2      0.68      0.00
    0   15    2     -0.88      0.00
    1   15    2     -4.77      0.00
    2   15    2      1.92      0.00
    3   15    2     -2.44      0.00
    4   15    2      1.07      0.00
    5   15    2      0.33      0.00
    6   15    2     -3.08      0.00
    7   15    2     -1.17      0.00
    8   15    2     -3.06      0.00
    9   15    2     -7.53      0.00
   10   15    2     -3.21      0.00
   11   15    2      1.47      0.00
   12   15    2      1.04      0.00
   13   15    2     -7.34      0.00
   14   15    2     -0.14      0.00
   15   15    2     -5.03      0.00
   16   15    2      3.16      0.00
   17   15    2     -4.24      0.00
   18   15    2      2.89      0.00
   19   15    2     -1.69      0.00
   20   15    2      5.22      0.00
   -5   16    2      4.84      0.00
   -4   16    2      5.20      0.00
   -3   16    2      4.70      0.00
   -2   16    2      3.18      0.00
   -1   16    2     -7.74      0.00
    0   16    2     -2.78      0.00
    1   16    2      1.72      0.00
    2   16    2      1.71      0.00
    3   16    2      2.60      0.00
    4   16    2     -4.90      0.00
    5   16    2     -2.42      0.00
    6   16    2      1.62      0.00
    7   16    2      5.86      0.00
    8   16    2     -1.59      0.00
    9   16    2     -6.33      0.00
   10   16    2     -5.40      0.00
   11   16    2     -3.52      0.00
   12   16    2      7.76      0.00
   13   16    2      0.36      0.00
   14   16    2      3.66      0.00
   15   16    2     -2.85      0.00
   16   16    2     -1.22      0.00
   17   16    2     -4.42      0.00
   18   16    2      4.97      0.00
   19   16    2      4.09      0.00
   20   16    2      3.87      0.00
   -3   17    2      0.97      0.00
   -2   17    2      6.08      0.00
   -1   17    2     -3.07      0.00
    0   17    2      3.31      0.00
    1   17    2     -4.98      0.00
    2   17    2      5.64      0.00
    3   17    2     -7.16      0.00
    4   17    2     -0.38      0.00
    5   17    2     -2.53      0.00
    6   17    2      0.48      0.00
    7   17    2     -2.20      0.00
    8   17    2      2.53      0.00
    9   17    2      5.31      0.00
   10   17    2     -3.61      0.00
   11   17    2      2.75      0.00
   12   17    2     -2.33      0.00
   13   17    2     -5.09      0.00
   14   17    2     -2.32      0.00
   15   17    2     -0.57      0.00
   16   17    2      3.33      0.00
   17   17    2     -6.79      0.00
   18   17    2     -0.59      0.00
   19   17    2     -2.37      0.00
   -2   18    2      4.42      0.00
   -1   18    2     -2.40      0.00
    0   18    2      3.34      0.00
    1   18    2      5.22      0.00
    2   18    2     -2.44      0.00
    3   18    2     -7.80      0.00
    4   18    2     -3.78      0.00
    5   18    2     -0.34      0.00
    6   18    2     -0.78      0.00
    7   18    2      2.92      0.00
    8   18    2      1.13      0.00
    9   18    2      0.48      0.00
   10   18    2      3.27      0.00
   11   18    2     -2.96      0.00
   12   18    2      6.84      0.00
   13   18    2      7.23      0.00
   14   18    2      3.13      0.00
   15   18    2     -6.88      0.00
   16   18    2     -0.30      0.00
   17   18    2     -1.93      0.00
   18   18    2     -0.95      0.00
   19   18    2      1.27      0.00
    0   19    2     -0.33      0.00
    1   19    2      2.02      0.00
    2   19    2     -4.56      0.00
    3   19    2     -4.89      0.00
    4   19    2      5.20      0.00
    5   19    2      2.41      0.00
    6   19    2      1.15      0.00
    7   19    2     -5.27      0.00
    8   19    2      4.24      0.00
    9   19    2      2.17      0.00
   10   19    2      7.20      0.00
   11   19    2     -1.94      0.00
   12   19    2     -2.16      0.00
   13   19    2      6.18      0.00
   14   19    2     -8.97      0.00
   15   19    2     -3.21      0.00
   16   19    2     -0.56      0.00
   17   19    2      0.99      0.00
   18   19    2     -3.57      0.00
    1   20    2      6.58      0.00
    2   20    2     -8.45      0.00
    3   20    2     -1.74      0.00
    4   20    2     -0.43      0.00
    5   20    2      1.74      0.00
    6   20    2      4.60      0.00
    7   20    2     -2.26      0.00
    8   20    2     -2.28      0.00
    9   20    2     -1.49      0.00
   10   20    2     -2.37      0.00
   11   20    2      0.23      0.00
   12   20    2      2.19      0.00
   13   20    2      2.83      0.00
   14   20    2     -7.14      0.00
   15   20    2     -5.73      0.00
   16   20    2      2.06      0.00
   17   20    2      5.45      0.00
    3   21    2     -0.50      0.00
    4   21    2      5.45      0.00
    5   21    2     -2.50      0.00
    6   21    2      2.86      0.00
    7   21    2     -1.48      0.00
    8   21    2      2.59      0.00
    9   21    2      1.76      0.00
   10   21    2     -0.16      0.00
   11   21    2     -3.83      0.00
   12   21    2     -3.45      0.00
   13   21    2      0.13      0.00
   14   21    2    -10.48      0.00
   15   21    2     -3.83      0.00
   16   21    2     -1.85      0.00
    6   22    2     -4.27      0.00
    7   22    2     -1.60      0.00
    8   22    2      5.19      0.00
    9   22    2      1.93      0.00
   10   22    2     -2.37      0.00
   11   22    2     -4.30      0.00
   12   22    2     -0.74      0.00
   13   22    2      1.15      0.00
   14   22    2     -3.74      0.00
  -11  -22    3     -0.45      0.00
  -10  -22    3     -1.36      0.00
   -9  -22    3     -2.03      0.00
   -8  -22    3      1.51      0.00
   -7  -22    3     -1.96      0.00
   -6  -22    3      0.72      0.00
  -14  -21    3     -2.21      0.00
  -13  -21    3      0.07      0.00
  -12  -21    3     -3.28      0.00
  -11  -21    3      8.42      0.00
  -10  -21    3     -3.29      0.00
   -9  -21    3      2.24      0.00
   -8  -21    3     -5.22      0.00
   -7  -21    3      3.54      0.00
   -6  -21    3      3.91      0.00
   -5  -21    3      4.03      0.00
   -4  -21    3     -2.16      0.00
   -3  -21    3     -0.04      0.00
  -15  -20    3      2.66      0.00
  -14  -20    3      0.30      0.00
  -13  -20    3      4.78      0.00
  -12  -20    3     -3.47      0.00
  -11  -20    3      1.53      0.00
  -10  -20    3      3.70      0.00
   -9  -20    3      7.89      0.00
   -8  -20    3      4.73      0.00
   -7  -20    3     -6.82      0.00
   -6  -20    3     -2.37      0.00
   -5  -20    3      5.07      0.00
   -4  -20    3      4.40      0.00
   -3  -20    3      5.94      0.00
   -2  -20    3     -2.92      0.00
   -1  -20    3      4.09      0.00
    0  -20    3     -4.72      0.00
  -16  -19    3      2.51      0.00
  -15  -19    3     -0.99      0.00
  -14  -19    3     -2.45      0.00
  -13  -19    3      3.36      0.00
  -12  -19    3      2.43      0.00
  -11  -19    3      3.58      0.00
  -10  -19    3     -0.90      0.00
   -9  -19    3      7.63      0.00
   -8  -19    3      3.97      0.00
   -7  -19    3      4.12      0.00
   -6  -19    3      3.39      0.00
   -5  -19    3      5.62      0.00
   -4  -19    3     -1.94      0.00
   -3  -19    3     -3.29      0.00
   -2  -19    3     -2.28      0.00
   -1  -19    3      4.37      0.00
    0  -19    3     -4.60      0.00
    1  -19    3      7.87      0.00
    2  -19    3     -0.88      0.00
  -17  -18    3     -2.98      0.00
  -16  -18    3      2.78      0.00
  -15  -18    3      9.01      0.00
  -14  -18    3      7.07      0.00
  -13  -18    3      2.14      0.00
  -12  -18    3     -6.85      0.00
  -11  -18    3      5.09      0.00
  -10  -18    3      0.18      0.00
   -9  -18    3     -0.08      0.00
   -8  -18    3      5.99      0.00
   -7  -18    3     -2.43      0.00
   -6  -18    3     12.49      0.00
   -5  -18    3     -0.18      0.00
   -4  -18    3      2.65      0.00
   -3  -18    3      0.25      0.00
   -2  -18    3      3.73      0.00
   -1  -18    3      7.95      0.00
    0  -18    3      3.80      0.00
    1  -18    3     -3.45      0.00
    2  -18    3      1.42      0.00
    3  -18    3      0.42      0.00
  -18  -17    3     -0.81      0.00
  -17  -17    3      2.84      0.00
  -16  -17    3      2.43      0.00
  -15  -17    3      0.84      0.00
  -14  -17    3      1.44      0.00
  -13  -17    3     -2.93      0.00
  -12  -17    3     -0.04      0.00
  -11  -17    3      3.97      0.00
  -10  -17    3      4.75      0.00
   -9  -17    3     -4.96      0.00
   -8  -17    3     -1.05      0.00
   -7  -17    3      3.07      0.00
   -6  -17    3      4.13      0.00
   -5  -17    3      2.20      0.00
   -4  -17    3     -1.34      0.00
   -3  -17    3     -2.11      0.00
   -2  -17    3      5.18      0.00
   -1  -17    3      2.70      0.00
    0  -17    3      5.41      0.00
    1  -17    3      3.77      0.00
    2  -17    3      1.78      0.00
    3  -17    3      1.04      0.00
    4  -17    3     -0.58      0.00
    5  -17    3      4.20      0.00
  -18  -16    3      3.11      0.00
  -17  -16    3      2.98      0.00
  -16  -16    3      2.32      0.00
  -15  -16    3     -3.75      0.00
  -14  -16    3      4.58      0.00
  -13  -16    3     -1.12      0.00
  -12  -16    3     -1.62      0.00
  -11  -16    3      0.30      0.00
  -10  -16    3     -0.84      0.00
   -9  -16    3      5.83      0.00
   -8  -16    3      6.81      0.00
   -7  -16    3     -0.55      0.00
   -6  -16    3     -2.97      0.00
   -5  -16    3     -1.43      0.00
   -4  -16    3      3.65      0.00
   -3  -16    3      3.15      0.00
   -2  -16    3      1.48      0.00
   -1  -16    3     -3.78      0.00
    0  -16    3      1.02      0.00
    1  -16    3      1.19      0.00
    2  -16    3      2.12      0.00
    3  -16    3      0.38      0.00
    4  -16    3     -5.09      0.00
    5  -16    3     -2.48      0.00
    6  -16    3      1.13      0.00
  -18  -15    3     -0.62      0.00
  -17  -15    3     -4.94      0.00
  -16  -15    3      0.45      0.00
  -15  -15    3     -8.06      0.00
  -14  -15    3     -1.52      0.00
  -13  -15    3     -1.92      0.00
  -12  -15    3      4.28      0.00
  -11  -15    3      0.45      0.00
  -10  -15    3      6.69      0.00
   -9  -15    3     -2.27      0.00
   -8  -15    3     -4.56      0.00
   -7  -15    3      0.11      0.00
   -6  -15    3      1.22      0.00
   -5  -15    3      1.71      0.00
   -4  -15    3     -2.28      0.00
   -3  -15    3      0.87      0.00
   -2  -15    3      1.50      0.00
   -1  -15    3     -1.07      0.00
    0  -15    3     -2.79      0.00
    1  -15    3     -3.01      0.00
    2  -15    3     -1.70      0.00
    3  -15    3      0.59      0.00
    4  -15    3      1.14      0.00
    5  -15    3     -0.86      0.00
    6  -15    3     -2.49      0.00
    7  -15    3     -5.37      0.00
  -19  -14    3      0.29      0.00
  -18  -14    3      1.67      0.00
  -17  -14    3     -5.68      0.00
  -16  -14    3      4.90      0.00
  -15  -14    3     -7.62      0.00
  -14  -14    3      1.98      0.00
  -13  -14    3     -2.55      0.00
  -12  -14    3      3.56      0.00
  -11  -14    3     -4.34      0.00
  -10  -14    3     -4.88      0.00
   -9  -14    3      4.05      0.00
   -8  -14    3     -8.26      0.00
   -7  -14    3      5.11      0.00
   -6  -14    3      3.35      0.00
   -5  -14    3      7.41      0.00
   -4  -14    3     -5.70      0.00
   -3  -14    3     -0.46      0.00
   -2  -14    3     -0.02      0.00
   -1  -14    3      2.86      0.00
    0  -14    3      0.61      0.00
    1  -14    3     -8.06      0.00
    2  -14    3     -0.83      0.00
    3  -14    3     -9.29      0.00
    4  -14    3      2.15      0.00
    5  -14    3      2.46      0.00
    6  -14    3     -1.75      0.00
    7  -14    3      0.05      0.00
    8  -14    3     -2.34      0.00
  -19  -13    3      2.55      0.00
  -18  -13    3      2.44      0.00
  -17  -13    3     -6.72      0.00
  -16  -13    3     -2.66      0.00
  -15  -13    3     -1.30      0.00
  -14  -13    3     -1.24      0.00
  -13  -13    3      1.13      0.00
  -12  -13    3      0.03      0.00
  -11  -13    3     -0.08      0.00
  -10  -13    3     -2.78      0.00
   -9  -13    3      8.94      0.00
   -8  -13    3    -12.07      0.00
   -7  -13    3     -2.59      0.00
   -6  -13    3    -11.48      0.00
   -5  -13    3      5.17      0.00
   -4  -13    3     -0.67      0.00
   -3  -13    3      5.53      0.00
   -2  -13    3      0.60      0.00
   -1  -13    3      0.67      0.00
    0  -13    3     -3.92      0.00
    1  -13    3      3.44      0.00
    2  -13    3      4.34      0.00
    3  -13    3     -4.37      0.00
    4  -13    3      0.85      0.00
    5  -13    3     -1.49      0.00
    6  -13    3      0.84      0.00
    7  -13    3     -0.05      0.00
    8  -13    3      1.48      0.00
    9  -13    3     -3.66      0.00
  -19  -12    3      4.63      0.00
  -18  -12    3     -1.59      0.00
  -17  -12    3     -2.12      0.00
  -16  -12    3     -0.22      0.00
  -15  -12    3     -4.79      0.00
  -14  -12    3     -2.78      0.00
  -13  -12    3     -4.64      0.00
  -12  -12    3     -1.83      0.00
  -11  -12    3     -1.25      0.00
  -10  -12    3     -4.37      0.00
   -9  -12    3      3.55      0.00
   -8  -12    3    -16.99      0.00
   -7  -12    3      4.49      0.00
   -6  -12    3     -8.45      0.00
   -5  -12    3     16.78      0.00
   -4  -12    3    -13.71      0.00
   -3  -12    3     -1.81      0.00
   -2  -12    3     -0.63      0.00
   -1  -12    3     11.06      0.00
    0  -12    3     -5.18      0.00
    1  -12    3     -3.42      0.00
    2  -12    3     -0.76      0.00
    3  -12    3     -3.51      0.00
    4  -12    3      1.29      0.00
    5  -12    3     -1.52      0.00
    6  -12    3      1.01      0.00
    7  -12    3     -1.44      0.00
    8  -12    3     -3.00      0.00
    9  -12    3     -5.90      0.00
   10  -12    3      2.21      0.00
  -19  -11    3      2.19      0.00
  -18  -11    3     -1.60      0.00
  -17  -11    3     -0.91      0.00
  -16  -11    3     -2.52      0.00
  -15  -11    3      1.77      0.00
  -14  -11    3     -4.20      0.00
  -13  -11    3      3.02      0.00
  -12  -11    3     -5.03      0.00
  -11  -11    3     -0.86      0.00
  -10  -11    3     -7.67      0.00
   -9  -11    3      2.91      0.00
   -8  -11    3    -13.40      0.00
   -7  -11    3      6.95      0.00
   -6  -11    3    -20.99      0.00
   -5  -11    3     -1.17      0.00
   -4  -11    3     -1.11      0.00
   -3  -11    3      4.22      0.00
   -2  -11    3      2.13      0.00
   -1  -11    3     -1.47      0.00
    0  -11    3    -12.59      0.00
    1  -11    3      3.90      0.00
    2  -11    3      8.97      0.00
    3  -11    3      1.89      0.00
    4  -11    3     -0.84      0.00
    5  -11    3     -8.17      0.00
    6  -11    3     -1.63      0.00
    7  -11    3      2.16      0.00
    8  -11    3     -1.22      0.00
    9  -11    3     -0.21      0.00
   10  -11    3      4.60      0.00
   11  -11    3      1.74      0.00
  -19  -10    3     -0.18      0.00
  -18  -10    3     -6.06      0.00
  -17  -10    3      2.97      0.00
  -16  -10    3     -4.90      0.00
  -15  -10    3      0.56      0.00
  -14  -10    3      0.25      0.00
  -13  -10    3      1.50      0.00
  -12  -10    3     -3.66      0.00
  -11  -10    3     -3.97      0.00
  -10  -10    3      1.72      0.00
   -9  -10    3    -11.69      0.00
   -8  -10    3    -14.08      0.00
   -7  -10    3      3.90      0.00
   -6  -10    3      1.70      0.00
   -5  -10    3      5.67      0.00
   -4  -10    3      3.64      0.00
   -3  -10    3     -0.41      0.00
   -2  -10    3    -10.51      0.00
   -1  -10    3      9.91      0.00
    0  -10    3    -11.36      0.00
    1  -10    3      6.67      0.00
    2  -10    3    -18.33      0.00
    3  -10    3      7.00      0.00
    4  -10    3      0.33      0.00
    5  -10    3     -1.40      0.00
    6  -10    3      6.41      0.00
    7  -10    3     -6.16      0.00
    8  -10    3     -3.26      0.00
    9  -10    3     -0.07      0.00
   10  -10    3     -0.03      0.00
   11  -10    3      0.08      0.00
   12  -10    3     -0.56      0.00
  -19   -9    3     -1.80      0.00
  -18   -9    3     -5.91      0.00
  -17   -9    3      3.94      0.00
  -16   -9    3     -3.13      0.00
  -15   -9    3      1.19      0.00
  -14   -9    3     -0.03      0.00
  -13   -9    3     10.07      0.00
  -12   -9    3     -2.12      0.00
  -11   -9    3     -4.09      0.00
  -10   -9    3      5.80      0.00
   -9   -9    3     -6.67      0.00
   -8   -9    3    -12.97      0.00
   -7   -9    3     12.20      0.00
   -6   -9    3    -12.62      0.00
   -5   -9    3      2.47      0.00
   -4   -9    3      3.78      0.00
   -3   -9    3     10.32      0.00
   -2   -9    3    -10.47      0.00
   -1   -9    3     17.60      0.00
    0   -9    3     -2.16      0.00
    1   -9    3      8.47      0.00
    2   -9    3     11.18      0.00
    3   -9    3     -3.39      0.00
    4   -9    3    -12.19      0.00
    5   -9    3      7.88      0.00
    6   -9    3      2.40      0.00
    7   -9    3     -1.11      0.00
    8   -9    3     -4.87      0.00
    9   -9    3     -1.15      0.00
   10   -9    3     -0.76      0.00
   11   -9    3     -1.07      0.00
   12   -9    3      1.13      0.00
   13   -9    3      3.30      0.00
  -19   -8    3      3.23      0.00
  -18   -8    3     -0.72      0.00
  -17   -8    3      4.07      0.00
  -16   -8    3      0.31      0.00
  -15   -8    3     -0.50      0.00
  -14   -8    3     -0.92      0.00
  -13   -8    3      7.78      0.00
  -12   -8    3     -4.83      0.00
  -11   -8    3      1.75      0.00
  -10   -8    3      3.66      0.00
   -9   -8    3     -0.42      0.00
   -8   -8    3     -8.41      0.00
   -7   -8    3      5.13      0.00
   -6   -8    3    -11.49      0.00
   -5   -8    3      4.68      0.00
   -4   -8    3     22.17      0.00
   -3   -8    3     10.71      0.00
   -2   -8    3      4.54      0.00
   -1   -8    3     -0.42      0.00
    0   -8    3    -24.42      0.00
    1   -8    3     13.40      0.00
    2   -8    3     -1.23      0.00
    3   -8    3     26.63      0.00
    4   -8    3      3.64      0.00
    5   -8    3     -4.81      0.00
    6   -8    3     -9.79      0.00
    7   -8    3      2.82      0.00
    8   -8    3     -1.67      0.00
    9   -8    3      2.08      0.00
   10   -8    3     -1.60      0.00
   11   -8    3    -11.26      0.00
   12   -8    3      4.06      0.00
   13   -8    3      2.22      0.00
   14   -8    3      2.43      0.00
  -19   -7    3      1.11      0.00
  -18   -7    3     -3.35      0.00
  -17   -7    3     -2.82      0.00
  -16   -7    3     -1.00      0.00
  -15   -7    3      0.62      0.00
  -14   -7    3     -0.97      0.00
  -13   -7    3      4.77      0.00
  -12   -7    3     -1.99      0.00
  -11   -7    3      6.71      0.00
  -10   -7    3     -9.22      0.00
   -9   -7    3     -6.65      0.00
   -8   -7    3    -12.59      0.00
   -7   -7    3      7.89      0.00
   -6   -7    3      3.73      0.00
   -5   -7    3      8.34      0.00
   -4   -7    3    -28.30      0.00
   -3   -7    3    -12.16      0.00
   -2   -7    3    -15.76      0.00
   -1   -7    3     36.03      0.00
    0   -7    3     19.26      0.00
    1   -7    3      4.19      0.00
    2   -7    3     -0.51      0.00
    3   -7    3     -6.89      0.00
    4   -7    3     -6.99      0.00
    5   -7    3      9.73      0.00
    6   -7    3     14.88      0.00
    7   -7    3    -12.58      0.00
    8   -7    3     -4.68      0.00
    9   -7    3     -4.36      0.00
   10   -7    3     -1.36      0.00
   11   -7    3      1.39      0.00
   12   -7    3      5.53      0.00
   13   -7    3      3.03      0.00
   14   -7    3     -0.62      0.00
  -19   -6    3      0.82      0.00
  -18   -6    3     -0.10      0.00
  -17   -6    3     -0.24      0.00
  -16   -6    3      0.06      0.00
  -15   -6    3     -2.79      0.00
  -14   -6    3     -1.86      0.00
  -13   -6    3      4.10      0.00
  -12   -6    3    -10.55      0.00
  -11   -6    3      2.52      0.00
  -10   -6    3     -6.82      0.00
   -9   -6    3     19.17      0.00
   -8   -6    3     -2.32      0.00
   -7   -6    3      4.73      0.00
   -6   -6    3    -41.05      0.00
   -5   -6    3      9.87      0.00
   -4   -6    3     -9.94      0.00
   -3   -6    3    -24.99      0.00
   -2   -6    3     12.96      0.00
   -1   -6    3     -3.20      0.00
    0   -6    3    -26.30      0.00
    1   -6    3     -7.31      0.00
    2   -6    3     37.48      0.00
    3   -6    3      8.54      0.00
    4   -6    3     13.06      0.00
    5   -6    3     -3.53      0.00
    6   -6    3    -18.17      0.00
    7   -6    3      8.95      0.00
    8   -6    3      4.76      0.00
    9   -6    3     -2.73      0.00
   10   -6    3      6.87      0.00
   11   -6    3     -7.55      0.00
   12   -6    3      1.44      0.00
   13   -6    3      2.24      0.00
   14   -6    3     -0.71      0.00
   15   -6    3      0.55      0.00
  -18   -5    3      2.14      0.00
  -17   -5    3     -4.41      0.00
  -16   -5    3     -1.87      0.00
  -15   -5    3      0.73      0.00
  -14   -5    3      5.21      0.00
  -13   -5    3     -1.62      0.00
  -12   -5    3    -10.50      0.00
  -11   -5    3      8.03      0.00
  -10   -5    3    -22.75      0.00
   -9   -5    3     -4.15      0.00
   -8   -5    3     -3.24      0.00
   -7   -5    3     11.69      0.00
   -6   -5    3      3.20      0.00
   -5   -5    3     18.40      0.00
   -4   -5    3    -41.61      0.00
   -3   -5    3    -54.29      0.00
   -2   -5    3      2.39      0.00
   -1   -5    3      0.49      0.00
    0   -5    3     11.52      0.00
    1   -5    3     16.47      0.00
    2   -5    3      2.21      0.00
    3   -5    3      8.42      0.00
    4   -5    3     -2.32      0.00
    5   -5    3     -5.73      0.00
    6   -5    3     20.30      0.00
    7   -5    3    -14.41      0.00
    8   -5    3     -6.08      0.00
    9   -5    3      3.65      0.00
   10   -5    3      2.13      0.00
   11   -5    3      1.66      0.00
   12   -5    3      5.56      0.00
   13   -5    3     -2.68      0.00
   14   -5    3     -3.56      0.00
   15   -5    3      0.52      0.00
   16   -5    3      0.15      0.00
  -18   -4    3     -0.06      0.00
  -17   -4    3      2.13      0.00
  -16   -4    3     -2.45      0.00
  -15   -4    3      1.06      0.00
  -14   -4    3      1.16      0.00
  -13   -4    3      0.34      0.00
  -12   -4    3    -10.56      0.00
  -11   -4    3      4.81      0.00
  -10   -4    3     -9.91      0.00
   -9   -4    3     14.69      0.00
   -8   -4    3      1.35      0.00
   -7   -4    3     14.88      0.00
   -6   -4    3    -25.67      0.00
   -5   -4    3     18.73      0.00
   -4   -4    3      0.82      0.00
   -3   -4    3    -35.50      0.00
   -2   -4    3    -11.89      0.00
   -1   -4    3    -18.16      0.00
    0   -4    3    -10.11      0.00
    1   -4    3    -40.18      0.00
    2   -4    3     53.37      0.00
    3   -4    3    -19.27      0.00
    4   -4    3     -1.07      0.00
    5   -4    3      2.35      0.00
    6   -4    3     -8.07      0.00
    7   -4    3     -5.12      0.00
    8   -4    3      9.94      0.00
    9   -4    3      2.92      0.00
   10   -4    3     -3.68      0.00
   11   -4    3     -0.46      0.00
   12   -4    3     -4.47      0.00
   13   -4    3      2.66      0.00
   14   -4    3     -0.13      0.00
   15   -4    3      7.31      0.00
   16   -4    3      0.31      0.00
  -18   -3    3      7.03      0.00
  -17   -3    3     -0.60      0.00
  -16   -3    3     -2.20      0.00
  -15   -3    3     -0.31      0.00
  -14   -3    3      1.79      0.00
  -13   -3    3     -2.69      0.00
  -12   -3    3     -7.98      0.00
  -11   -3    3      9.08      0.00
  -10   -3    3     -6.63      0.00
   -9   -3    3      3.37      0.00
   -8   -3    3      0.93      0.00
   -7   -3    3     -2.60      0.00
   -6   -3    3     -7.93      0.00
   -5   -3    3     24.23      0.00
   -4   -3    3     15.18      0.00
   -3   -3    3    -39.16      0.00
   -2   -3    3     52.70      0.00
   -1   -3    3    -58.58      0.00
    0   -3    3    -70.63      0.00
    1   -3    3    -16.63      0.00
    2   -3    3    -31.11      0.00
    3   -3    3     -4.35      0.00
    4   -3    3      3.43      0.00
    5   -3    3    -19.15      0.00
    6   -3    3    -16.00      0.00
    7   -3    3     -5.31      0.00
    8   -3    3     -9.10      0.00
    9   -3    3      2.33      0.00
   10   -3    3      5.04      0.00
   11   -3    3     -5.99      0.00
   12   -3    3      1.10      0.00
   13   -3    3     -0.05      0.00
   14   -3    3     -4.14      0.00
   15   -3    3      6.47      0.00
   16   -3    3     -1.29      0.00
   17   -3    3      2.17      0.00
  -17   -2    3      1.09      0.00
  -16   -2    3     -4.36      0.00
  -15   -2    3     -2.59      0.00
  -14   -2    3     -2.62      0.00
  -13   -2    3      3.61      0.00
  -12   -2    3     -1.58      0.00
  -11   -2    3      3.90      0.00
  -10   -2    3     -5.34      0.00
   -9   -2    3     11.59      0.00
   -8   -2    3      7.08      0.00
   -7   -2    3     -0.83      0.00
   -6   -2    3     -6.28      0.00
   -5   -2    3      7.02      0.00
   -4   -2    3    -28.26      0.00
   -3   -2    3     -0.98      0.00
   -2   -2    3    -37.37      0.00
   -1   -2    3     42.70      0.00
    0   -2    3    -25.31      0.00
    1   -2    3    -39.94      0.00
    2   -2    3    -91.16      0.00
    3   -2    3    -91.63      0.00
    4   -2    3    -44.10      0.00
    5   -2    3      0.58      0.00
    6   -2    3     29.35      0.00
    7   -2    3    -21.52      0.00
    8   -2    3      1.68      0.00
    9   -2    3    -11.89      0.00
   10   -2    3     -9.01      0.00
   11   -2    3      4.40      0.00
   12   -2    3     -3.78      0.00
   13   -2    3     -1.84      0.00
   14   -2    3      1.99      0.00
   15   -2    3      2.96      0.00
   16   -2    3     -4.18      0.00
   17   -2    3      5.57      0.00
  -17   -1    3     -1.35      0.00
  -16   -1    3     -0.22      0.00
  -15   -1    3      0.07      0.00
  -14   -1    3      0.57      0.00
  -13   -1    3     -0.48      0.00
  -12   -1    3     -3.75      0.00
  -11   -1    3     -0.31      0.00
  -10   -1    3     -1.95      0.00
   -9   -1    3     12.51      0.00
   -8   -1    3     -2.22      0.00
   -7   -1    3     -0.49      0.00
   -6   -1    3    -30.94      0.00
   -5   -1    3      4.64      0.00
   -4   -1    3    -16.58      0.00
   -3   -1    3      6.40      0.00
   -2   -1    3     44.63      0.00
   -1   -1    3    -22.69      0.00
    0   -1    3   -152.35      0.00
    1   -1    3     -6.34      0.00
    2   -1    3    -53.66      0.00
    3   -1    3    -32.88      0.00
    4   -1    3     -7.35      0.00
    5   -1    3    -36.29      0.00
    6   -1    3    -43.69      0.00
    7   -1    3     15.14      0.00
    8   -1    3     10.14      0.00
    9   -1    3      1.40      0.00
   10   -1    3     13.58      0.00
   11   -1    3    -13.10      0.00
   12   -1    3      1.87      0.00
   13   -1    3     -3.94      0.00
   14   -1    3     -3.50      0.00
   15   -1    3     -0.40      0.00
   16   -1    3      1.28      0.00
   17   -1    3     -0.65      0.00
   18   -1    3      3.42      0.00
  -17    0    3      0.00      0.00
  -16    0    3      0.11      0.00
  -15    0    3      2.92      0.00
  -14    0    3      0.47      0.00
  -13    0    3      2.58      0.00
  -12    0    3     -3.79      0.00
  -11    0    3      5.85      0.00
  -10    0    3     -7.94      0.00
   -9    0    3      5.56      0.00
   -8    0    3      2.92      0.00
   -7    0    3    -13.80      0.00
   -6    0    3      5.51      0.00
   -5    0    3     25.56      0.00
   -4    0    3    -64.57      0.00
   -3    0    3     12.21      0.00
   -2    0    3    -17.69      0.00
   -1    0    3     50.63      0.00
    0    0    3    -20.83      0.00
    1    0    3    149.96      0.00
    2    0    3   -135.88      0.00
    3    0    3    -50.81      0.00
    4    0    3    -12.38      0.00
    5    0    3     -9.06      0.00
    6    0    3     27.75      0.00
    7    0    3    -29.83      0.00
    8    0    3      3.29      0.00
    9    0    3    -14.23      0.00
   10    0    3      4.85      0.00
   11    0    3     -8.72      0.00
   12    0    3      6.02      0.00
   13    0    3     -3.92      0.00
   14    0    3      0.17      0.00
   15    0    3      1.40      0.00
   16    0    3     -0.97      0.00
   17    0    3     -3.41      0.00
   18    0    3      0.91      0.00
  -16    1    3      9.17      0.00
  -15    1    3     -2.60      0.00
  -14    1    3      0.88      0.00
  -13    1    3      1.34      0.00
  -12    1    3     -2.52      0.00
  -11    1    3     -1.78      0.00
  -10    1    3      3.15      0.00
   -9    1    3      9.52      0.00
   -8    1    3     -7.82      0.00
   -7    1    3      3.85      0.00
   -6    1    3    -20.22      0.00
   -5    1    3     16.04      0.00
   -4    1    3    -11.37      0.00
   -3    1    3     40.45      0.00
   -2    1    3     12.14      0.00
   -1    1    3     -4.49      0.00
    0    1    3   -133.74      0.00
    1    1    3     10.14      0.00
    2    1    3     97.41      0.00
    3    1    3    -10.50      0.00
    4    1    3     27.60      0.00
    5    1    3    -17.00      0.00
    6    1    3    -25.47      0.00
    7    1    3     -7.39      0.00
    8    1    3     10.03      0.00
    9    1    3    -16.88      0.00
   10    1    3      4.18      0.00
   11    1    3     -5.36      0.00
   12    1    3     -1.08      0.00
   13    1    3     -3.19      0.00
   14    1    3      3.80      0.00
   15    1    3     -4.88      0.00
   16    1    3     -3.55      0.00
   17    1    3     -1.22      0.00
   18    1    3      1.05      0.00
   19    1    3      0.35      0.00
  -16    2    3      4.48      0.00
  -15    2    3     -2.25      0.00
  -14    2    3     -0.58      0.00
  -13    2    3     -3.06      0.00
  -12    2    3      2.44      0.00
  -11    2    3      7.69      0.00
  -10    2    3     -2.94      0.00
   -9    2    3      3.16      0.00
   -8    2    3      0.07      0.00
   -7    2    3     -4.98      0.00
   -6    2    3     -8.81      0.00
   -5    2    3     14.33      0.00
   -4    2    3    -31.04      0.00
   -3    2    3     13.13      0.00
   -2    2    3     23.91      0.00
   -1    2    3      4.52      0.00
    0    2    3    -23.67      0.00
    1    2    3    100.97      0.00
    2    2    3    -73.54      0.00
    3    2    3    -18.07      0.00
    4    2    3     -1.46      0.00
    5    2    3      4.40      0.00
    6    2    3     16.71      0.00
    7    2    3    -13.61      0.00
    8    2    3    -12.55      0.00
    9    2    3    -15.07      0.00
   10    2    3      5.79      0.00
   11    2    3    -20.45      0.00
   12    2    3      7.25      0.00
   13    2    3     -2.05      0.00
   14    2    3      2.99      0.00
   15    2    3      1.38      0.00
   16    2    3      0.61      0.00
   17    2    3      2.62      0.00
   18    2    3     -3.42      0.00
   19    2    3      0.38      0.00
  -15    3    3      1.13      0.00
  -14    3    3      6.39      0.00
  -13    3    3     -4.49      0.00
  -12    3    3     -3.66      0.00
  -11    3    3     -2.35      0.00
  -10    3    3     -1.17      0.00
   -9    3    3      5.97      0.00
   -8    3    3     -6.74      0.00
   -7    3    3     -3.30      0.00
   -6    3    3     12.04      0.00
   -5    3    3      7.97      0.00
   -4    3    3    -19.43      0.00
   -3    3    3     28.79      0.00
   -2    3    3    -23.86      0.00
   -1    3    3     23.83      0.00
    0    3    3     15.89      0.00
    1    3    3     -5.86      0.00
    2    3    3     -2.97      0.00
    3    3    3    -11.02      0.00
    4    3    3     -9.40      0.00
    5    3    3      4.91      0.00
    6    3    3     29.35      0.00
    7    3    3     -9.12      0.00
    8    3    3      1.11      0.00
    9    3    3    -13.35      0.00
   10    3    3    -14.21      0.00
   11    3    3     -2.37      0.00
   12    3    3     -0.10      0.00
   13    3    3     -1.25      0.00
   14    3    3     -0.69      0.00
   15    3    3     -3.08      0.00
   16    3    3     -1.91      0.00
   17    3    3      2.72      0.00
   18    3    3     -3.49      0.00
   19    3    3      3.15      0.00
  -15    4    3     -8.32      0.00
  -14    4    3      0.38      0.00
  -13    4    3      6.98      0.00
  -12    4    3      0.04      0.00
  -11    4    3      3.92      0.00
  -10    4    3     -1.09      0.00
   -9    4    3      0.36      0.00
   -8    4    3      1.43      0.00
   -7    4    3      5.74      0.00
   -6    4    3     -9.25      0.00
   -5    4    3     -2.14      0.00
   -4    4    3      1.34      0.00
   -3    4    3      9.49      0.00
   -2    4    3     17.95      0.00
   -1    4    3     -8.31      0.00
    0    4    3    -20.11      0.00
    1    4    3     34.90      0.00
    2    4    3     11.03      0.00
    3    4    3     67.67      0.00
    4    4    3      4.50      0.00
    5    4    3      8.80      0.00
    6    4    3    -12.90      0.00
    7    4    3      4.94      0.00
    8    4    3    -11.30      0.00
    9    4    3     10.26      0.00
   10    4    3      9.52      0.00
   11    4    3    -10.26      0.00
   12    4    3     -0.50      0.00
   13    4    3      1.35      0.00
   14    4    3      5.76      0.00
   15    4    3     -0.11      0.00
   16    4    3      3.43      0.00
   17    4    3      0.99      0.00
   18    4    3      0.96      0.00
   19    4    3     -3.63      0.00
   20    4    3      1.40      0.00
  -14    5    3     -5.81      0.00
  -13    5    3     -5.34      0.00
  -12    5    3     -2.00      0.00
  -11    5    3      4.59      0.00
  -10    5    3     -4.61      0.00
   -9    5    3      4.12      0.00
   -8    5    3     -6.18      0.00
   -7    5    3     -7.23      0.00
   -6    5    3     24.81      0.00
   -5    5    3     16.27      0.00
   -4    5    3     -7.38      0.00
   -3    5    3     16.80      0.00
   -2    5    3    -18.75      0.00
   -1    5    3     -8.30      0.00
    0    5    3     30.49      0.00
    1    5    3     19.05      0.00
    2    5    3    -20.98      0.00
    3    5    3     49.43      0.00
    4    5    3     25.76      0.00
    5    5    3      9.70      0.00
    6    5    3     55.96      0.00
    7    5    3     -3.30      0.00
    8    5    3    -15.43      0.00
    9    5    3    -11.09      0.00
   10    5    3     -3.27      0.00
   11    5    3      5.91      0.00
   12    5    3      6.13      0.00
   13    5    3     -0.25      0.00
   14    5    3     -2.94      0.00
   15    5    3     -2.20      0.00
   16    5    3      3.98      0.00
   17    5    3      2.53      0.00
   18    5    3      2.28      0.00
   19    5    3     -2.38      0.00
   20    5    3      2.65      0.00
  -13    6    3      1.08      0.00
  -12    6    3     -2.37      0.00
  -11    6    3     -2.28      0.00
  -10    6    3     -0.45      0.00
   -9    6    3      6.00      0.00
   -8    6    3     -0.52      0.00
   -7    6    3      2.80      0.00
   -6    6    3     -6.92      0.00
   -5    6    3     -2.80      0.00
   -4    6    3     12.38      0.00
   -3    6    3     22.33      0.00
   -2    6    3      7.67      0.00
   -1    6    3    -11.18      0.00
    0    6    3    -18.90      0.00
    1    6    3    -18.29      0.00
    2    6    3     25.99      0.00
    3    6    3     27.80      0.00
    4    6    3     38.81      0.00
    5    6    3     10.18      0.00
    6    6    3     -3.08      0.00
    7    6    3     -2.70      0.00
    8    6    3      2.52      0.00
    9    6    3     12.20      0.00
   10    6    3      0.76      0.00
   11    6    3     -4.66      0.00
   12    6    3     -0.71      0.00
   13    6    3      3.42      0.00
   14    6    3     -0.13      0.00
   15    6    3     -4.05      0.00
   16    6    3      1.85      0.00
   17    6    3     -4.82      0.00
   18    6    3     -2.51      0.00
   19    6    3     -5.08      0.00
   20    6    3      5.35      0.00
  -13    7    3     -3.65      0.00
  -12    7    3     -0.77      0.00
  -11    7    3     -0.45      0.00
  -10    7    3     -3.95      0.00
   -9    7    3     -4.41      0.00
   -8    7    3     -1.90      0.00
   -7    7    3      2.21      0.00
   -6    7    3      7.47      0.00
   -5    7    3     13.13      0.00
   -4    7    3    -13.93      0.00
   -3    7    3     -6.77      0.00
   -2    7    3      5.92      0.00
   -1    7    3     -2.05      0.00
    0    7    3     26.72      0.00
    1    7    3      9.00      0.00
    2    7    3    -33.44      0.00
    3    7    3    -14.30      0.00
    4    7    3     12.93      0.00
    5    7    3      7.08      0.00
    6    7    3     35.06      0.00
    7    7    3     -1.49      0.00
    8    7    3     -0.09      0.00
    9    7    3     -2.46      0.00
   10    7    3     -7.92      0.00
   11    7    3     -3.34      0.00
   12    7    3      7.27      0.00
   14    7    3      3.36      0.00
   15    7    3      0.28      0.00
   16    7    3      1.15      0.00
   17    7    3     -5.42      0.00
   18    7    3     -3.53      0.00
   19    7    3     -4.61      0.00
   20    7    3     -0.87      0.00
  -12    8    3      4.45      0.00
  -11    8    3     -1.71      0.00
  -10    8    3     -5.74      0.00
   -9    8    3     -1.81      0.00
   -8    8    3     -2.61      0.00
   -7    8    3      1.48      0.00
   -6    8    3      0.22      0.00
   -5    8    3     -1.79      0.00
   -4    8    3      3.64      0.00
   -3    8    3     18.40      0.00
   -2    8    3     -9.23      0.00
   -1    8    3     -5.98      0.00
    0    8    3     11.20      0.00
    1    8    3    -13.63      0.00
    2    8    3     29.70      0.00
    3    8    3    -18.02      0.00
    4    8    3     -4.82      0.00
    5    8    3    -17.69      0.00
    6    8    3     18.58      0.00
    7    8    3    -19.07      0.00
    8    8    3     18.08      0.00
    9    8    3     14.02      0.00
   10    8    3      1.07      0.00
   11    8    3      9.33      0.00
   12    8    3      4.91      0.00
   13    8    3     -4.18      0.00
   14    8    3      0.68      0.00
   15    8    3      5.38      0.00
   16    8    3      1.15      0.00
   17    8    3     -2.13      0.00
   18    8    3     -0.57      0.00
   19    8    3     -3.40      0.00
   20    8    3      1.75      0.00
   21    8    3     -0.61      0.00
  -11    9    3     -0.97      0.00
  -10    9    3     -1.39      0.00
   -9    9    3      0.11      0.00
   -8    9    3      1.87      0.00
   -7    9    3      5.91      0.00
   -6    9    3     -3.81      0.00
   -5    9    3      2.19      0.00
   -4    9    3      1.11      0.00
   -3    9    3     -3.74      0.00
   -2    9    3     10.93      0.00
   -1    9    3      4.85      0.00
    0    9    3     12.49      0.00
    1    9    3     -8.38      0.00
    2    9    3     14.23      0.00
    3    9    3     -2.19      0.00
    4    9    3     14.47      0.00
    5    9    3    -11.20      0.00
    6    9    3     -3.94      0.00
    7    9    3    -14.67      0.00
    8    9    3      9.08      0.00
    9    9    3     24.48      0.00
   10    9    3      1.33      0.00
   11    9    3     -3.91      0.00
   12    9    3     12.88      0.00
   13    9    3     -1.84      0.00
   14    9    3      1.18      0.00
   15    9    3      1.95      0.00
   16    9    3      0.00      0.00
   18    9    3      4.06      0.00
   19    9    3      1.88      0.00
   20    9    3     -2.43      0.00
   21    9    3     -4.79      0.00
  -10   10    3     -3.04      0.00
   -9   10    3      3.17      0.00
   -8   10    3     -3.37      0.00
   -7   10    3     -3.53      0.00
   -6   10    3      3.78      0.00
   -5   10    3      4.50      0.00
   -4   10    3     -2.16      0.00
   -3   10    3      7.26      0.00
   -2   10    3     -7.12      0.00
   -1   10    3     -6.94      0.00
    0   10    3     11.93      0.00
    1   10    3      0.03      0.00
    2   10    3      8.34      0.00
    3   10    3     -5.42      0.00
    4   10    3      4.38      0.00
    5   10    3     -9.64      0.00
    6   10    3     22.43      0.00
    7   10    3    -27.37      0.00
    8   10    3      2.23      0.00
    9   10    3      6.59      0.00
   10   10    3      5.79      0.00
   11   10    3      4.56      0.00
   12   10    3      8.81      0.00
   13   10    3      1.70      0.00
   14   10    3     -5.32      0.00
   15   10    3      1.96      0.00
   16   10    3     -4.46      0.00
   17   10    3     -0.20      0.00
   18   10    3      1.36      0.00
   19   10    3      1.62      0.00
   20   10    3      6.27      0.00
   21   10    3      1.85      0.00
  -10   11    3      0.14      0.00
   -9   11    3      2.22      0.00
   -8   11    3      1.98      0.00
   -7   11    3     -1.47      0.00
   -6   11    3      0.54      0.00
   -5   11    3     -5.14      0.00
   -4   11    3     -1.07      0.00
   -3   11    3     -1.92      0.00
   -2   11    3     -0.81      0.00
   -1   11    3      2.93      0.00
    0   11    3      0.26      0.00
    1   11    3     -6.03      0.00
    2   11    3     15.51      0.00
    3   11    3      2.24      0.00
    4   11    3     -0.01      0.00
    5   11    3    -10.95      0.00
    6   11    3     -3.02      0.00
    7   11    3     -1.74      0.00
    8   11    3     -5.69      0.00
    9   11    3     10.48      0.00
   10   11    3     -4.00      0.00
   11   11    3     -1.18      0.00
   12   11    3      0.76      0.00
   13   11    3      1.28      0.00
   14   11    3     -6.15      0.00
   15   11    3      3.87      0.00
   16   11    3     -3.30      0.00
   17   11    3      2.98      0.00
   18   11    3     -0.69      0.00
   19   11    3      0.50      0.00
   20   11    3      2.72      0.00
   21   11    3      2.48      0.00
   -9   12    3      5.94      0.00
   -8   12    3      2.81      0.00
   -7   12    3     -3.64      0.00
   -6   12    3      1.78      0.00
   -5   12    3      2.75      0.00
   -4   12    3     -3.06      0.00
   -3   12    3     -4.36      0.00
   -2   12    3     -3.33      0.00
   -1   12    3      2.37      0.00
    0   12    3      2.84      0.00
    1   12    3     12.27      0.00
    2   12    3     -3.85      0.00
    3   12    3     -1.79      0.00
    4   12    3     -8.79      0.00
    5   12    3     -1.32      0.00
    6   12    3     13.44      0.00
    7   12    3     -5.12      0.00
    8   12    3      0.62      0.00
    9   12    3     -2.85      0.00
   10   12    3      1.57      0.00
   11   12    3     -1.73      0.00
   12   12    3      5.42      0.00
   13   12    3      2.39      0.00
   14   12    3     -7.63      0.00
   15   12    3     -1.95      0.00
   16   12    3     -6.77      0.00
   17   12    3      2.88      0.00
   18   12    3      6.06      0.00
   19   12    3      3.36      0.00
   20   12    3      0.05      0.00
   21   12    3      6.69      0.00
   -8   13    3      5.69      0.00
   -7   13    3      2.07      0.00
   -6   13    3      0.38      0.00
   -5   13    3     -4.66      0.00
   -4   13    3     -8.23      0.00
   -3   13    3      1.11      0.00
   -2   13    3     -0.07      0.00
   -1   13    3      0.26      0.00
    0   13    3     -0.61      0.00
    1   13    3     -0.62      0.00
    2   13    3      9.42      0.00
    3   13    3      7.27      0.00
    4   13    3      5.50      0.00
    5   13    3      1.64      0.00
    6   13    3     -1.26      0.00
    7   13    3     -0.85      0.00
    8   13    3     14.25      0.00
    9   13    3      1.53      0.00
   10   13    3      6.15      0.00
   11   13    3      0.78      0.00
   12   13    3     -1.00      0.00
   13   13    3     -2.05      0.00
   14   13    3     -2.44      0.00
   15   13    3      6.36      0.00
   16   13    3      0.71      0.00
   17   13    3      1.00      0.00
   18   13    3     -6.37      0.00
   19   13    3      4.18      0.00
   20   13    3     -4.59      0.00
   21   13    3     -3.70      0.00
   -7   14    3      2.54      0.00
   -6   14    3      3.72      0.00
   -5   14    3      2.98      0.00
   -4   14    3     -4.40      0.00
   -3   14    3      1.72      0.00
   -2   14    3     -0.34      0.00
   -1   14    3      3.28      0.00
    0   14    3     -6.97      0.00
    1   14    3      2.98      0.00
    2   14    3     -0.59      0.00
    3   14    3      6.20      0.00
    4   14    3     -3.40      0.00
    5   14    3     10.25      0.00
    6   14    3      8.58      0.00
    7   14    3     -1.60      0.00
    8   14    3      6.75      0.00
    9   14    3     -0.80      0.00
   10   14    3      6.67      0.00
   11   14    3      3.83      0.00
   12   14    3     -0.64      0.00
   13   14    3     -2.87      0.00
   14   14    3     -0.25      0.00
   15   14    3      4.22      0.00
   16   14    3      6.38      0.00
   17   14    3      6.62      0.00
   18   14    3      1.64      0.00
   19   14    3      1.40      0.00
   20   14    3      0.39      0.00
   -6   15    3     -1.54      0.00
   -5   15    3      5.17      0.00
   -4   15    3      0.31      0.00
   -3   15    3      5.78      0.00
   -2   15    3     -7.74      0.00
   -1   15    3     -7.25      0.00
    0   15    3      5.72      0.00
    1   15    3      1.89      0.00
    2   15    3      3.76      0.00
    3   15    3      2.02      0.00
    4   15    3     -4.42      0.00
    5   15    3     10.44      0.00
    6   15    3      8.21      0.00
    7   15    3      3.40      0.00
    8   15    3      8.10      0.00
    9   15    3     -2.18      0.00
   10   15    3     -5.27      0.00
   11   15    3      2.46      0.00
   12   15    3      6.50      0.00
   13   15    3      0.36      0.00
   14   15    3     -0.44      0.00
   15   15    3     -3.22      0.00
   16   15    3      4.84      0.00
   17   15    3      3.32      0.00
   18   15    3      3.38      0.00
   19   15    3     -0.75      0.00
   20   15    3     -3.73      0.00
   -4   16    3     -3.47      0.00
   -3   16    3     -0.23      0.00
   -2   16    3      0.98      0.00
   -1   16    3      1.40      0.00
    0   16    3     -2.53      0.00
    1   16    3     -2.82      0.00
    2   16    3      4.03      0.00
    3   16    3     -1.20      0.00
    4   16    3      1.66      0.00
    5   16    3      7.49      0.00
    6   16    3     -2.69      0.00
    7   16    3      2.84      0.00
    8   16    3      4.61      0.00
    9   16    3      1.21      0.00
   10   16    3     -3.58      0.00
   11   16    3      1.88      0.00
   12   16    3     -3.39      0.00
   13   16    3      2.48      0.00
   14   16    3      4.58      0.00
   15   16    3      2.13      0.00
   16   16    3      5.48      0.00
   17   16    3     -4.76      0.00
   18   16    3      3.69      0.00
   19   16    3      2.42      0.00
   20   16    3      7.86      0.00
   -3   17    3     -2.70      0.00
   -2   17    3     -7.35      0.00
   -1   17    3     -1.08      0.00
    0   17    3      0.71      0.00
    1   17    3     -1.14      0.00
    2   17    3     -1.30      0.00
    3   17    3     -1.10      0.00
    4   17    3     -0.23      0.00
    5   17    3      3.56      0.00
    6   17    3     -1.17      0.00
    7   17    3      1.85      0.00
    8   17    3     -0.98      0.00
    9   17    3     -2.85      0.00
   10   17    3      1.52      0.00
   11   17    3     -2.13      0.00
   12   17    3      7.02      0.00
   13   17    3     -0.14      0.00
   14   17    3      1.74      0.00
   15   17    3     -5.94      0.00
   16   17    3      4.11      0.00
   17   17    3     -2.05      0.00
   18   17    3      1.40      0.00
   19   17    3     -3.28      0.00
   -2   18    3     -2.02      0.00
   -1   18    3      2.93      0.00
    0   18    3     -3.58      0.00
    1   18    3      3.39      0.00
    2   18    3     -0.23      0.00
    3   18    3      1.43      0.00
    4   18    3     -1.08      0.00
    5   18    3     -1.19      0.00
    6   18    3     -4.86      0.00
    7   18    3     -5.13      0.00
    8   18    3      4.29      0.00
    9   18    3     -0.49      0.00
   10   18    3      0.04      0.00
   11   18    3     -4.03      0.00
   12   18    3     -0.34      0.00
   13   18    3      2.27      0.00
   14   18    3      1.44      0.00
   15   18    3      1.98      0.00
   16   18    3      5.51      0.00
   17   18    3      2.30      0.00
   18   18    3      2.84      0.00
   19   18    3     -0.30      0.00
    0   19    3     -7.49      0.00
    1   19    3      5.04      0.00
    2   19    3     -5.05      0.00
    3   19    3     -1.47      0.00
    4   19    3     -1.66      0.00
    5   19    3     -0.53      0.00
    6   19    3     -2.81      0.00
    7   19    3     -2.33      0.00
    8   19    3     -0.95      0.00
    9   19    3      1.29      0.00
   10   19    3      2.16      0.00
   11   19    3      5.93      0.00
   12   19    3      2.53      0.00
   13   19    3      6.10      0.00
   14   19    3      8.48      0.00
   15   19    3     -6.64      0.00
   16   19    3      8.61      0.00
   17   19    3      3.25      0.00
   18   19    3     -0.87      0.00
    2   20    3      3.22      0.00
    3   20    3      0.69      0.00
    4   20    3      0.54      0.00
    5   20    3     -4.30      0.00
    6   20    3      1.50      0.00
    7   20    3      0.14      0.00
    8   20    3      2.61      0.00
    9   20    3     -3.44      0.00
   10   20    3     -1.76      0.00
   11   20    3     -2.85      0.00
   12   20    3      0.48      0.00
   13   20    3     -0.15      0.00
   14   20    3      3.77      0.00
   15   20    3     -1.35      0.00
   16   20    3      6.27      0.00
   17   20    3      6.60      0.00
    4   21    3     -0.31      0.00
    5   21    3     -4.52      0.00
    6   21    3      4.64      0.00
    7   21    3      1.84      0.00
    8   21    3      4.56      0.00
    9   21    3     -2.36      0.00
   10   21    3      4.84      0.00
   11   21    3      1.49      0.00
   12   21    3      4.08      0.00
   13   21    3     -4.09      0.00
   15   21    3     -1.22      0.00
   16   21    3      2.57      0.00
    7   22    3     -0.21      0.00
    8   22    3     -0.85      0.00
    9   22    3     -3.85      0.00
   10   22    3      0.80      0.00
   11   22    3      1.79      0.00
   12   22    3     -2.63      0.00
  -10  -22    4     -3.44      0.00
   -9  -22    4      0.64      0.00
   -8  -22    4     -1.92      0.00
   -7  -22    4     -0.01      0.00
   -6  -22    4     -1.46      0.00
  -13  -21    4      4.28      0.00
  -12  -21    4     -6.12      0.00
  -11  -21    4     -0.10      0.00
  -10  -21    4      1.67      0.00
   -9  -21    4      0.78      0.00
   -8  -21    4     -6.59      0.00
   -7  -21    4     -7.66      0.00
   -6  -21    4     -4.01      0.00
   -5  -21    4      5.00      0.00
   -4  -21    4     -0.49      0.00
   -3  -21    4     -4.05      0.00
  -15  -20    4     -4.24      0.00
  -14  -20    4     -1.81      0.00
  -13  -20    4      6.72      0.00
  -12  -20    4     -2.40      0.00
  -11  -20    4     -2.08      0.00
  -10  -20    4     -0.78      0.00
   -9  -20    4      3.49      0.00
   -8  -20    4      2.63      0.00
   -7  -20    4     -0.28      0.00
   -6  -20    4     -5.59      0.00
   -5  -20    4     -8.54      0.00
   -4  -20    4     -5.33      0.00
   -3  -20    4     -0.82      0.00
   -2  -20    4      2.88      0.00
   -1  -20    4      1.48      0.00
    0  -20    4     -3.36      0.00
  -16  -19    4      5.04      0.00
  -15  -19    4      3.32      0.00
  -14  -19    4     -2.34      0.00
  -13  -19    4      1.47      0.00
  -12  -19    4     -5.69      0.00
  -11  -19    4     -0.78      0.00
  -10  -19    4     -2.49      0.00
   -9  -19    4     -0.96      0.00
   -8  -19    4      2.05      0.00
   -7  -19    4     -7.39      0.00
   -6  -19    4      1.50      0.00
   -5  -19    4     -4.81      0.00
   -4  -19    4      1.66      0.00
   -3  -19    4     -0.23      0.00
   -2  -19    4      0.72      0.00
   -1  -19    4     -3.22      0.00
    0  -19    4     -8.94      0.00
    1  -19    4     -7.54      0.00
    2  -19    4     -4.46      0.00
  -17  -18    4      7.89      0.00
  -16  -18    4      0.64      0.00
  -15  -18    4     -5.06      0.00
  -14  -18    4      4.05      0.00
  -13  -18    4      3.69      0.00
  -12  -18    4     -3.64      0.00
  -11  -18    4     -0.48      0.00
  -10  -18    4      4.75      0.00
   -9  -18    4     -3.91      0.00
   -8  -18    4      2.37      0.00
   -7  -18    4     -4.35      0.00
   -6  -18    4     -1.16      0.00
   -5  -18    4      1.23      0.00
   -4  -18    4     -0.17      0.00
   -3  -18    4     -4.73      0.00
   -2  -18    4     -0.13      0.00
   -1  -18    4     -2.01      0.00
    0  -18    4     -0.94      0.00
    1  -18    4      2.26      0.00
    2  -18    4    -10.15      0.00
    3  -18    4      0.60      0.00
  -17  -17    4      2.53      0.00
  -16  -17    4      3.99      0.00
  -15  -17    4     -1.97      0.00
  -14  -17    4      5.45      0.00
  -13  -17    4     -2.14      0.00
  -12  -17    4     -8.43      0.00
  -11  -17    4     -2.97      0.00
  -10  -17    4      0.70      0.00
   -9  -17    4     -1.92      0.00
   -8  -17    4     -4.37      0.00
   -7  -17    4     -6.07      0.00
   -6  -17    4     -1.29      0.00
   -5  -17    4     -2.29      0.00
   -4  -17    4      2.18      0.00
   -3  -17    4      0.37      0.00
   -2  -17    4     -5.59      0.00
   -1  -17    4      1.57      0.00
    0  -17    4     -2.94      0.00
    1  -17    4      5.41      0.00
    2  -17    4     -3.40      0.00
    3  -17    4      5.50      0.00
    4  -17    4     -5.26      0.00
    5  -17    4      2.84      0.00
  -18  -16    4     -3.54      0.00
  -17  -16    4      4.91      0.00
  -16  -16    4      2.67      0.00
  -15  -16    4     -9.04      0.00
  -14  -16    4      4.96      0.00
  -13  -16    4      1.91      0.00
  -12  -16    4      4.30      0.00
  -11  -16    4     -2.36      0.00
  -10  -16    4      0.91      0.00
   -9  -16    4    -13.55      0.00
   -8  -16    4      1.15      0.00
   -7  -16    4      4.12      0.00
   -6  -16    4     -0.46      0.00
   -5  -16    4     -3.01      0.00
   -4  -16    4     -3.60      0.00
   -3  -16    4      1.58      0.00
   -2  -16    4     -0.94      0.00
   -1  -16    4      1.38      0.00
    0  -16    4     -3.27      0.00
    1  -16    4      1.14      0.00
    2  -16    4     -0.16      0.00
    3  -16    4      6.93      0.00
    4  -16    4      1.81      0.00
    5  -16    4     -5.18      0.00
    6  -16    4     -2.82      0.00
  -18  -15    4      2.37      0.00
  -17  -15    4     -0.77      0.00
  -16  -15    4      4.01      0.00
  -15  -15    4     -5.84      0.00
  -14  -15    4      2.00      0.00
  -13  -15    4     -1.77      0.00
  -12  -15    4     -1.54      0.00
  -11  -15    4     -2.95      0.00
  -10  -15    4      0.56      0.00
   -9  -15    4      1.18      0.00
   -8  -15    4     -1.24      0.00
   -7  -15    4      0.53      0.00
   -6  -15    4     -3.73      0.00
   -5  -15    4      4.28      0.00
   -4  -15    4     -0.39      0.00
   -3  -15    4      2.59      0.00
   -2  -15    4     -1.05      0.00
   -1  -15    4      3.32      0.00
    0  -15    4     -1.60      0.00
    1  -15    4     -1.04      0.00
    2  -15    4      0.44      0.00
    3  -15    4      2.97      0.00
    4  -15    4      2.21      0.00
    5  -15    4     -1.54      0.00
    6  -15    4      0.86      0.00
    7  -15    4      3.34      0.00
  -18  -14    4     -4.66      0.00
  -17  -14    4     -6.63      0.00
  -16  -14    4      2.89      0.00
  -15  -14    4     -0.50      0.00
  -14  -14    4      4.42      0.00
  -13  -14    4      4.46      0.00
  -12  -14    4      3.10      0.00
  -11  -14    4      1.09      0.00
  -10  -14    4     -0.17      0.00
   -9  -14    4     -2.28      0.00
   -8  -14    4     -5.13      0.00
   -7  -14    4      3.22      0.00
   -6  -14    4      1.29      0.00
   -5  -14    4      6.80      0.00
   -4  -14    4      3.75      0.00
   -3  -14    4      1.78      0.00
   -2  -14    4     -0.56      0.00
   -1  -14    4     -1.80      0.00
    0  -14    4      2.37      0.00
    1  -14    4     -3.41      0.00
    2  -14    4      8.76      0.00
    3  -14    4     -2.58      0.00
    4  -14    4      4.89      0.00
    5  -14    4      0.17      0.00
    6  -14    4      1.40      0.00
    7  -14    4     -1.91      0.00
    8  -14    4      1.30      0.00
  -18  -13    4     -3.10      0.00
  -17  -13    4      0.20      0.00
  -16  -13    4     -0.78      0.00
  -15  -13    4     -3.09      0.00
  -14  -13    4      0.72      0.00
  -13  -13    4      2.65      0.00
  -12  -13    4      1.62      0.00
  -11  -13    4      5.08      0.00
  -10  -13    4     -3.38      0.00
   -9  -13    4      8.07      0.00
   -8  -13    4     -0.56      0.00
   -7  -13    4     13.50      0.00
   -6  -13    4     -1.92      0.00
   -5  -13    4     11.60      0.00
   -4  -13    4     -8.34      0.00
   -3  -13    4      7.32      0.00
   -2  -13    4      2.26      0.00
   -1  -13    4      0.87      0.00
    0  -13    4     -0.20      0.00
    1  -13    4     -7.36      0.00
    2  -13    4      9.52      0.00
    3  -13    4      2.43      0.00
    4  -13    4      5.14      0.00
    5  -13    4      4.64      0.00
    6  -13    4      1.11      0.00
    7  -13    4      2.22      0.00
    8  -13    4     -0.88      0.00
    9  -13    4     -0.70      0.00
  -18  -12    4     -3.46      0.00
  -17  -12    4      1.71      0.00
  -16  -12    4      1.01      0.00
  -15  -12    4      0.00      0.00
  -14  -12    4      1.62      0.00
  -13  -12    4      1.22      0.00
  -12  -12    4     -2.89      0.00
  -11  -12    4      8.13      0.00
  -10  -12    4     -2.51      0.00
   -9  -12    4      8.77      0.00
   -8  -12    4      0.72      0.00
   -7  -12    4      8.40      0.00
   -6  -12    4     -7.12      0.00
   -5  -12    4     12.90      0.00
   -4  -12    4     10.21      0.00
   -3  -12    4     -6.38      0.00
   -2  -12    4     -2.74      0.00
   -1  -12    4     -6.98      0.00
    0  -12    4      4.18      0.00
    1  -12    4      1.54      0.00
    2  -12    4     10.15      0.00
    3  -12    4     -1.19      0.00
    4  -12    4      2.49      0.00
    5  -12    4     -8.80      0.00
    6  -12    4      2.63      0.00
    7  -12    4      0.21      0.00
    8  -12    4      1.42      0.00
    9  -12    4      1.58      0.00
   10  -12    4     -1.31      0.00
  -19  -11    4     -0.76      0.00
  -18  -11    4     -4.53      0.00
  -17  -11    4      5.77      0.00
  -16  -11    4     -3.33      0.00
  -15  -11    4      0.45      0.00
  -14  -11    4      1.51      0.00
  -13  -11    4     -6.46      0.00
  -12  -11    4     -6.07      0.00
  -11  -11    4     -3.36      0.00
  -10  -11    4     -5.96      0.00
   -9  -11    4     -4.01      0.00
   -8  -11    4      7.34      0.00
   -7  -11    4     22.16      0.00
   -6  -11    4     -1.50      0.00
   -5  -11    4     10.87      0.00
   -4  -11    4     -9.44      0.00
   -3  -11    4     -0.45      0.00
   -2  -11    4     -8.88      0.00
   -1  -11    4     14.60      0.00
    0  -11    4     -5.02      0.00
    1  -11    4     -4.61      0.00
    2  -11    4     -3.01      0.00
    3  -11    4     10.32      0.00
    4  -11    4      4.23      0.00
    5  -11    4     -3.55      0.00
    6  -11    4     -4.97      0.00
    7  -11    4     -2.73      0.00
    8  -11    4     -0.57      0.00
    9  -11    4      4.57      0.00
   10  -11    4      3.15      0.00
   11  -11    4      3.66      0.00
  -19  -10    4     -1.54      0.00
  -18  -10    4     -6.41      0.00
  -17  -10    4      6.56      0.00
  -16  -10    4      1.90      0.00
  -15  -10    4     -0.01      0.00
  -14  -10    4      4.17      0.00
  -13  -10    4     -1.89      0.00
  -12  -10    4     -5.79      0.00
  -11  -10    4     -4.43      0.00
  -10  -10    4     -2.49      0.00
   -9  -10    4      3.53      0.00
   -8  -10    4     -0.42      0.00
   -7  -10    4     13.78      0.00
   -6  -10    4    -19.60      0.00
   -5  -10    4     13.85      0.00
   -4  -10    4     -1.07      0.00
   -3  -10    4      5.18      0.00
   -2  -10    4     -9.01      0.00
   -1  -10    4      4.42      0.00
    0  -10    4     -4.11      0.00
    1  -10    4      4.43      0.00
    2  -10    4     -2.42      0.00
    3  -10    4    -13.45      0.00
    4  -10    4     -4.31      0.00
    5  -10    4     -7.47      0.00
    6  -10    4      1.09      0.00
    7  -10    4      6.14      0.00
    8  -10    4     -4.58      0.00
    9  -10    4      4.64      0.00
   10  -10    4      2.35      0.00
   11  -10    4     -0.01      0.00
   12  -10    4      1.78      0.00
  -19   -9    4     -3.51      0.00
  -18   -9    4     -3.13      0.00
  -17   -9    4      7.67      0.00
  -16   -9    4      0.86      0.00
  -15   -9    4      1.29      0.00
  -14   -9    4      0.37      0.00
  -13   -9    4     -4.94      0.00
  -12   -9    4     -4.03      0.00
  -11   -9    4      0.56      0.00
  -10   -9    4     -0.30      0.00
   -9   -9    4      4.60      0.00
   -8   -9    4      1.34      0.00
   -7   -9    4     10.80      0.00
   -6   -9    4     -5.98      0.00
   -5   -9    4     19.43      0.00
   -4   -9    4     -3.93      0.00
   -3   -9    4     13.87      0.00
   -2   -9    4    -12.26      0.00
   -1   -9    4     17.16      0.00
    0   -9    4    -10.97      0.00
    1   -9    4     15.22      0.00
    2   -9    4    -14.63      0.00
    3   -9    4     17.04      0.00
    4   -9    4    -20.33      0.00
    5   -9    4    -14.82      0.00
    6   -9    4      2.14      0.00
    7   -9    4      4.32      0.00
    8   -9    4      1.24      0.00
    9   -9    4      6.48      0.00
   10   -9    4     -3.12      0.00
   11   -9    4     -7.16      0.00
   12   -9    4      3.63      0.00
   13   -9    4     -3.91      0.00
  -18   -8    4     -2.02      0.00
  -17   -8    4      2.70      0.00
  -16   -8    4      3.37      0.00
  -15   -8    4      4.73      0.00
  -14   -8    4      0.44      0.00
  -13   -8    4     -2.08      0.00
  -12   -8    4      4.03      0.00
  -11   -8    4      4.86      0.00
  -10   -8    4      0.98      0.00
   -9   -8    4      6.48      0.00
   -8   -8    4     -1.03      0.00
   -7   -8    4      8.88      0.00
   -6   -8    4    -21.53      0.00
   -5   -8    4     10.73      0.00
   -4   -8    4    -25.47      0.00
   -3   -8    4     21.13      0.00
   -2   -8    4      1.08      0.00
   -1   -8    4     40.95      0.00
    0   -8    4     -8.64      0.00
    1   -8    4     -3.50      0.00
    2   -8    4    -13.85      0.00
    3   -8    4    -16.14      0.00
    4   -8    4     -1.74      0.00
    5   -8    4      4.71      0.00
    6   -8    4      0.62      0.00
    7   -8    4     -6.74      0.00
    8   -8    4      1.22      0.00
    9   -8    4      2.02      0.00
   10   -8    4      7.81      0.00
   11   -8    4     -5.32      0.00
   12   -8    4     -0.47      0.00
   13   -8    4     -3.31      0.00
   14   -8    4     -5.13      0.00
  -18   -7    4      4.30      0.00
  -17   -7    4     -1.70      0.00
  -16   -7    4     -0.60      0.00
  -15   -7    4     -1.11      0.00
  -14   -7    4      0.32      0.00
  -13   -7    4     -5.39      0.00
  -12   -7    4      1.35      0.00
  -11   -7    4     14.62      0.00
  -10   -7    4      4.02      0.00
   -9   -7    4     20.41      0.00
   -8   -7    4     -5.02      0.00
   -7   -7    4     -7.17      0.00
   -6   -7    4    -24.63      0.00
   -5   -7    4     33.77      0.00
   -4   -7    4     -8.86      0.00
   -3   -7    4      3.84      0.00
   -2   -7    4      1.94      0.00
   -1   -7    4     -0.30      0.00
    0   -7    4    -12.60      0.00
    1   -7    4     34.71      0.00
    2   -7    4     -5.29      0.00
    3   -7    4     12.26      0.00
    4   -7    4    -12.89      0.00
    5   -7    4    -11.74      0.00
    6   -7    4      0.45      0.00
    7   -7    4     13.45      0.00
    8   -7    4     -2.44      0.00
    9   -7    4     -2.47      0.00
   10   -7    4      1.04      0.00
   11   -7    4    -12.86      0.00
   12   -7    4      3.98      0.00
   13   -7    4     -1.79      0.00
   14   -7    4      3.66      0.00
  -18   -6    4      0.10      0.00
  -17   -6    4     -7.20      0.00
  -16   -6    4     -0.91      0.00
  -15   -6    4      7.06      0.00
  -14   -6    4     -1.06      0.00
  -13   -6    4     -6.54      0.00
  -12   -6    4      6.97      0.00
  -11   -6    4      7.33      0.00
  -10   -6    4    -18.70      0.00
   -9   -6    4     10.01      0.00
   -8   -6    4     11.94      0.00
   -7   -6    4      3.60      0.00
   -6   -6    4    -12.04      0.00
   -5   -6    4     -3.13      0.00
   -4   -6    4    -44.40      0.00
   -3   -6    4      0.78      0.00
   -2   -6    4      7.29      0.00
   -1   -6    4     49.55      0.00
    0   -6    4      1.84      0.00
    1   -6    4     -0.46      0.00
    2   -6    4    -22.58      0.00
    3   -6    4     15.12      0.00
    4   -6    4      1.54      0.00
    5   -6    4     20.11      0.00
    6   -6    4      5.90      0.00
    7   -6    4    -16.01      0.00
    8   -6    4      0.61      0.00
    9   -6    4     -2.97      0.00
   10   -6    4      1.85      0.00
   11   -6    4      0.20      0.00
   12   -6    4     -1.13      0.00
   13   -6    4     -4.65      0.00
   14   -6    4      0.18      0.00
   15   -6    4     -5.35      0.00
  -18   -5    4      4.92      0.00
  -17   -5    4     -2.83      0.00
  -16   -5    4     -2.12      0.00
  -15   -5    4      1.24      0.00
  -14   -5    4     -0.38      0.00
  -13   -5    4     -0.83      0.00
  -12   -5    4      0.88      0.00
  -11   -5    4      5.49      0.00
  -10   -5    4     -4.68      0.00
   -9   -5    4     14.30      0.00
   -8   -5    4     -5.15      0.00
   -7   -5    4     -6.67      0.00
   -6   -5    4    -24.19      0.00
   -5   -5    4     36.63      0.00
   -4   -5    4     -2.57      0.00
   -3   -5    4    -25.08      0.00
   -2   -5    4      2.74      0.00
   -1   -5    4     -6.85      0.00
    0   -5    4     -5.41      0.00
    1   -5    4     28.84      0.00
    2   -5    4     24.52      0.00
    3   -5    4     14.92      0.00
    4   -5    4     10.15      0.00
    5   -5    4      7.19      0.00
    6   -5    4    -11.03      0.00
    7   -5    4     28.53      0.00
    8   -5    4     -9.01      0.00
    9   -5    4     -1.75      0.00
   10   -5    4      2.49      0.00
   11   -5    4     -5.39      0.00
   12   -5    4      2.20      0.00
   13   -5    4      4.54      0.00
   14   -5    4      1.42      0.00
   15   -5    4     -1.72      0.00
   16   -5    4      0.12      0.00
  -18   -4    4      3.28      0.00
  -17   -4    4     -6.84      0.00
  -16   -4    4      1.29      0.00
  -15   -4    4      5.27      0.00
  -14   -4    4      3.26      0.00
  -13   -4    4     -1.76      0.00
  -12   -4    4     -0.62      0.00
  -11   -4    4      1.81      0.00
  -10   -4    4    -12.94      0.00
   -9   -4    4      3.17      0.00
   -8   -4    4      0.68      0.00
   -7   -4    4     -5.03      0.00
   -6   -4    4     16.34      0.00
   -5   -4    4     14.43      0.00
   -4   -4    4     -2.44      0.00
   -3   -4    4      8.26      0.00
   -2   -4    4      7.17      0.00
   -1   -4    4    -12.78      0.00
    0   -4    4      6.06      0.00
    1   -4    4     29.00      0.00
    2   -4    4    -16.19      0.00
    3   -4    4     56.84      0.00
    4   -4    4      2.19      0.00
    5   -4    4      6.15      0.00
    6   -4    4     10.53      0.00
    7   -4    4      2.40      0.00
    8   -4    4     -5.42      0.00
    9   -4    4     13.89      0.00
   10   -4    4      0.53      0.00
   11   -4    4     -0.91      0.00
   12   -4    4     -0.93      0.00
   13   -4    4     -3.16      0.00
   14   -4    4      0.37      0.00
   15   -4    4      0.89      0.00
   16   -4    4      4.33      0.00
  -17   -3    4     -1.54      0.00
  -16   -3    4      1.94      0.00
  -15   -3    4      1.21      0.00
  -14   -3    4      0.02      0.00
  -13   -3    4      2.20      0.00
  -12   -3    4      1.43      0.00
  -11   -3    4      0.78      0.00
  -10   -3    4     -1.94      0.00
   -9   -3    4     12.88      0.00
   -8   -3    4     -6.51      0.00
   -7   -3    4      2.36      0.00
   -6   -3    4     -6.32      0.00
   -5   -3    4     16.31      0.00
   -4   -3    4      5.68      0.00
   -3   -3    4     23.36      0.00
   -2   -3    4     -5.01      0.00
   -1   -3    4     33.87      0.00
    0   -3    4     -5.99      0.00
    1   -3    4    -29.74      0.00
    2   -3    4     -7.42      0.00
    3   -3    4    -13.41      0.00
    4   -3    4     23.28      0.00
    5   -3    4     29.85      0.00
    6   -3    4      8.32      0.00
    7   -3    4     10.98      0.00
    8   -3    4     -3.76      0.00
    9   -3    4     -3.42      0.00
   10   -3    4     -0.24      0.00
   11   -3    4      1.36      0.00
   12   -3    4     -5.07      0.00
   13   -3    4      3.39      0.00
   14   -3    4      0.41      0.00
   15   -3    4      0.25      0.00
   16   -3    4      5.15      0.00
   17   -3    4     -2.24      0.00
  -17   -2    4     -1.51      0.00
  -16   -2    4      4.03      0.00
  -15   -2    4      2.88      0.00
  -14   -2    4     -5.09      0.00
  -13   -2    4     -1.07      0.00
  -12   -2    4      2.41      0.00
  -11   -2    4      2.85      0.00
  -10   -2    4     -9.40      0.00
   -9   -2    4      5.03      0.00
   -8   -2    4    -10.44      0.00
   -7   -2    4      2.28      0.00
   -6   -2    4      4.28      0.00
   -5   -2    4     18.40      0.00
   -4   -2    4      3.70      0.00
   -3   -2    4     38.46      0.00
   -2   -2    4     23.95      0.00
   -1   -2    4    -34.78      0.00
    0   -2    4     -6.96      0.00
    1   -2    4     39.92      0.00
    2   -2    4    -17.42      0.00
    3   -2    4     53.24      0.00
    4   -2    4    -16.07      0.00
    5   -2    4    -25.67      0.00
    6   -2    4     17.73      0.00
    7   -2    4     42.01      0.00
    8   -2    4      2.05      0.00
    9   -2    4     10.23      0.00
   10   -2    4     -2.19      0.00
   11   -2    4    -11.65      0.00
   12   -2    4      5.12      0.00
   13   -2    4     -4.65      0.00
   14   -2    4     -0.54      0.00
   15   -2    4      3.53      0.00
   16   -2    4      3.86      0.00
   17   -2    4     -4.18      0.00
  -17   -1    4      1.52      0.00
  -16   -1    4      3.21      0.00
  -15   -1    4      0.87      0.00
  -14   -1    4     -8.54      0.00
  -13   -1    4      1.65      0.00
  -12   -1    4      0.18      0.00
  -11   -1    4     -0.78      0.00
  -10   -1    4    -12.93      0.00
   -9   -1    4      7.70      0.00
   -8   -1    4    -13.04      0.00
   -7   -1    4      7.48      0.00
   -6   -1    4      5.66      0.00
   -5   -1    4     -4.49      0.00
   -4   -1    4    -30.81      0.00
   -3   -1    4     39.17      0.00
   -2   -1    4    -11.14      0.00
   -1   -1    4     60.38      0.00
    0   -1    4     39.63      0.00
    1   -1    4    -38.56      0.00
    2   -1    4    -52.47      0.00
    3   -1    4      5.49      0.00
    4   -1    4     20.46      0.00
    5   -1    4     15.91      0.00
    6   -1    4     19.78      0.00
    7   -1    4    -22.20      0.00
    8   -1    4      5.52      0.00
    9   -1    4     -1.15      0.00
   10   -1    4      7.44      0.00
   11   -1    4     10.92      0.00
   12   -1    4      1.27      0.00
   13   -1    4      1.95      0.00
   14   -1    4      2.15      0.00
   15   -1    4     -3.03      0.00
   16   -1    4      1.48      0.00
   17   -1    4     -4.61      0.00
   18   -1    4      0.01      0.00
  -16    0    4      5.71      0.00
  -15    0    4     -2.38      0.00
  -14    0    4      0.68      0.00
  -13    0    4      0.90      0.00
  -12    0    4     -1.58      0.00
  -11    0    4     -2.37      0.00
  -10    0    4     -8.06      0.00
   -9    0    4      1.92      0.00
   -8    0    4    -18.52      0.00
   -7    0    4      5.35      0.00
   -6    0    4    -18.07      0.00
   -5    0    4     31.93      0.00
   -4    0    4      9.13      0.00
   -3    0    4     20.86      0.00
   -2    0    4      5.19      0.00
   -1    0    4    -43.04      0.00
    0    0    4     -3.21      0.00
    1    0    4     76.97      0.00
    2    0    4    133.09      0.00
    3    0    4     24.64      0.00
    4    0    4      3.60      0.00
    5    0    4    -30.81      0.00
    6    0    4      2.63      0.00
    7    0    4     32.95      0.00
    8    0    4     -3.96      0.00
    9    0    4      1.49      0.00
   10    0    4      9.79      0.00
   11    0    4     -5.47      0.00
   12    0    4      7.50      0.00
   13    0    4      2.73      0.00
   14    0    4      0.81      0.00
   15    0    4     -3.36      0.00
   16    0    4      5.38      0.00
   17    0    4     -1.11      0.00
   18    0    4     -0.74      0.00
  -16    1    4      0.61      0.00
  -15    1    4     -0.80      0.00
  -14    1    4     -3.52      0.00
  -13    1    4      3.71      0.00
  -12    1    4      4.48      0.00
  -11    1    4      0.44      0.00
  -10    1    4    -12.99      0.00
   -9    1    4      4.06      0.00
   -8    1    4    -12.44      0.00
   -7    1    4      1.39      0.00
   -6    1    4     -1.97      0.00
   -5    1    4      1.67      0.00
   -4    1    4    -20.38      0.00
   -3    1    4     27.66      0.00
   -2    1    4     12.57      0.00
   -1    1    4     27.01      0.00
    0    1    4     27.54      0.00
    1    1    4    -38.37      0.00
    2    1    4    -11.42      0.00
    3    1    4     70.29      0.00
    4    1    4      0.37      0.00
    5    1    4     14.99      0.00
    6    1    4     23.76      0.00
    7    1    4    -38.93      0.00
    8    1    4     -2.54      0.00
    9    1    4      3.51      0.00
   10    1    4      5.11      0.00
   11    1    4      0.42      0.00
   12    1    4     11.18      0.00
   13    1    4      4.17      0.00
   14    1    4      5.53      0.00
   15    1    4      3.92      0.00
   16    1    4     -2.82      0.00
   17    1    4     -2.28      0.00
   18    1    4     -6.50      0.00
   19    1    4      0.90      0.00
  -15    2    4      2.96      0.00
  -14    2    4      4.22      0.00
  -13    2    4     -3.70      0.00
  -12    2    4     -1.45      0.00
  -11    2    4     -5.70      0.00
  -10    2    4      1.52      0.00
   -9    2    4      0.31      0.00
   -8    2    4    -13.00      0.00
   -7    2    4      8.14      0.00
   -6    2    4     -5.73      0.00
   -5    2    4     -1.53      0.00
   -4    2    4     -6.38      0.00
   -3    2    4      3.88      0.00
   -2    2    4    -37.47      0.00
   -1    2    4     33.13      0.00
    0    2    4    -28.68      0.00
    1    2    4     -8.73      0.00
    2    2    4     52.57      0.00
    3    2    4     -2.32      0.00
    4    2    4    -53.24      0.00
    5    2    4     -1.29      0.00
    6    2    4      5.45      0.00
    7    2    4     -6.15      0.00
    8    2    4     -7.20      0.00
    9    2    4     -6.35      0.00
   10    2    4      4.59      0.00
   11    2    4      5.39      0.00
   12    2    4      1.73      0.00
   13    2    4      1.36      0.00
   14    2    4      5.89      0.00
   15    2    4     -0.08      0.00
   16    2    4      1.27      0.00
   17    2    4      4.35      0.00
   18    2    4     -0.74      0.00
   19    2    4      4.74      0.00
  -15    3    4      4.13      0.00
  -14    3    4      9.58      0.00
  -13    3    4      9.53      0.00
  -12    3    4     -0.86      0.00
  -11    3    4     -1.06      0.00
  -10    3    4     -6.92      0.00
   -9    3    4      1.22      0.00
   -8    3    4     -4.25      0.00
   -7    3    4     -2.95      0.00
   -6    3    4    -16.17      0.00
   -5    3    4     -1.49      0.00
   -4    3    4    -21.59      0.00
   -3    3    4     -0.97      0.00
   -2    3    4    -19.67      0.00
   -1    3    4     -7.32      0.00
    0    3    4     -3.72      0.00
    1    3    4     25.47      0.00
    2    3    4    -40.90      0.00
    3    3    4     40.55      0.00
    4    3    4    -89.21      0.00
    5    3    4    -20.35      0.00
    6    3    4     -1.23      0.00
    7    3    4    -12.86      0.00
    8    3    4     -6.13      0.00
    9    3    4     17.43      0.00
   10    3    4      2.42      0.00
   11    3    4    -12.45      0.00
   12    3    4     10.59      0.00
   13    3    4      1.58      0.00
   14    3    4      5.42      0.00
   15    3    4     -0.55      0.00
   16    3    4     -0.17      0.00
   17    3    4      1.38      0.00
   18    3    4     -4.86      0.00
   19    3    4     -1.69      0.00
   20    3    4      3.71      0.00
  -14    4    4     -2.07      0.00
  -13    4    4     -0.86      0.00
  -12    4    4      2.33      0.00
  -11    4    4     -1.54      0.00
  -10    4    4      2.16      0.00
   -9    4    4      0.32      0.00
   -8    4    4     -8.19      0.00
   -7    4    4      6.68      0.00
   -6    4    4     13.66      0.00
   -5    4    4    -15.67      0.00
   -4    4    4    -25.96      0.00
   -3    4    4     -7.11      0.00
   -2    4    4    -56.56      0.00
   -1    4    4     41.74      0.00
    0    4    4    -28.55      0.00
    1    4    4     -8.92      0.00
    2    4    4    -26.94      0.00
    3    4    4     63.03      0.00
    4    4    4    -45.66      0.00
    5    4    4      0.08      0.00
    6    4    4      8.42      0.00
    7    4    4    -36.24      0.00
    8    4    4     -3.60      0.00
    9    4    4     -6.36      0.00
   10    4    4      5.73      0.00
   11    4    4      9.54      0.00
   12    4    4      2.96      0.00
   13    4    4     -5.50      0.00
   14    4    4      1.78      0.00
   15    4    4     -2.23      0.00
   16    4    4      4.26      0.00
   17    4    4      0.10      0.00
   18    4    4      3.13      0.00
   19    4    4      1.78      0.00
   20    4    4      5.95      0.00
  -14    5    4     -3.92      0.00
  -13    5    4     -1.21      0.00
  -12    5    4     -2.45      0.00
  -11    5    4      4.83      0.00
  -10    5    4      3.12      0.00
   -9    5    4      2.32      0.00
   -8    5    4     -3.44      0.00
   -7    5    4      0.17      0.00
   -6    5    4    -16.65      0.00
   -5    5    4     11.15      0.00
   -4    5    4     -1.11      0.00
   -3    5    4      1.68      0.00
   -2    5    4    -26.98      0.00
   -1    5    4    -14.30      0.00
    0    5    4    -42.81      0.00
    1    5    4     26.98      0.00
    2    5    4      5.01      0.00
    3    5    4     43.01      0.00
    4    5    4    -15.54      0.00
    5    5    4     -9.48      0.00
    6    5    4    -10.99      0.00
    7    5    4     12.58      0.00
    8    5    4      2.90      0.00
    9    5    4      6.64      0.00
   10    5    4     -4.72      0.00
   11    5    4     -8.97      0.00
   12    5    4      7.18      0.00
   13    5    4     -5.02      0.00
   14    5    4      1.98      0.00
   15    5    4     -4.41      0.00
   16    5    4     -0.27      0.00
   17    5    4     -0.70      0.00
   18    5    4      3.94      0.00
   19    5    4      2.66      0.00
   20    5    4      8.73      0.00
  -13    6    4     -5.53      0.00
  -12    6    4      1.00      0.00
  -11    6    4      0.56      0.00
  -10    6    4     -2.85      0.00
   -9    6    4      0.50      0.00
   -8    6    4      0.58      0.00
   -7    6    4      5.21      0.00
   -6    6    4      8.00      0.00
   -5    6    4     -5.41      0.00
   -4    6    4    -21.59      0.00
   -3    6    4      1.43      0.00
   -2    6    4    -21.11      0.00
   -1    6    4     29.72      0.00
    0    6    4    -18.78      0.00
    1    6    4    -13.93      0.00
    2    6    4    -54.87      0.00
    3    6    4     30.68      0.00
    4    6    4     -7.87      0.00
    5    6    4     37.21      0.00
    6    6    4     26.77      0.00
    7    6    4    -23.75      0.00
    8    6    4     -6.14      0.00
    9    6    4     -9.99      0.00
   10    6    4     -3.54      0.00
   11    6    4      3.91      0.00
   12    6    4     -0.63      0.00
   13    6    4     -9.16      0.00
   14    6    4      1.09      0.00
   15    6    4     -6.71      0.00
   16    6    4     -1.11      0.00
   17    6    4     -1.95      0.00
   18    6    4      4.59      0.00
   19    6    4     -0.34      0.00
   20    6    4      4.19      0.00
  -12    7    4      1.68      0.00
  -11    7    4     -1.56      0.00
  -10    7    4      0.50      0.00
   -9    7    4      1.63      0.00
   -8    7    4     -1.82      0.00
   -7    7    4      5.69      0.00
   -6    7    4     -8.85      0.00
   -5    7    4      5.15      0.00
   -4    7    4      9.33      0.00
   -3    7    4     -4.12      0.00
   -2    7    4    -25.43      0.00
   -1    7    4      5.42      0.00
    0    7    4    -27.12      0.00
    1    7    4      5.95      0.00
    2    7    4      7.65      0.00
    3    7    4    -29.54      0.00
    4    7    4    -33.37      0.00
    5    7    4      5.80      0.00
    6    7    4     -1.12      0.00
    7    7    4      9.24      0.00
    8    7    4     14.74      0.00
    9    7    4     10.08      0.00
   10    7    4    -14.59      0.00
   11    7    4     -4.77      0.00
   12    7    4     -6.81      0.00
   13    7    4     -7.73      0.00
   14    7    4      0.05      0.00
   15    7    4     -6.38      0.00
   16    7    4     -2.85      0.00
   17    7    4     -0.11      0.00
   18    7    4     -0.91      0.00
   19    7    4     -1.64      0.00
   20    7    4      1.25      0.00
   21    7    4     -1.87      0.00
  -12    8    4     -2.67      0.00
  -11    8    4      4.46      0.00
  -10    8    4     -1.82      0.00
   -9    8    4      2.79      0.00
   -8    8    4      4.56      0.00
   -7    8    4      2.92      0.00
   -6    8    4     -6.60      0.00
   -5    8    4      2.50      0.00
   -4    8    4     -9.25      0.00
   -3    8    4     -3.70      0.00
   -2    8    4     10.54      0.00
   -1    8    4      2.18      0.00
    0    8    4    -10.66      0.00
    1    8    4     -7.07      0.00
    2    8    4    -21.62      0.00
    3    8    4      0.72      0.00
    4    8    4    -25.13      0.00
    5    8    4      0.81      0.00
    6    8    4     -4.99      0.00
    7    8    4    -11.77      0.00
    8    8    4     14.19      0.00
    9    8    4     13.86      0.00
   10    8    4     -8.92      0.00
   11    8    4     -1.88      0.00
   12    8    4      4.86      0.00
   13    8    4     -6.91      0.00
   14    8    4      0.16      0.00
   15    8    4     -1.28      0.00
   16    8    4      4.85      0.00
   17    8    4     -0.86      0.00
   18    8    4      4.13      0.00
   19    8    4     -1.59      0.00
   20    8    4     -4.57      0.00
   21    8    4     -4.53      0.00
  -11    9    4      2.08      0.00
  -10    9    4     -0.48      0.00
   -9    9    4      1.83      0.00
   -8    9    4     -0.29      0.00
   -7    9    4      1.97      0.00
   -6    9    4      0.73      0.00
   -5    9    4     -2.39      0.00
   -4    9    4      5.22      0.00
   -3    9    4      1.91      0.00
   -2    9    4    -12.06      0.00
   -1    9    4      8.28      0.00
    0    9    4      2.99      0.00
    1    9    4     -3.64      0.00
    2    9    4      3.08      0.00
    3    9    4    -14.58      0.00
    4    9    4    -12.86      0.00
    5    9    4     10.39      0.00
    6    9    4      0.42      0.00
    7    9    4    -20.42      0.00
    8    9    4      9.53      0.00
    9    9    4     13.66      0.00
   10    9    4      1.51      0.00
   11    9    4      6.56      0.00
   12    9    4     -2.15      0.00
   13    9    4     -2.29      0.00
   14    9    4     -3.24      0.00
   15    9    4      0.51      0.00
   16    9    4      2.35      0.00
   17    9    4      1.17      0.00
   18    9    4     -1.94      0.00
   19    9    4      4.68      0.00
   20    9    4      0.33      0.00
   21    9    4     -1.55      0.00
  -10   10    4     -0.96      0.00
   -9   10    4      0.05      0.00
   -8   10    4      1.91      0.00
   -7   10    4     -5.10      0.00
   -6   10    4    -10.63      0.00
   -5   10    4      0.89      0.00
   -4   10    4      0.37      0.00
   -3   10    4      1.22      0.00
   -2   10    4      8.68      0.00
   -1   10    4      5.09      0.00
    0   10    4     -6.03      0.00
    1   10    4      1.99      0.00
    2   10    4      5.74      0.00
    3   10    4     -6.24      0.00
    4   10    4     -5.21      0.00
    5   10    4     -2.98      0.00
    6   10    4     -3.24      0.00
    7   10    4      2.74      0.00
    8   10    4     -5.27      0.00
    9   10    4      2.86      0.00
   10   10    4    -11.07      0.00
   11   10    4     -0.44      0.00
   12   10    4      1.21      0.00
   13   10    4      4.68      0.00
   14   10    4      0.28      0.00
   15   10    4      3.66      0.00
   16   10    4      6.58      0.00
   17   10    4     -4.54      0.00
   18   10    4     -2.58      0.00
   19   10    4     -0.84      0.00
   20   10    4     -1.48      0.00
   21   10    4      0.38      0.00
   -9   11    4     -1.90      0.00
   -8   11    4     -3.91      0.00
   -7   11    4    -12.44      0.00
   -6   11    4     -2.10      0.00
   -5   11    4      1.91      0.00
   -4   11    4     -4.31      0.00
   -3   11    4      2.33      0.00
   -2   11    4      0.83      0.00
   -1   11    4      1.63      0.00
    0   11    4      6.20      0.00
    1   11    4     -5.07      0.00
    2   11    4     -6.61      0.00
    3   11    4     -9.53      0.00
    4   11    4     -3.50      0.00
    5   11    4      2.55      0.00
    6   11    4      2.47      0.00
    7   11    4    -10.39      0.00
    8   11    4     -2.95      0.00
    9   11    4    -10.93      0.00
   10   11    4     -5.75      0.00
   11   11    4      2.79      0.00
   12   11    4     -3.79      0.00
   13   11    4      0.40      0.00
   14   11    4     -3.01      0.00
   15   11    4      0.17      0.00
   16   11    4      1.63      0.00
   17   11    4      4.68      0.00
   18   11    4     -2.81      0.00
   19   11    4     -0.10      0.00
   20   11    4     -0.47      0.00
   21   11    4      5.72      0.00
   -8   12    4      1.14      0.00
   -7   12    4     -4.25      0.00
   -6   12    4     -6.56      0.00
   -5   12    4     -2.02      0.00
   -4   12    4      1.44      0.00
   -3   12    4      7.35      0.00
   -2   12    4     -1.41      0.00
   -1   12    4      3.23      0.00
    0   12    4     -3.47      0.00
    1   12    4      2.00      0.00
    2   12    4     12.55      0.00
    3   12    4     -9.15      0.00
    4   12    4      2.40      0.00
    5   12    4    -16.22      0.00
    6   12    4     -9.56      0.00
    7   12    4     -5.51      0.00
    8   12    4      0.19      0.00
    9   12    4    -11.44      0.00
   10   12    4     -7.91      0.00
   11   12    4     -1.15      0.00
   12   12    4     -6.44      0.00
   13   12    4      1.71      0.00
   14   12    4     -0.75      0.00
   15   12    4      1.34      0.00
   16   12    4     -3.14      0.00
   17   12    4     -5.28      0.00
   18   12    4     -7.51      0.00
   19   12    4     -0.23      0.00
   20   12    4     -1.72      0.00
   21   12    4     -3.32      0.00
   -7   13    4     -1.53      0.00
   -6   13    4      1.56      0.00
   -5   13    4      0.09      0.00
   -4   13    4     -4.30      0.00
   -3   13    4      2.83      0.00
   -2   13    4      1.13      0.00
   -1   13    4      0.58      0.00
    0   13    4     -4.78      0.00
    1   13    4     -5.80      0.00
    2   13    4     -1.17      0.00
    3   13    4     -4.05      0.00
    4   13    4      5.28      0.00
    5   13    4      3.49      0.00
    6   13    4     -1.00      0.00
    7   13    4    -16.31      0.00
    8   13    4     -1.78      0.00
    9   13    4     -4.39      0.00
   10   13    4      0.54      0.00
   11   13    4      5.04      0.00
   12   13    4     -3.70      0.00
   13   13    4     -0.95      0.00
   14   13    4     -3.88      0.00
   15   13    4     -0.39      0.00
   16   13    4     -1.78      0.00
   17   13    4      3.38      0.00
   18   13    4     -7.00      0.00
   19   13    4      0.93      0.00
   20   13    4     -2.92      0.00
   21   13    4     -2.71      0.00
   -6   14    4     -0.36      0.00
   -5   14    4      0.41      0.00
   -4   14    4      2.34      0.00
   -3   14    4      4.18      0.00
   -2   14    4     -4.13      0.00
   -1   14    4      2.43      0.00
    0   14    4     -0.15      0.00
    1   14    4     -2.78      0.00
    2   14    4      0.92      0.00
    3   14    4     -1.41      0.00
    4   14    4      2.90      0.00
    5   14    4      0.20      0.00
    6   14    4     -4.46      0.00
    7   14    4     -2.31      0.00
    8   14    4      0.78      0.00
    9   14    4     -6.09      0.00
   10   14    4    -10.40      0.00
   11   14    4      7.64      0.00
   12   14    4     -3.64      0.00
   13   14    4     -0.67      0.00
   14   14    4     -7.02      0.00
   15   14    4     -2.44      0.00
   16   14    4      1.37      0.00
   17   14    4      0.34      0.00
   18   14    4     -8.22      0.00
   19   14    4     -3.96      0.00
   20   14    4     -0.36      0.00
   21   14    4     -4.58      0.00
   -5   15    4     -4.45      0.00
   -4   15    4      0.95      0.00
   -3   15    4      6.50      0.00
   -2   15    4      7.71      0.00
   -1   15    4     -3.72      0.00
    0   15    4     -6.65      0.00
    1   15    4     -3.21      0.00
    2   15    4      1.16      0.00
    3   15    4      0.40      0.00
    4   15    4      3.50      0.00
    5   15    4      2.89      0.00
    6   15    4     -2.48      0.00
    7   15    4      1.34      0.00
    8   15    4      4.48      0.00
    9   15    4      6.86      0.00
   10   15    4     -6.54      0.00
   11   15    4     -3.02      0.00
   12   15    4     -3.45      0.00
   13   15    4      4.92      0.00
   14   15    4     -1.58      0.00
   15   15    4      0.15      0.00
   16   15    4     -1.53      0.00
   17   15    4      3.91      0.00
   18   15    4      1.72      0.00
   19   15    4      5.93      0.00
   20   15    4      0.62      0.00
   -4   16    4      4.46      0.00
   -3   16    4      3.66      0.00
   -2   16    4     -2.65      0.00
   -1   16    4      6.79      0.00
    0   16    4      0.13      0.00
    1   16    4     -5.97      0.00
    2   16    4     -2.65      0.00
    3   16    4      3.90      0.00
    4   16    4     -0.73      0.00
    5   16    4      5.51      0.00
    6   16    4     -0.15      0.00
    7   16    4     -0.71      0.00
    8   16    4      3.90      0.00
    9   16    4     -1.11      0.00
   10   16    4     -1.63      0.00
   11   16    4     -2.04      0.00
   12   16    4      2.05      0.00
   13   16    4     -0.91      0.00
   14   16    4     -3.27      0.00
   15   16    4     -1.49      0.00
   16   16    4     -2.38      0.00
   17   16    4     -3.23      0.00
   18   16    4     -4.92      0.00
   19   16    4     -4.27      0.00
   20   16    4      1.68      0.00
   -3   17    4     10.11      0.00
   -2   17    4      1.50      0.00
   -1   17    4      9.20      0.00
    0   17    4     -4.76      0.00
    1   17    4     -0.19      0.00
    2   17    4      0.53      0.00
    3   17    4      1.95      0.00
    4   17    4      1.78      0.00
    5   17    4     -0.10      0.00
    6   17    4     -2.14      0.00
    7   17    4      2.21      0.00
    8   17    4     11.23      0.00
    9   17    4     -1.38      0.00
   10   17    4     -1.94      0.00
   11   17    4     -2.86      0.00
   12   17    4      2.41      0.00
   13   17    4      1.20      0.00
   14   17    4      0.65      0.00
   15   17    4      4.66      0.00
   16   17    4      1.07      0.00
   17   17    4     -1.69      0.00
   18   17    4     -0.05      0.00
   19   17    4      1.96      0.00
   20   17    4      1.34      0.00
   -1   18    4      6.74      0.00
    0   18    4     -3.27      0.00
    1   18    4      3.68      0.00
    2   18    4      0.33      0.00
    3   18    4      3.77      0.00
    4   18    4     -2.70      0.00
    5   18    4      0.48      0.00
    6   18    4     -2.30      0.00
    7   18    4      1.59      0.00
    8   18    4      1.29      0.00
    9   18    4      3.87      0.00
   10   18    4      3.04      0.00
   11   18    4      0.50      0.00
   12   18    4      0.96      0.00
   13   18    4      1.44      0.00
   14   18    4      0.53      0.00
   15   18    4     -5.03      0.00
   16   18    4      2.22      0.00
   17   18    4     -3.59      0.00
   18   18    4     -0.52      0.00
   19   18    4     -3.71      0.00
    0   19    4     -1.53      0.00
    1   19    4      0.98      0.00
    2   19    4      4.40      0.00
    3   19    4     -5.26      0.00
    4   19    4     -3.56      0.00
    5   19    4     -2.58      0.00
    6   19    4      2.42      0.00
    7   19    4     -3.23      0.00
    8   19    4      0.63      0.00
    9   19    4     -3.21      0.00
   10   19    4     -0.13      0.00
   11   19    4     -2.57      0.00
   12   19    4      6.49      0.00
   13   19    4     -0.47      0.00
   14   19    4     16.01      0.00
   15   19    4      2.36      0.00
   16   19    4     -0.58      0.00
   17   19    4      0.14      0.00
   18   19    4      2.93      0.00
    2   20    4      1.01      0.00
    3   20    4     -3.00      0.00
    4   20    4     -2.62      0.00
    5   20    4      1.16      0.00
    6   20    4      4.85      0.00
    7   20    4     -0.67      0.00
    8   20    4      0.55      0.00
    9   20    4      1.75      0.00
   10   20    4      0.72      0.00
   11   20    4     -1.10      0.00
   12   20    4      0.47      0.00
   13   20    4     -6.26      0.00
   14   20    4      7.90      0.00
   15   20    4     -2.38      0.00
   16   20    4     -0.91      0.00
   17   20    4     -1.28      0.00
    4   21    4      1.36      0.00
    5   21    4      0.70      0.00
    6   21    4      0.99      0.00
    7   21    4      2.26      0.00
    8   21    4     -2.77      0.00
    9   21    4     -2.12      0.00
   10   21    4      4.25      0.00
   11   21    4      0.09      0.00
   12   21    4      2.05      0.00
   13   21    4     -4.13      0.00
   14   21    4      0.45      0.00
   15   21    4     -9.18      0.00
   16   21    4     -5.68      0.00
    8   22    4     -0.52      0.00
    9   22    4     -3.26      0.00
   10   22    4      1.58      0.00
   11   22    4      1.86      0.00
   12   22    4      0.07      0.00
   13   22    4     -6.86      0.00
   -9  -22    5     -5.70      0.00
   -8  -22    5     -3.49      0.00
   -7  -22    5      2.33      0.00
  -13  -21    5      3.40      0.00
  -12  -21    5     -0.70      0.00
  -11  -21    5     -0.64      0.00
  -10  -21    5      1.37      0.00
   -9  -21    5      3.26      0.00
   -8  -21    5     -0.56      0.00
   -7  -21    5      1.21      0.00
   -6  -21    5     -5.17      0.00
   -5  -21    5     -5.26      0.00
   -4  -21    5      5.98      0.00
   -3  -21    5      1.34      0.00
  -14  -20    5     -3.80      0.00
  -13  -20    5     -0.43      0.00
  -12  -20    5      2.21      0.00
  -11  -20    5     -2.50      0.00
  -10  -20    5      4.10      0.00
   -9  -20    5     -3.10      0.00
   -8  -20    5      2.08      0.00
   -7  -20    5      1.76      0.00
   -6  -20    5      4.23      0.00
   -5  -20    5     -2.89      0.00
   -4  -20    5      1.00      0.00
   -3  -20    5     -2.06      0.00
   -2  -20    5      2.74      0.00
   -1  -20    5     -5.75      0.00
    0  -20    5      1.30      0.00
  -15  -19    5     -0.60      0.00
  -14  -19    5      3.09      0.00
  -13  -19    5      0.68      0.00
  -12  -19    5      3.01      0.00
  -11  -19    5      4.61      0.00
  -10  -19    5      1.30      0.00
   -9  -19    5      3.04      0.00
   -8  -19    5      3.15      0.00
   -7  -19    5      4.99      0.00
   -6  -19    5     -3.08      0.00
   -5  -19    5     -0.54      0.00
   -4  -19    5      2.80      0.00
   -3  -19    5     -1.91      0.00
   -2  -19    5      8.88      0.00
   -1  -19    5     -0.31      0.00
    0  -19    5      2.55      0.00
    1  -19    5      0.98      0.00
    2  -19    5     -4.42      0.00
  -16  -18    5      5.15      0.00
  -15  -18    5      1.76      0.00
  -14  -18    5      1.69      0.00
  -13  -18    5     -2.72      0.00
  -12  -18    5      1.85      0.00
  -11  -18    5     -0.35      0.00
  -10  -18    5      2.98      0.00
   -9  -18    5      1.40      0.00
   -8  -18    5      3.29      0.00
   -7  -18    5      2.54      0.00
   -6  -18    5      2.53      0.00
   -5  -18    5      2.95      0.00
   -4  -18    5      8.85      0.00
   -3  -18    5      1.31      0.00
   -2  -18    5     -2.90      0.00
   -1  -18    5      0.58      0.00
    0  -18    5      1.39      0.00
    1  -18    5      5.52      0.00
    2  -18    5      1.38      0.00
    3  -18    5     -1.93      0.00
  -17  -17    5      6.19      0.00
  -16  -17    5     -1.83      0.00
  -15  -17    5      1.21      0.00
  -14  -17    5      9.89      0.00
  -13  -17    5      4.92      0.00
  -12  -17    5      2.80      0.00
  -11  -17    5     -2.38      0.00
  -10  -17    5     -0.10      0.00
   -9  -17    5      2.11      0.00
   -8  -17    5      4.46      0.00
   -7  -17    5      6.38      0.00
   -6  -17    5     -1.37      0.00
   -5  -17    5      6.04      0.00
   -4  -17    5     -2.07      0.00
   -3  -17    5      3.69      0.00
   -2  -17    5      0.70      0.00
   -1  -17    5      4.04      0.00
    0  -17    5     -0.46      0.00
    1  -17    5      6.10      0.00
    2  -17    5     -3.34      0.00
    3  -17    5      5.85      0.00
    4  -17    5     -2.03      0.00
    5  -17    5     -1.73      0.00
  -17  -16    5      0.43      0.00
  -16  -16    5      3.09      0.00
  -15  -16    5     -1.49      0.00
  -14  -16    5     -1.44      0.00
  -13  -16    5     -5.25      0.00
  -12  -16    5      0.32      0.00
  -11  -16    5      1.74      0.00
  -10  -16    5      3.00      0.00
   -9  -16    5      2.22      0.00
   -8  -16    5     -5.23      0.00
   -7  -16    5      0.62      0.00
   -6  -16    5      3.45      0.00
   -5  -16    5     -0.13      0.00
   -4  -16    5      0.25      0.00
   -3  -16    5     -0.76      0.00
   -2  -16    5     -4.53      0.00
   -1  -16    5      5.69      0.00
    0  -16    5     -2.30      0.00
    1  -16    5      0.21      0.00
    2  -16    5     -3.83      0.00
    3  -16    5     -0.95      0.00
    4  -16    5      1.17      0.00
    5  -16    5     -0.08      0.00
    6  -16    5     -0.59      0.00
  -17  -15    5      1.41      0.00
  -16  -15    5      2.30      0.00
  -15  -15    5      1.41      0.00
  -14  -15    5      0.15      0.00
  -13  -15    5     -0.83      0.00
  -12  -15    5     -2.77      0.00
  -11  -15    5     -2.72      0.00
  -10  -15    5      0.68      0.00
   -9  -15    5     -0.49      0.00
   -8  -15    5      0.59      0.00
   -7  -15    5      9.59      0.00
   -6  -15    5     -1.75      0.00
   -5  -15    5     -2.53      0.00
   -4  -15    5     -2.06      0.00
   -3  -15    5      2.40      0.00
   -2  -15    5     -6.12      0.00
   -1  -15    5      1.94      0.00
    0  -15    5     -3.44      0.00
    1  -15    5      0.78      0.00
    2  -15    5     -4.29      0.00
    3  -15    5     -2.59      0.00
    4  -15    5     -3.68      0.00
    5  -15    5     -4.29      0.00
    6  -15    5    -10.06      0.00
    7  -15    5     -2.72      0.00
  -18  -14    5      4.69      0.00
  -17  -14    5     -0.64      0.00
  -16  -14    5     -6.91      0.00
  -15  -14    5      0.21      0.00
  -14  -14    5     -4.14      0.00
  -13  -14    5      1.27      0.00
  -12  -14    5     -2.00      0.00
  -11  -14    5      2.06      0.00
  -10  -14    5     -2.26      0.00
   -9  -14    5      3.79      0.00
   -8  -14    5     -8.71      0.00
   -7  -14    5     -3.85      0.00
   -6  -14    5     -2.34      0.00
   -5  -14    5     -3.09      0.00
   -4  -14    5     -3.94      0.00
   -3  -14    5      1.60      0.00
   -2  -14    5     -3.54      0.00
   -1  -14    5      2.70      0.00
    0  -14    5      0.26      0.00
    1  -14    5     -5.29      0.00
    2  -14    5      2.24      0.00
    3  -14    5     -3.76      0.00
    4  -14    5     -0.92      0.00
    5  -14    5     -0.46      0.00
    6  -14    5     -0.30      0.00
    7  -14    5     -1.50      0.00
    8  -14    5     -2.09      0.00
  -18  -13    5      2.00      0.00
  -17  -13    5      0.16      0.00
  -16  -13    5     -2.87      0.00
  -15  -13    5      0.66      0.00
  -14  -13    5     -1.47      0.00
  -13  -13    5     -1.23      0.00
  -12  -13    5     -0.94      0.00
  -11  -13    5      6.59      0.00
  -10  -13    5     -2.06      0.00
   -9  -13    5     -3.04      0.00
   -8  -13    5     -2.83      0.00
   -7  -13    5     -7.33      0.00
   -6  -13    5     -2.39      0.00
   -5  -13    5      1.20      0.00
   -4  -13    5     -0.36      0.00
   -3  -13    5     -7.16      0.00
   -2  -13    5     -2.36      0.00
   -1  -13    5      2.92      0.00
    0  -13    5      6.59      0.00
    1  -13    5     -0.92      0.00
    2  -13    5     -4.22      0.00
    3  -13    5     -0.97      0.00
    4  -13    5     -8.16      0.00
    5  -13    5      0.71      0.00
    6  -13    5      1.24      0.00
    7  -13    5     -1.37      0.00
    8  -13    5      0.89      0.00
    9  -13    5     -3.72      0.00
  -18  -12    5      3.58      0.00
  -17  -12    5      2.68      0.00
  -16  -12    5     -5.15      0.00
  -15  -12    5      1.27      0.00
  -14  -12    5     -0.15      0.00
  -13  -12    5     -3.80      0.00
  -12  -12    5     -4.75      0.00
  -11  -12    5      3.20      0.00
  -10  -12    5     -0.13      0.00
   -9  -12    5      1.45      0.00
   -8  -12    5      7.61      0.00
   -7  -12    5     -5.24      0.00
   -6  -12    5    -12.60      0.00
   -5  -12    5    -10.23      0.00
   -4  -12    5     -1.82      0.00
   -3  -12    5      6.11      0.00
   -2  -12    5     -0.70      0.00
   -1  -12    5      5.57      0.00
    0  -12    5     -5.29      0.00
    1  -12    5     -6.11      0.00
    2  -12    5      9.00      0.00
    3  -12    5      5.51      0.00
    4  -12    5      5.20      0.00
    5  -12    5     -3.02      0.00
    6  -12    5      0.96      0.00
    7  -12    5      0.27      0.00
    8  -12    5      2.46      0.00
    9  -12    5     -0.25      0.00
   10  -12    5     -3.61      0.00
  -18  -11    5      2.00      0.00
  -17  -11    5      0.85      0.00
  -16  -11    5     -3.25      0.00
  -15  -11    5     -3.40      0.00
  -14  -11    5     -0.30      0.00
  -13  -11    5     -3.35      0.00
  -12  -11    5     -6.40      0.00
  -11  -11    5      4.02      0.00
  -10  -11    5     -4.83      0.00
   -9  -11    5     -1.63      0.00
   -8  -11    5     -7.52      0.00
   -7  -11    5     -7.50      0.00
   -6  -11    5     -8.56      0.00
   -5  -11    5      4.32      0.00
   -4  -11    5      1.95      0.00
   -3  -11    5     -3.98      0.00
   -2  -11    5     -8.93      0.00
   -1  -11    5     -2.68      0.00
    0  -11    5      7.06      0.00
    1  -11    5     -5.60      0.00
    2  -11    5     -5.03      0.00
    3  -11    5     -3.30      0.00
    4  -11    5     -1.26      0.00
    5  -11    5      2.70      0.00
    6  -11    5     -2.41      0.00
    7  -11    5      3.01      0.00
    8  -11    5     -6.98      0.00
    9  -11    5      1.75      0.00
   10  -11    5     -3.07      0.00
   11  -11    5      3.49      0.00
  -18  -10    5     -1.41      0.00
  -17  -10    5     -0.08      0.00
  -16  -10    5     -6.13      0.00
  -15  -10    5     -2.76      0.00
  -14  -10    5     -5.24      0.00
  -13  -10    5     -5.25      0.00
  -12  -10    5     -1.01      0.00
  -11  -10    5      2.68      0.00
  -10  -10    5     -8.44      0.00
   -9  -10    5     -1.79      0.00
   -8  -10    5      0.16      0.00
   -7  -10    5     -2.60      0.00
   -6  -10    5     -4.59      0.00
   -5  -10    5     -3.92      0.00
   -4  -10    5     -9.46      0.00
   -3  -10    5      8.73      0.00
   -2  -10    5     -8.18      0.00
   -1  -10    5      5.80      0.00
    0  -10    5     -6.89      0.00
    1  -10    5     -3.32      0.00
    2  -10    5      0.95      0.00
    3  -10    5      6.47      0.00
    4  -10    5     -7.71      0.00
    5  -10    5     -1.86      0.00
    6  -10    5      1.77      0.00
    7  -10    5      2.83      0.00
    8  -10    5      5.06      0.00
    9  -10    5     -3.50      0.00
   10  -10    5     -3.08      0.00
   11  -10    5      1.95      0.00
   12  -10    5      2.46      0.00
  -18   -9    5     -3.21      0.00
  -17   -9    5     -0.78      0.00
  -16   -9    5      3.30      0.00
  -15   -9    5     -3.66      0.00
  -14   -9    5     -1.48      0.00
  -13   -9    5     -0.44      0.00
  -12   -9    5      5.50      0.00
  -11   -9    5      2.03      0.00
  -10   -9    5     -7.19      0.00
   -9   -9    5      3.17      0.00
   -8   -9    5    -12.69      0.00
   -7   -9    5     -0.33      0.00
   -6   -9    5    -14.50      0.00
   -5   -9    5     19.03      0.00
   -4   -9    5     -8.56      0.00
   -3   -9    5     30.61      0.00
   -2   -9    5     -0.26      0.00
   -1   -9    5      4.72      0.00
    0   -9    5     -3.18      0.00
    1   -9    5     -8.73      0.00
    2   -9    5     -3.02      0.00
    3   -9    5     -9.34      0.00
    4   -9    5     15.11      0.00
    5   -9    5     -2.37      0.00
    6   -9    5     -6.98      0.00
    7   -9    5      2.85      0.00
    8   -9    5     -4.35      0.00
    9   -9    5      2.92      0.00
   10   -9    5      1.54      0.00
   11   -9    5     -3.25      0.00
   12   -9    5      0.93      0.00
   13   -9    5     -0.12      0.00
  -18   -8    5      4.75      0.00
  -17   -8    5      0.40      0.00
  -16   -8    5     -1.37      0.00
  -15   -8    5     -2.76      0.00
  -14   -8    5      0.04      0.00
  -13   -8    5     -4.11      0.00
  -12   -8    5      9.51      0.00
  -11   -8    5      6.38      0.00
  -10   -8    5     -5.79      0.00
   -9   -8    5      7.20      0.00
   -8   -8    5    -17.64      0.00
   -7   -8    5     -8.32      0.00
   -6   -8    5      2.16      0.00
   -5   -8    5     14.79      0.00
   -4   -8    5    -10.91      0.00
   -3   -8    5     14.00      0.00
   -2   -8    5     -4.50      0.00
   -1   -8    5     -3.51      0.00
    0   -8    5     14.79      0.00
    1   -8    5     15.78      0.00
    2   -8    5     -8.35      0.00
    3   -8    5     10.10      0.00
    4   -8    5    -15.00      0.00
    5   -8    5     -3.34      0.00
    6   -8    5     10.36      0.00
    7   -8    5     -1.74      0.00
    8   -8    5      0.44      0.00
    9   -8    5     -9.56      0.00
   10   -8    5     -1.82      0.00
   11   -8    5     -3.76      0.00
   12   -8    5      5.71      0.00
   13   -8    5      3.13      0.00
   14   -8    5      2.31      0.00
  -18   -7    5      6.26      0.00
  -17   -7    5      0.11      0.00
  -16   -7    5      2.86      0.00
  -15   -7    5      2.32      0.00
  -14   -7    5     -2.56      0.00
  -13   -7    5     -0.90      0.00
  -12   -7    5     10.94      0.00
  -11   -7    5     -4.81      0.00
  -10   -7    5     -8.55      0.00
   -9   -7    5     12.23      0.00
   -8   -7    5     -0.37      0.00
   -7   -7    5     -2.32      0.00
   -6   -7    5    -19.22      0.00
   -5   -7    5      4.84      0.00
   -4   -7    5    -17.43      0.00
   -3   -7    5     35.81      0.00
   -2   -7    5     -4.29      0.00
   -1   -7    5     21.68      0.00
    0   -7    5    -28.25      0.00
    1   -7    5     -8.78      0.00
    2   -7    5     -7.68      0.00
    3   -7    5      7.06      0.00
    4   -7    5     14.98      0.00
    5   -7    5      1.19      0.00
    6   -7    5    -12.16      0.00
    7   -7    5     -6.88      0.00
    8   -7    5      7.05      0.00
    9   -7    5     -3.11      0.00
   10   -7    5      1.18      0.00
   11   -7    5     -0.97      0.00
   12   -7    5     -5.57      0.00
   13   -7    5     -0.68      0.00
   14   -7    5      1.24      0.00
   15   -7    5      1.03      0.00
  -18   -6    5      7.41      0.00
  -17   -6    5     -3.60      0.00
  -16   -6    5     -5.38      0.00
  -15   -6    5     -0.56      0.00
  -14   -6    5      0.02      0.00
  -13   -6    5     -0.90      0.00
  -12   -6    5      4.86      0.00
  -11   -6    5      5.64      0.00
  -10   -6    5     -3.08      0.00
   -9   -6    5     -5.59      0.00
   -8   -6    5    -15.35      0.00
   -7   -6    5     -4.98      0.00
   -6   -6    5     -0.51      0.00
   -5   -6    5     25.50      0.00
   -4   -6    5    -23.02      0.00
   -3   -6    5    -21.60      0.00
   -2   -6    5    -28.14      0.00
   -1   -6    5    -10.53      0.00
    0   -6    5     27.69      0.00
    1   -6    5     35.19      0.00
    2   -6    5    -17.53      0.00
    3   -6    5      5.64      0.00
    4   -6    5    -14.10      0.00
    5   -6    5     -4.56      0.00
    6   -6    5     -4.37      0.00
    7   -6    5     13.15      0.00
    8   -6    5    -14.23      0.00
    9   -6    5     -2.35      0.00
   10   -6    5     -5.07      0.00
   11   -6    5     -2.77      0.00
   12   -6    5      6.59      0.00
   13   -6    5      1.51      0.00
   14   -6    5      2.50      0.00
   15   -6    5     -1.91      0.00
  -17   -5    5     -4.18      0.00
  -16   -5    5      0.98      0.00
  -15   -5    5      3.60      0.00
  -14   -5    5     -2.25      0.00
  -13   -5    5     -0.60      0.00
  -12   -5    5      6.57      0.00
  -11   -5    5     -4.78      0.00
  -10   -5    5     -5.39      0.00
   -9   -5    5      1.48      0.00
   -8   -5    5      0.61      0.00
   -7   -5    5      3.67      0.00
   -6   -5    5     -4.01      0.00
   -5   -5    5    -12.96      0.00
   -4   -5    5    -14.65      0.00
   -3   -5    5     12.40      0.00
   -2   -5    5    -51.67      0.00
   -1   -5    5     16.91      0.00
    0   -5    5    -22.17      0.00
    1   -5    5      8.66      0.00
    2   -5    5    -19.54      0.00
    3   -5    5     43.88      0.00
    4   -5    5     -9.55      0.00
    5   -5    5     10.98      0.00
    6   -5    5    -14.60      0.00
    7   -5    5     -8.57      0.00
    8   -5    5     11.34      0.00
    9   -5    5      0.27      0.00
   10   -5    5     -0.32      0.00
   11   -5    5      5.45      0.00
   12   -5    5     -2.92      0.00
   13   -5    5      1.18      0.00
   14   -5    5      3.55      0.00
   15   -5    5     -5.11      0.00
   16   -5    5      3.38      0.00
  -17   -4    5     -0.64      0.00
  -16   -4    5     -0.93      0.00
  -15   -4    5     -2.30      0.00
  -14   -4    5     -0.53      0.00
  -13   -4    5      8.08      0.00
  -12   -4    5     -0.28      0.00
  -11   -4    5     -3.71      0.00
  -10   -4    5      1.21      0.00
   -9   -4    5      2.39      0.00
   -8   -4    5     -9.79      0.00
   -7   -4    5      4.10      0.00
   -6   -4    5     -6.67      0.00
   -5   -4    5     17.82      0.00
   -4   -4    5    -10.92      0.00
   -3   -4    5      4.92      0.00
   -2   -4    5    -45.26      0.00
   -1   -4    5      4.88      0.00
    0   -4    5    -26.11      0.00
    1   -4    5     10.59      0.00
    2   -4    5    -16.35      0.00
    3   -4    5     12.27      0.00
    4   -4    5     22.73      0.00
    5   -4    5     -0.48      0.00
    6   -4    5    -21.99      0.00
    7   -4    5     11.62      0.00
    8   -4    5    -28.58      0.00
    9   -4    5     -3.02      0.00
   10   -4    5      4.05      0.00
   11   -4    5      0.60      0.00
   12   -4    5      7.31      0.00
   13   -4    5      3.31      0.00
   14   -4    5      0.42      0.00
   15   -4    5      0.21      0.00
   16   -4    5      3.32      0.00
  -17   -3    5     -0.16      0.00
  -16   -3    5     -0.02      0.00
  -15   -3    5      2.47      0.00
  -14   -3    5     -4.57      0.00
  -13   -3    5      4.24      0.00
  -12   -3    5      0.52      0.00
  -11   -3    5     -4.93      0.00
  -10   -3    5      1.87      0.00
   -9   -3    5      7.62      0.00
   -8   -3    5      1.07      0.00
   -7   -3    5     17.54      0.00
   -6   -3    5      8.51      0.00
   -5   -3    5     -5.91      0.00
   -4   -3    5     -4.65      0.00
   -3   -3    5     28.30      0.00
   -2   -3    5    -53.56      0.00
   -1   -3    5    -14.39      0.00
    0   -3    5     -1.92      0.00
    1   -3    5     20.65      0.00
    2   -3    5    -55.07      0.00
    3   -3    5     42.50      0.00
    4   -3    5    -58.62      0.00
    5   -3    5      4.20      0.00
    6   -3    5      4.52      0.00
    7   -3    5      8.28      0.00
    8   -3    5    -10.21      0.00
    9   -3    5     -2.65      0.00
   10   -3    5     -9.96      0.00
   11   -3    5     -2.74      0.00
   12   -3    5      2.41      0.00
   13   -3    5     -5.64      0.00
   14   -3    5      2.80      0.00
   15   -3    5     -3.03      0.00
   16   -3    5      9.02      0.00
   17   -3    5     -2.79      0.00
  -17   -2    5      5.96      0.00
  -16   -2    5     -0.54      0.00
  -15   -2    5     -2.80      0.00
  -14   -2    5     -5.29      0.00
  -13   -2    5      2.13      0.00
  -12   -2    5     -1.60      0.00
  -11   -2    5     -0.06      0.00
  -10   -2    5      3.27      0.00
   -9   -2    5      8.77      0.00
   -8   -2    5     -6.61      0.00
   -7   -2    5     20.64      0.00
   -6   -2    5     -2.84      0.00
   -5   -2    5     -8.77      0.00
   -4   -2    5    -10.14      0.00
   -3   -2    5     27.22      0.00
   -2   -2    5    -44.50      0.00
   -1   -2    5     44.48      0.00
    0   -2    5    -44.96      0.00
    1   -2    5    -56.95      0.00
    2   -2    5    -50.21      0.00
    3   -2    5     -7.33      0.00
    4   -2    5      4.76      0.00
    5   -2    5     -9.99      0.00
    6   -2    5    -32.81      0.00
    7   -2    5     -8.00      0.00
    8   -2    5     -5.24      0.00
    9   -2    5      2.05      0.00
   10   -2    5      2.96      0.00
   11   -2    5      2.84      0.00
   12   -2    5     -6.07      0.00
   13   -2    5     -0.40      0.00
   14   -2    5     -2.72      0.00
   15   -2    5     -5.30      0.00
   16   -2    5      9.86      0.00
   17   -2    5     -1.76      0.00
   18   -2    5     -0.30      0.00
  -16   -1    5     -0.80      0.00
  -15   -1    5      1.17      0.00
  -14   -1    5     -4.53      0.00
  -13   -1    5     -3.76      0.00
  -12   -1    5      0.24      0.00
  -11   -1    5     -2.84      0.00
  -10   -1    5     -2.15      0.00
   -9   -1    5      4.05      0.00
   -8   -1    5     -5.80      0.00
   -7   -1    5     17.78      0.00
   -6   -1    5      4.65      0.00
   -5   -1    5     15.10      0.00
   -4   -1    5     -8.68      0.00
   -3   -1    5     -6.70      0.00
   -2   -1    5    -24.27      0.00
   -1   -1    5    -47.66      0.00
    0   -1    5     63.22      0.00
    1   -1    5     10.77      0.00
    2   -1    5    -32.73      0.00
    3   -1    5    -33.68      0.00
    4   -1    5    -74.00      0.00
    5   -1    5    -16.39      0.00
    6   -1    5      9.19      0.00
    7   -1    5     32.85      0.00
    8   -1    5    -25.23      0.00
    9   -1    5      5.87      0.00
   10   -1    5    -11.62      0.00
   11   -1    5     -5.47      0.00
   12   -1    5      4.48      0.00
   13   -1    5     -5.62      0.00
   14   -1    5     -3.61      0.00
   15   -1    5     -0.80      0.00
   16   -1    5      6.45      0.00
   17   -1    5     -3.42      0.00
   18   -1    5      2.16      0.00
  -16    0    5      0.45      0.00
  -15    0    5     -0.85      0.00
  -14    0    5      4.29      0.00
  -13    0    5      3.78      0.00
  -12    0    5      2.75      0.00
  -11    0    5     -4.19      0.00
  -10    0    5     -4.86      0.00
   -9    0    5      5.73      0.00
   -8    0    5     -0.47      0.00
   -7    0    5     14.05      0.00
   -6    0    5     -2.60      0.00
   -5    0    5    -16.52      0.00
   -4    0    5     14.12      0.00
   -3    0    5     22.98      0.00
   -2    0    5     -5.46      0.00
   -1    0    5     43.31      0.00
    0    0    5    -35.37      0.00
    1    0    5    -79.93      0.00
    2    0    5      2.63      0.00
    3    0    5     46.74      0.00
    4    0    5    -16.38      0.00
    5    0    5      9.48      0.00
    6    0    5    -28.94      0.00
    7    0    5    -21.50      0.00
    8    0    5     20.10      0.00
    9    0    5      3.38      0.00
   10    0    5      1.49      0.00
   11    0    5     10.03      0.00
   12    0    5     -8.60      0.00
   13    0    5      3.70      0.00
   14    0    5     -3.41      0.00
   15    0    5     -8.51      0.00
   16    0    5     -2.54      0.00
   17    0    5     -0.89      0.00
   18    0    5     -4.58      0.00
   19    0    5      5.46      0.00
  -15    1    5      5.10      0.00
  -14    1    5      1.43      0.00
  -13    1    5     -3.09      0.00
  -12    1    5     -1.71      0.00
  -11    1    5      0.59      0.00
  -10    1    5      6.44      0.00
   -9    1    5     -0.20      0.00
   -8    1    5     -0.96      0.00
   -7    1    5     15.92      0.00
   -6    1    5    -11.37      0.00
   -5    1    5     11.89      0.00
   -4    1    5     12.05      0.00
   -3    1    5    -11.09      0.00
   -2    1    5     11.09      0.00
   -1    1    5     30.20      0.00
    0    1    5     37.93      0.00
    1    1    5    -14.87      0.00
    2    1    5     40.64      0.00
    3    1    5    -29.95      0.00
    4    1    5    -25.79      0.00
    5    1    5      8.54      0.00
    6    1    5      6.61      0.00
    7    1    5     26.80      0.00
    8    1    5    -25.82      0.00
    9    1    5     11.43      0.00
   10    1    5     -4.67      0.00
   11    1    5      1.00      0.00
   12    1    5     -7.99      0.00
   13    1    5      0.55      0.00
   14    1    5     -2.64      0.00
   15    1    5     -0.26      0.00
   16    1    5      1.49      0.00
   17    1    5      0.90      0.00
   18    1    5     -2.58      0.00
   19    1    5      2.16      0.00
  -15    2    5     12.57      0.00
  -14    2    5      4.05      0.00
  -13    2    5     -2.28      0.00
  -12    2    5     -2.17      0.00
  -11    2    5     -3.98      0.00
  -10    2    5     -1.26      0.00
   -9    2    5      8.54      0.00
   -8    2    5     -1.52      0.00
   -7    2    5     -0.25      0.00
   -6    2    5     -2.29      0.00
   -5    2    5     -3.83      0.00
   -4    2    5     12.92      0.00
   -3    2    5     18.53      0.00
   -2    2    5      1.37      0.00
   -1    2    5     39.09      0.00
    0    2    5     16.52      0.00
    1    2    5    -20.99      0.00
    2    2    5    -13.00      0.00
    3    2    5     62.87      0.00
    4    2    5    -81.48      0.00
    5    2    5     12.83      0.00
    6    2    5      4.36      0.00
    7    2    5     -8.82      0.00
    8    2    5      8.99      0.00
    9    2    5      5.40      0.00
   10    2    5    -10.29      0.00
   11    2    5      0.76      0.00
   12    2    5      0.69      0.00
   13    2    5     -0.22      0.00
   14    2    5     -2.67      0.00
   15    2    5     -4.00      0.00
   16    2    5     -5.17      0.00
   17    2    5     -6.84      0.00
   18    2    5     -1.32      0.00
   19    2    5      2.23      0.00
  -14    3    5     -2.32      0.00
  -13    3    5      1.75      0.00
  -12    3    5      1.25      0.00
  -11    3    5      2.55      0.00
  -10    3    5      7.10      0.00
   -9    3    5      0.29      0.00
   -8    3    5     -0.15      0.00
   -7    3    5     14.63      0.00
   -6    3    5    -12.83      0.00
   -5    3    5     -6.82      0.00
   -4    3    5     -2.39      0.00
   -3    3    5     -5.69      0.00
   -2    3    5     -5.43      0.00
   -1    3    5     53.51      0.00
    0    3    5     -8.26      0.00
    1    3    5      8.59      0.00
    2    3    5     56.49      0.00
    3    3    5     -5.27      0.00
    4    3    5    -30.21      0.00
    5    3    5    -19.42      0.00
    6    3    5     -2.91      0.00
    7    3    5     -2.97      0.00
    8    3    5     -6.49      0.00
    9    3    5     -2.84      0.00
   10    3    5      6.87      0.00
   11    3    5      3.92      0.00
   12    3    5    -10.80      0.00
   13    3    5     -0.89      0.00
   14    3    5      1.42      0.00
   15    3    5     -0.01      0.00
   16    3    5     -0.63      0.00
   17    3    5      0.44      0.00
   18    3    5      5.49      0.00
   19    3    5     -0.73      0.00
   20    3    5      1.06      0.00
  -14    4    5     -2.07      0.00
  -13    4    5      1.66      0.00
  -12    4    5      2.35      0.00
  -11    4    5     -1.21      0.00
  -10    4    5      0.17      0.00
   -9    4    5     -0.34      0.00
   -8    4    5     -4.75      0.00
   -7    4    5     -1.03      0.00
   -6    4    5     -9.05      0.00
   -5    4    5     20.53      0.00
   -4    4    5      1.03      0.00
   -3    4    5      1.84      0.00
   -2    4    5    -12.34      0.00
   -1    4    5      8.46      0.00
    0    4    5     17.23      0.00
    1    4    5     41.35      0.00
    2    4    5      1.34      0.00
    3    4    5     38.86      0.00
    4    4    5    -23.56      0.00
    5    4    5      3.03      0.00
    6    4    5      7.30      0.00
    7    4    5     12.21      0.00
    8    4    5     -4.64      0.00
    9    4    5     -2.99      0.00
   10    4    5     -9.43      0.00
   11    4    5     -6.85      0.00
   12    4    5     11.22      0.00
   13    4    5     -3.80      0.00
   14    4    5      2.93      0.00
   15    4    5     -5.36      0.00
   16    4    5     -1.29      0.00
   17    4    5     -2.50      0.00
   18    4    5      2.02      0.00
   19    4    5     -3.43      0.00
   20    4    5      3.25      0.00
  -13    5    5     -7.20      0.00
  -12    5    5      4.21      0.00
  -11    5    5     -3.64      0.00
  -10    5    5      6.78      0.00
   -9    5    5      1.36      0.00
   -8    5    5      0.84      0.00
   -7    5    5      8.32      0.00
   -6    5    5     -5.45      0.00
   -5    5    5     -7.32      0.00
   -4    5    5     -2.87      0.00
   -3    5    5     15.78      0.00
   -2    5    5     -5.14      0.00
   -1    5    5     47.09      0.00
    0    5    5    -40.14      0.00
    1    5    5    -10.19      0.00
    2    5    5     15.68      0.00
    3    5    5     40.02      0.00
    4    5    5     42.52      0.00
    5    5    5     38.65      0.00
    6    5    5      3.27      0.00
    7    5    5    -18.27      0.00
    8    5    5      4.68      0.00
    9    5    5    -11.52      0.00
   10    5    5      8.25      0.00
   11    5    5      4.26      0.00
   12    5    5      0.68      0.00
   13    5    5     -1.03      0.00
   14    5    5      5.39      0.00
   15    5    5      0.56      0.00
   16    5    5      3.96      0.00
   17    5    5      2.93      0.00
   18    5    5      2.70      0.00
   19    5    5      0.75      0.00
   20    5    5     -0.08      0.00
  -13    6    5     -6.32      0.00
  -12    6    5     -4.14      0.00
  -11    6    5     -4.54      0.00
  -10    6    5      3.44      0.00
   -9    6    5     -6.96      0.00
   -8    6    5     -2.31      0.00
   -7    6    5      0.22      0.00
   -6    6    5    -12.18      0.00
   -5    6    5     21.75      0.00
   -4    6    5      4.25      0.00
   -3    6    5     -6.90      0.00
   -2    6    5     -7.04      0.00
   -1    6    5      7.18      0.00
    0    6    5     -9.43      0.00
    1    6    5     34.33      0.00
    2    6    5     -6.27      0.00
    3    6    5    -12.02      0.00
    4    6    5      6.76      0.00
    5    6    5     44.31      0.00
    6    6    5     16.38      0.00
    7    6    5     49.54      0.00
    8    6    5      0.10      0.00
    9    6    5    -13.60      0.00
   10    6    5    -15.31      0.00
   11    6    5     -4.70      0.00
   12    6    5      3.84      0.00
   13    6    5     -1.69      0.00
   14    6    5      1.46      0.00
   15    6    5     -1.79      0.00
   16    6    5      1.94      0.00
   17    6    5      0.29      0.00
   18    6    5      1.04      0.00
   19    6    5      1.35      0.00
   20    6    5      1.60      0.00
   21    6    5     -0.18      0.00
  -12    7    5     -0.58      0.00
  -11    7    5     -0.15      0.00
  -10    7    5     -0.02      0.00
   -9    7    5     -1.65      0.00
   -8    7    5      0.78      0.00
   -7    7    5     -3.02      0.00
   -6    7    5     -3.17      0.00
   -5    7    5     -5.29      0.00
   -4    7    5     -2.47      0.00
   -3    7    5     10.92      0.00
   -2    7    5     -1.33      0.00
   -1    7    5     10.50      0.00
    0    7    5    -28.35      0.00
    1    7    5      0.34      0.00
    2    7    5    -13.98      0.00
    3    7    5     29.66      0.00
    4    7    5    -10.97      0.00
    5    7    5     29.83      0.00
    6    7    5     -3.83      0.00
    7    7    5      3.95      0.00
    8    7    5     17.32      0.00
    9    7    5     -2.62      0.00
   10    7    5      2.24      0.00
   11    7    5     -0.77      0.00
   12    7    5     -0.42      0.00
   13    7    5     -7.15      0.00
   14    7    5      5.82      0.00
   15    7    5      0.12      0.00
   16    7    5      0.71      0.00
   17    7    5     -1.62      0.00
   18    7    5     -1.01      0.00
   19    7    5     -1.13      0.00
   20    7    5     -6.51      0.00
   21    7    5      2.63      0.00
  -11    8    5      2.15      0.00
  -10    8    5     -0.74      0.00
   -9    8    5     -4.84      0.00
   -8    8    5     -3.21      0.00
   -7    8    5      6.95      0.00
   -6    8    5     -1.09      0.00
   -5    8    5      8.27      0.00
   -4    8    5      6.27      0.00
   -3    8    5    -10.52      0.00
   -2    8    5    -12.12      0.00
   -1    8    5     18.17      0.00
    0    8    5    -21.32      0.00
    1    8    5     16.69      0.00
    2    8    5     -8.75      0.00
    3    8    5    -13.70      0.00
    4    8    5    -12.80      0.00
    5    8    5     18.40      0.00
    6    8    5     -9.97      0.00
    7    8    5     11.36      0.00
    8    8    5      3.59      0.00
    9    8    5      8.23      0.00
   10    8    5      8.76      0.00
   11    8    5     -0.89      0.00
   12    8    5     -2.09      0.00
   13    8    5      0.25      0.00
   14    8    5     -1.74      0.00
   15    8    5      0.14      0.00
   16    8    5      2.70      0.00
   17    8    5      1.36      0.00
   18    8    5      0.54      0.00
   19    8    5      3.70      0.00
   20    8    5     -2.98      0.00
   21    8    5     -1.09      0.00
  -10    9    5      0.77      0.00
   -9    9    5     -2.15      0.00
   -8    9    5      1.34      0.00
   -7    9    5     -2.83      0.00
   -6    9    5      0.62      0.00
   -5    9    5      7.38      0.00
   -4    9    5      0.39      0.00
   -3    9    5      6.68      0.00
   -2    9    5      5.48      0.00
   -1    9    5     -5.21      0.00
    0    9    5    -19.25      0.00
    1    9    5     17.08      0.00
    2    9    5    -17.50      0.00
    3    9    5     20.34      0.00
    4    9    5    -21.37      0.00
    5    9    5     16.78      0.00
    6    9    5     -5.01      0.00
    7    9    5     10.59      0.00
    8    9    5    -10.57      0.00
    9    9    5      7.32      0.00
   10    9    5      8.92      0.00
   11    9    5      7.10      0.00
   12    9    5      8.38      0.00
   13    9    5      4.15      0.00
   14    9    5      2.02      0.00
   15    9    5     -3.38      0.00
   16    9    5      3.49      0.00
   17    9    5     -5.37      0.00
   18    9    5     -2.44      0.00
   19    9    5      6.57      0.00
   20    9    5     -3.63      0.00
   21    9    5      2.87      0.00
  -10   10    5      2.66      0.00
   -9   10    5      0.61      0.00
   -8   10    5      0.90      0.00
   -7   10    5      7.47      0.00
   -6   10    5      2.73      0.00
   -5   10    5      2.42      0.00
   -4   10    5     -0.20      0.00
   -3   10    5      5.61      0.00
   -2   10    5     -5.93      0.00
   -1   10    5     10.78      0.00
    0   10    5    -10.26      0.00
    1   10    5      1.63      0.00
    2   10    5    -11.90      0.00
    3   10    5      6.04      0.00
    4   10    5      1.35      0.00
    5   10    5     16.06      0.00
    6   10    5     -8.54      0.00
    7   10    5      0.40      0.00
    8   10    5      2.96      0.00
    9   10    5     -3.09      0.00
   10   10    5     16.51      0.00
   11   10    5      4.17      0.00
   12   10    5     -2.31      0.00
   13   10    5      6.08      0.00
   14   10    5      3.95      0.00
   15   10    5     -2.46      0.00
   16   10    5      6.66      0.00
   17   10    5      0.38      0.00
   18   10    5     -6.02      0.00
   19   10    5      3.96      0.00
   20   10    5      1.74      0.00
   21   10    5      0.26      0.00
   -9   11    5      0.44      0.00
   -8   11    5      6.78      0.00
   -7   11    5     -0.29      0.00
   -6   11    5    -11.09      0.00
   -5   11    5      1.95      0.00
   -4   11    5     -0.54      0.00
   -3   11    5     -4.47      0.00
   -2   11    5      1.07      0.00
   -1   11    5     -0.16      0.00
    0   11    5     -1.71      0.00
    1   11    5     11.35      0.00
    2   11    5     -0.42      0.00
    3   11    5     -2.15      0.00
    4   11    5     -4.03      0.00
    5   11    5     -8.90      0.00
    6   11    5     -7.57      0.00
    7   11    5     12.52      0.00
    8   11    5     -0.86      0.00
    9   11    5     -3.01      0.00
   10   11    5      1.82      0.00
   11   11    5      3.03      0.00
   12   11    5     -1.64      0.00
   13   11    5      5.49      0.00
   14   11    5      4.14      0.00
   15   11    5      1.07      0.00
   16   11    5      4.16      0.00
   17   11    5     -1.69      0.00
   18   11    5     -2.75      0.00
   19   11    5      3.79      0.00
   20   11    5     -0.88      0.00
   21   11    5      5.46      0.00
   -8   12    5      0.20      0.00
   -7   12    5      5.74      0.00
   -6   12    5     -0.51      0.00
   -5   12    5      1.57      0.00
   -4   12    5     -7.96      0.00
   -3   12    5      1.52      0.00
   -2   12    5     -3.27      0.00
   -1   12    5      2.55      0.00
    0   12    5     -1.21      0.00
    1   12    5      2.12      0.00
    2   12    5      3.44      0.00
    3   12    5      5.19      0.00
    4   12    5     10.52      0.00
    5   12    5     -2.26      0.00
    6   12    5     -8.87      0.00
    7   12    5     -6.60      0.00
    8   12    5      5.69      0.00
    9   12    5     -0.51      0.00
   10   12    5      7.67      0.00
   11   12    5      2.26      0.00
   12   12    5     -6.64      0.00
   13   12    5     -0.72      0.00
   14   12    5      2.18      0.00
   15   12    5     -3.32      0.00
   16   12    5      7.08      0.00
   17   12    5      0.03      0.00
   18   12    5      0.67      0.00
   19   12    5     -2.27      0.00
   20   12    5      2.86      0.00
   21   12    5      0.07      0.00
   -7   13    5      8.19      0.00
   -6   13    5      0.80      0.00
   -5   13    5      6.15      0.00
   -4   13    5     -1.09      0.00
   -3   13    5     -7.93      0.00
   -2   13    5     -1.94      0.00
   -1   13    5      4.01      0.00
    0   13    5      5.77      0.00
    1   13    5      3.01      0.00
    2   13    5      7.96      0.00
    3   13    5     -2.93      0.00
    4   13    5     10.87      0.00
    5   13    5     -6.55      0.00
    6   13    5     -2.70      0.00
    7   13    5      6.48      0.00
    8   13    5     -6.50      0.00
    9   13    5     -4.23      0.00
   10   13    5     -3.37      0.00
   11   13    5     13.51      0.00
   12   13    5     -3.97      0.00
   13   13    5      5.27      0.00
   14   13    5     -1.64      0.00
   15   13    5      1.18      0.00
   16   13    5      1.98      0.00
   17   13    5     -2.80      0.00
   18   13    5      1.42      0.00
   19   13    5      7.96      0.00
   20   13    5      6.98      0.00
   21   13    5     -3.20      0.00
   -6   14    5      0.93      0.00
   -5   14    5     -1.00      0.00
   -4   14    5      0.46      0.00
   -3   14    5     -0.92      0.00
   -2   14    5      1.27      0.00
   -1   14    5     -4.71      0.00
    0   14    5     -3.03      0.00
    1   14    5      1.29      0.00
    2   14    5      2.76      0.00
    3   14    5      6.42      0.00
    4   14    5     11.48      0.00
    5   14    5      3.48      0.00
    6   14    5     -1.56      0.00
    7   14    5      1.77      0.00
    8   14    5      1.11      0.00
    9   14    5      9.58      0.00
   10   14    5     -8.44      0.00
   11   14    5      3.10      0.00
   12   14    5     -0.06      0.00
   13   14    5      4.28      0.00
   14   14    5     -0.92      0.00
   15   14    5     -2.87      0.00
   16   14    5      2.73      0.00
   17   14    5      6.48      0.00
   18   14    5      9.32      0.00
   19   14    5     -4.00      0.00
   20   14    5      4.98      0.00
   21   14    5     -6.23      0.00
   -5   15    5      5.23      0.00
   -4   15    5      3.35      0.00
   -3   15    5     -4.37      0.00
   -2   15    5     -2.11      0.00
   -1   15    5      4.62      0.00
    0   15    5     -5.58      0.00
    1   15    5     -1.50      0.00
    2   15    5      3.07      0.00
    3   15    5      1.44      0.00
    4   15    5      5.55      0.00
    5   15    5     -2.40      0.00
    6   15    5      3.81      0.00
    7   15    5      0.62      0.00
    8   15    5      0.56      0.00
    9   15    5      2.46      0.00
   10   15    5      3.91      0.00
   11   15    5      1.08      0.00
   12   15    5      1.53      0.00
   13   15    5      4.23      0.00
   14   15    5      1.38      0.00
   15   15    5      2.06      0.00
   16   15    5     -0.27      0.00
   17   15    5      6.63      0.00
   18   15    5      6.50      0.00
   19   15    5      4.11      0.00
   20   15    5      3.89      0.00
   -4   16    5      4.24      0.00
   -3   16    5      3.04      0.00
   -2   16    5     -2.90      0.00
   -1   16    5     -5.94      0.00
    0   16    5     -8.26      0.00
    1   16    5      2.92      0.00
    2   16    5     -3.56      0.00
    3   16    5      1.01      0.00
    4   16    5     -0.40      0.00
    5   16    5     -4.69      0.00
    6   16    5      2.72      0.00
    7   16    5      6.08      0.00
    8   16    5      3.40      0.00
    9   16    5      2.68      0.00
   10   16    5     -5.40      0.00
   11   16    5      0.62      0.00
   12   16    5      1.03      0.00
   13   16    5      4.98      0.00
   14   16    5      1.88      0.00
   15   16    5      5.62      0.00
   16   16    5     -2.88      0.00
   17   16    5     -0.10      0.00
   18   16    5      1.75      0.00
   19   16    5     -1.56      0.00
   20   16    5     -1.93      0.00
   -2   17    5     -6.87      0.00
   -1   17    5     -1.42      0.00
    0   17    5     -2.56      0.00
    1   17    5     -0.39      0.00
    2   17    5     -1.70      0.00
    3   17    5      4.27      0.00
    4   17    5     -2.40      0.00
    5   17    5      0.76      0.00
    6   17    5     -0.70      0.00
    7   17    5     -3.10      0.00
    8   17    5      6.00      0.00
    9   17    5      2.52      0.00
   10   17    5     -0.51      0.00
   11   17    5     -7.47      0.00
   12   17    5      2.97      0.00
   13   17    5     -1.69      0.00
   14   17    5     -0.77      0.00
   15   17    5      1.70      0.00
   16   17    5     -1.60      0.00
   17   17    5     -0.01      0.00
   18   17    5     -7.56      0.00
   19   17    5     -4.08      0.00
   20   17    5      1.19      0.00
   -1   18    5     -4.30      0.00
    0   18    5     -4.80      0.00
    1   18    5     -5.14      0.00
    2   18    5     -1.53      0.00
    3   18    5     -1.03      0.00
    4   18    5      1.99      0.00
    5   18    5     -3.82      0.00
    6   18    5      1.45      0.00
    7   18    5     -5.49      0.00
    8   18    5      3.28      0.00
    9   18    5     -3.46      0.00
   10   18    5     -4.54      0.00
   11   18    5     -0.84      0.00
   12   18    5      1.61      0.00
   13   18    5      2.75      0.00
   14   18    5      4.62      0.00
   15   18    5      0.16      0.00
   16   18    5     -6.52      0.00
   17   18    5      1.08      0.00
   18   18    5     -0.05      0.00
   19   18    5     -0.56      0.00
    1   19    5     -4.24      0.00
    2   19    5      4.52      0.00
    3   19    5      0.00      0.00
    4   19    5     -0.91      0.00
    5   19    5     -3.70      0.00
    6   19    5     -0.30      0.00
    7   19    5     -4.96      0.00
    8   19    5     -0.40      0.00
    9   19    5     -2.66      0.00
   10   19    5     -3.84      0.00
   11   19    5     -7.98      0.00
   12   19    5     -3.53      0.00
   13   19    5     -3.14      0.00
   14   19    5      8.09      0.00
   15   19    5      6.36      0.00
   16   19    5      0.77      0.00
   17   19    5     -1.51      0.00
   18   19    5      1.64      0.00
    3   20    5     -3.14      0.00
    4   20    5     -2.08      0.00
    5   20    5     -5.54      0.00
    6   20    5      0.02      0.00
    7   20    5     -2.36      0.00
    8   20    5     -0.90      0.00
    9   20    5      4.41      0.00
   10   20    5      4.02      0.00
   11   20    5     -2.79      0.00
   12   20    5      4.32      0.00
   13   20    5     -0.95      0.00
   14   20    5      3.87      0.00
   15   20    5      4.28      0.00
   16   20    5     -0.09      0.00
   17   20    5      6.00      0.00
    5   21    5     -0.91      0.00
    6   21    5     -2.98      0.00
    7   21    5      2.83      0.00
    8   21    5      0.00      0.00
    9   21    5      0.58      0.00
   10   21    5     -0.77      0.00
   11   21    5      0.09      0.00
   12   21    5      1.32      0.00
   13   21    5      1.05      0.00
   14   21    5      2.72      0.00
   15   21    5     -0.48      0.00
   16   21    5     -4.29      0.00
    8   22    5      2.57      0.00
    9   22    5      3.00      0.00
   10   22    5     -1.12      0.00
   11   22    5      2.71      0.00
   12   22    5      4.00      0.00
   13   22    5      4.92      0.00
  -12  -21    6      0.16      0.00
  -11  -21    6     -0.54      0.00
  -10  -21    6      1.43      0.00
   -9  -21    6     -4.69      0.00
   -8  -21    6      2.03      0.00
   -7  -21    6      1.99      0.00
   -6  -21    6      2.16      0.00
   -5  -21    6     -5.57      0.00
   -4  -21    6     -0.59      0.00
   -3  -21    6      0.23      0.00
  -13  -20    6     -3.40      0.00
  -12  -20    6      5.45      0.00
  -11  -20    6     -1.55      0.00
  -10  -20    6     -2.08      0.00
   -9  -20    6     -0.84      0.00
   -8  -20    6     -2.44      0.00
   -7  -20    6     -1.99      0.00
   -6  -20    6     -4.34      0.00
   -5  -20    6     -5.12      0.00
   -4  -20    6     -1.26      0.00
   -3  -20    6     -1.20      0.00
   -2  -20    6      1.12      0.00
   -1  -20    6     -0.42      0.00
  -15  -19    6      0.25      0.00
  -14  -19    6     -3.33      0.00
  -13  -19    6     -4.47      0.00
  -12  -19    6      3.05      0.00
  -11  -19    6      1.54      0.00
  -10  -19    6     -2.42      0.00
   -9  -19    6     -1.34      0.00
   -8  -19    6      2.48      0.00
   -7  -19    6      4.91      0.00
   -6  -19    6      0.36      0.00
   -5  -19    6     -3.38      0.00
   -4  -19    6     -4.18      0.00
   -3  -19    6     -4.75      0.00
   -2  -19    6     -4.52      0.00
   -1  -19    6      1.80      0.00
    0  -19    6      0.58      0.00
    1  -19    6     -2.42      0.00
  -15  -18    6      7.75      0.00
  -14  -18    6      5.46      0.00
  -13  -18    6     -5.39      0.00
  -12  -18    6      2.08      0.00
  -11  -18    6     -4.49      0.00
  -10  -18    6     -2.63      0.00
   -9  -18    6      1.01      0.00
   -8  -18    6      1.69      0.00
   -7  -18    6      0.96      0.00
   -6  -18    6     -9.52      0.00
   -5  -18    6     -0.58      0.00
   -4  -18    6     -4.27      0.00
   -3  -18    6      4.46      0.00
   -2  -18    6      0.07      0.00
   -1  -18    6     -1.18      0.00
    0  -18    6     -4.98      0.00
    1  -18    6     -2.15      0.00
    2  -18    6      2.04      0.00
    3  -18    6     -0.08      0.00
  -16  -17    6      8.30      0.00
  -15  -17    6     -2.03      0.00
  -14  -17    6     -2.77      0.00
  -13  -17    6     -0.68      0.00
  -12  -17    6      7.46      0.00
  -11  -17    6      0.48      0.00
  -10  -17    6     -2.32      0.00
   -9  -17    6      3.98      0.00
   -8  -17    6     -3.76      0.00
   -7  -17    6      2.90      0.00
   -6  -17    6     -4.30      0.00
   -5  -17    6      1.51      0.00
   -4  -17    6      3.17      0.00
   -3  -17    6     -1.15      0.00
   -2  -17    6     -2.08      0.00
   -1  -17    6      3.68      0.00
    0  -17    6     -1.23      0.00
    1  -17    6     -1.08      0.00
    2  -17    6      2.20      0.00
    3  -17    6     -2.83      0.00
    4  -17    6      3.64      0.00
    5  -17    6     -0.25      0.00
  -17  -16    6      4.51      0.00
  -16  -16    6      2.42      0.00
  -15  -16    6      6.95      0.00
  -14  -16    6     -0.53      0.00
  -13  -16    6     -0.39      0.00
  -12  -16    6     -1.85      0.00
  -11  -16    6     -0.07      0.00
  -10  -16    6      0.14      0.00
   -9  -16    6      4.60      0.00
   -8  -16    6     -0.66      0.00
   -7  -16    6      1.02      0.00
   -6  -16    6     -4.60      0.00
   -5  -16    6      0.10      0.00
   -4  -16    6     -1.46      0.00
   -3  -16    6      2.66      0.00
   -2  -16    6     -0.45      0.00
   -1  -16    6      0.02      0.00
    0  -16    6      5.10      0.00
    1  -16    6      2.90      0.00
    2  -16    6      2.95      0.00
    3  -16    6      0.71      0.00
    4  -16    6      2.18      0.00
    5  -16    6     -2.77      0.00
    6  -16    6     -0.10      0.00
  -17  -15    6     -7.48      0.00
  -16  -15    6      2.49      0.00
  -15  -15    6      2.85      0.00
  -14  -15    6     -0.53      0.00
  -13  -15    6      4.81      0.00
  -12  -15    6      0.57      0.00
  -11  -15    6      1.47      0.00
  -10  -15    6     -2.38      0.00
   -9  -15    6      4.34      0.00
   -8  -15    6    -10.87      0.00
   -7  -15    6      6.01      0.00
   -6  -15    6     10.11      0.00
   -5  -15    6     -0.46      0.00
   -4  -15    6      1.07      0.00
   -3  -15    6      2.41      0.00
   -2  -15    6      2.62      0.00
   -1  -15    6      2.29      0.00
    0  -15    6     -1.41      0.00
    1  -15    6      0.48      0.00
    2  -15    6      2.34      0.00
    3  -15    6      1.47      0.00
    4  -15    6      3.73      0.00
    5  -15    6      3.00      0.00
    6  -15    6     -4.18      0.00
    7  -15    6     -5.48      0.00
  -17  -14    6     -1.36      0.00
  -16  -14    6     -1.25      0.00
  -15  -14    6      5.02      0.00
  -14  -14    6     -3.82      0.00
  -13  -14    6      2.19      0.00
  -12  -14    6      2.55      0.00
  -11  -14    6      2.58      0.00
  -10  -14    6     -1.74      0.00
   -9  -14    6      1.99      0.00
   -8  -14    6      0.83      0.00
   -7  -14    6      0.09      0.00
   -6  -14    6      7.46      0.00
   -5  -14    6      1.30      0.00
   -4  -14    6      2.85      0.00
   -3  -14    6      1.86      0.00
   -2  -14    6      0.82      0.00
   -1  -14    6      7.10      0.00
    0  -14    6      4.12      0.00
    1  -14    6      2.20      0.00
    2  -14    6     -1.69      0.00
    3  -14    6      3.29      0.00
    4  -14    6     -1.09      0.00
    5  -14    6      1.52      0.00
    6  -14    6      0.11      0.00
    7  -14    6     -4.53      0.00
    8  -14    6      5.13      0.00
  -17  -13    6     -6.84      0.00
  -16  -13    6     -0.99      0.00
  -15  -13    6      3.55      0.00
  -14  -13    6     -1.92      0.00
  -13  -13    6     -0.38      0.00
  -12  -13    6      2.75      0.00
  -11  -13    6      6.40      0.00
  -10  -13    6      7.08      0.00
   -9  -13    6      4.39      0.00
   -8  -13    6      4.47      0.00
   -7  -13    6     -4.45      0.00
   -6  -13    6      4.46      0.00
   -5  -13    6      1.80      0.00
   -4  -13    6     10.90      0.00
   -3  -13    6      7.53      0.00
   -2  -13    6     -4.08      0.00
   -1  -13    6      0.58      0.00
    0  -13    6     -7.83      0.00
    1  -13    6      8.09      0.00
    2  -13    6     -0.97      0.00
    3  -13    6      6.38      0.00
    4  -13    6     -1.32      0.00
    5  -13    6      2.08      0.00
    6  -13    6      0.99      0.00
    7  -13    6      1.17      0.00
    8  -13    6      2.33      0.00
    9  -13    6      0.88      0.00
   10  -13    6     -2.66      0.00
  -18  -12    6      3.75      0.00
  -17  -12    6     -1.01      0.00
  -16  -12    6      2.14      0.00
  -15  -12    6      1.75      0.00
  -14  -12    6     -3.20      0.00
  -13  -12    6      3.94      0.00
  -12  -12    6     -0.91      0.00
  -11  -12    6      2.89      0.00
  -10  -12    6     -0.94      0.00
   -9  -12    6     -3.45      0.00
   -8  -12    6      5.86      0.00
   -7  -12    6      3.94      0.00
   -6  -12    6     14.91      0.00
   -5  -12    6      2.71      0.00
   -4  -12    6      7.55      0.00
   -3  -12    6     -1.72      0.00
   -2  -12    6     -0.68      0.00
   -1  -12    6      5.54      0.00
    0  -12    6     -1.13      0.00
    1  -12    6     -1.95      0.00
    2  -12    6     -7.86      0.00
    3  -12    6      6.06      0.00
    4  -12    6      0.13      0.00
    5  -12    6      7.66      0.00
    6  -12    6     -0.50      0.00
    7  -12    6     -2.19      0.00
    8  -12    6      5.32      0.00
    9  -12    6      1.02      0.00
   10  -12    6     -0.80      0.00
   11  -12    6      0.19      0.00
  -18  -11    6      3.56      0.00
  -17  -11    6     -2.56      0.00
  -16  -11    6      1.93      0.00
  -15  -11    6      0.68      0.00
  -14  -11    6     -5.75      0.00
  -13  -11    6      1.61      0.00
  -12  -11    6      0.81      0.00
  -11  -11    6     -4.84      0.00
  -10  -11    6      0.15      0.00
   -9  -11    6     -3.25      0.00
   -8  -11    6      9.60      0.00
   -7  -11    6     -3.97      0.00
   -6  -11    6      6.77      0.00
   -5  -11    6     -4.64      0.00
   -4  -11    6      8.24      0.00
   -3  -11    6      9.67      0.00
   -2  -11    6    -16.42      0.00
   -1  -11    6     -3.80      0.00
    0  -11    6    -13.84      0.00
    1  -11    6      4.97      0.00
    2  -11    6     -1.42      0.00
    3  -11    6      3.95      0.00
    4  -11    6     -4.11      0.00
    5  -11    6      7.13      0.00
    6  -11    6     -7.21      0.00
    7  -11    6      3.99      0.00
    8  -11    6      1.04      0.00
    9  -11    6     -3.02      0.00
   10  -11    6     -1.15      0.00
   11  -11    6     -0.75      0.00
  -18  -10    6     -1.68      0.00
  -17  -10    6     -3.38      0.00
  -16  -10    6      4.94      0.00
  -15  -10    6     -2.90      0.00
  -14  -10    6      0.41      0.00
  -13  -10    6      1.04      0.00
  -12  -10    6     -6.32      0.00
  -11  -10    6     -8.82      0.00
  -10  -10    6     -9.84      0.00
   -9  -10    6     -6.84      0.00
   -8  -10    6     -6.78      0.00
   -7  -10    6      4.16      0.00
   -6  -10    6     15.20      0.00
   -5  -10    6      6.99      0.00
   -4  -10    6      3.25      0.00
   -3  -10    6      2.00      0.00
   -2  -10    6     -8.02      0.00
   -1  -10    6    -10.95      0.00
    0  -10    6      5.03      0.00
    1  -10    6     -9.45      0.00
    2  -10    6     -4.53      0.00
    3  -10    6     -0.70      0.00
    4  -10    6      8.19      0.00
    5  -10    6     -2.45      0.00
    6  -10    6    -11.49      0.00
    7  -10    6     -2.14      0.00
    8  -10    6      5.27      0.00
    9  -10    6      0.96      0.00
   10  -10    6      3.06      0.00
   11  -10    6      0.98      0.00
   12  -10    6      3.02      0.00
  -18   -9    6     -2.07      0.00
  -17   -9    6    -10.99      0.00
  -16   -9    6     -0.01      0.00
  -15   -9    6      1.60      0.00
  -14   -9    6      0.82      0.00
  -13   -9    6     -0.91      0.00
  -12   -9    6      2.43      0.00
  -11   -9    6     -6.85      0.00
  -10   -9    6     -3.68      0.00
   -9   -9    6      2.03      0.00
   -8   -9    6     -3.79      0.00
   -7   -9    6     -0.06      0.00
   -6   -9    6     12.89      0.00
   -5   -9    6    -12.33      0.00
   -4   -9    6     -3.36      0.00
   -3   -9    6      6.52      0.00
   -2   -9    6     -2.67      0.00
   -1   -9    6      1.46      0.00
    0   -9    6      9.58      0.00
    1   -9    6      2.02      0.00
    2   -9    6     -3.36      0.00
    3   -9    6     -3.45      0.00
    4   -9    6    -13.06      0.00
    5   -9    6      4.58      0.00
    6   -9    6     -5.46      0.00
    7   -9    6     -2.42      0.00
    8   -9    6      4.54      0.00
    9   -9    6     -7.02      0.00
   10   -9    6      4.70      0.00
   11   -9    6      5.62      0.00
   12   -9    6      3.65      0.00
   13   -9    6     -1.67      0.00
  -18   -8    6     -3.65      0.00
  -17   -8    6     -2.71      0.00
  -16   -8    6      6.83      0.00
  -15   -8    6      2.72      0.00
  -14   -8    6      2.15      0.00
  -13   -8    6      0.79      0.00
  -12   -8    6     -3.04      0.00
  -11   -8    6     -8.12      0.00
  -10   -8    6      1.77      0.00
   -9   -8    6     13.87      0.00
   -8   -8    6      2.91      0.00
   -7   -8    6     -2.72      0.00
   -6   -8    6      2.76      0.00
   -5   -8    6      3.48      0.00
   -4   -8    6      4.50      0.00
   -3   -8    6     21.49      0.00
   -2   -8    6      7.44      0.00
   -1   -8    6     -7.07      0.00
    0   -8    6     -0.01      0.00
    1   -8    6      0.85      0.00
    2   -8    6     12.85      0.00
    3   -8    6     -4.43      0.00
    4   -8    6     13.00      0.00
    5   -8    6    -20.95      0.00
    6   -8    6    -11.35      0.00
    7   -8    6      5.67      0.00
    8   -8    6      6.94      0.00
    9   -8    6      3.55      0.00
   10   -8    6      5.52      0.00
   11   -8    6      0.86      0.00
   12   -8    6     -5.92      0.00
   13   -8    6      1.05      0.00
   14   -8    6     -1.64      0.00
  -17   -7    6     -5.06      0.00
  -16   -7    6     -1.48      0.00
  -15   -7    6      3.79      0.00
  -14   -7    6      3.24      0.00
  -13   -7    6     -2.97      0.00
  -12   -7    6      2.35      0.00
  -11   -7    6      1.18      0.00
  -10   -7    6      1.28      0.00
   -9   -7    6     -0.08      0.00
   -8   -7    6      0.23      0.00
   -7   -7    6     12.61      0.00
   -6   -7    6      7.91      0.00
   -5   -7    6     -8.80      0.00
   -4   -7    6    -21.62      0.00
   -3   -7    6     -3.53      0.00
   -2   -7    6     -1.26      0.00
   -1   -7    6     20.78      0.00
    0   -7    6     38.93      0.00
    1   -7    6     -1.60      0.00
    2   -7    6    -14.02      0.00
    3   -7    6    -10.05      0.00
    4   -7    6    -16.34      0.00
    5   -7    6      4.32      0.00
    6   -7    6      2.93      0.00
    7   -7    6     -1.21      0.00
    8   -7    6     -4.22      0.00
    9   -7    6      1.75      0.00
   10   -7    6     -4.45      0.00
   11   -7    6     10.50      0.00
   12   -7    6     -2.18      0.00
   13   -7    6     -6.06      0.00
   14   -7    6     -2.22      0.00
   15   -7    6     -4.37      0.00
  -17   -6    6      0.40      0.00
  -16   -6    6      3.69      0.00
  -15   -6    6      1.29      0.00
  -14   -6    6     -0.96      0.00
  -13   -6    6     -1.49      0.00
  -12   -6    6     -6.38      0.00
  -11   -6    6     -4.35      0.00
  -10   -6    6      9.47      0.00
   -9   -6    6      5.54      0.00
   -8   -6    6      4.75      0.00
   -7   -6    6      3.23      0.00
   -6   -6    6    -12.08      0.00
   -5   -6    6    -10.88      0.00
   -4   -6    6     15.39      0.00
   -3   -6    6     14.27      0.00
   -2   -6    6    -26.08      0.00
   -1   -6    6     10.34      0.00
    0   -6    6    -10.42      0.00
    1   -6    6     14.00      0.00
    2   -6    6     26.42      0.00
    3   -6    6      0.59      0.00
    4   -6    6      4.82      0.00
    5   -6    6     -3.60      0.00
    6   -6    6     -5.82      0.00
    7   -6    6      6.95      0.00
    8   -6    6     12.13      0.00
    9   -6    6     -2.26      0.00
   10   -6    6     -1.47      0.00
   11   -6    6     -0.74      0.00
   12   -6    6     -9.40      0.00
   13   -6    6     -1.14      0.00
   14   -6    6     -1.51      0.00
   15   -6    6      4.80      0.00
  -17   -5    6      2.21      0.00
  -16   -5    6     -2.49      0.00
  -15   -5    6     -0.16      0.00
  -14   -5    6      4.88      0.00
  -13   -5    6     -1.24      0.00
  -12   -5    6     -5.57      0.00
  -11   -5    6      0.11      0.00
  -10   -5    6      8.92      0.00
   -9   -5    6    -11.89      0.00
   -8   -5    6     -5.82      0.00
   -7   -5    6     13.12      0.00
   -6   -5    6    -10.35      0.00
   -5   -5    6      2.35      0.00
   -4   -5    6    -20.24      0.00
   -3   -5    6      2.84      0.00
   -2   -5    6    -24.56      0.00
   -1   -5    6     18.48      0.00
    0   -5    6     24.84      0.00
    1   -5    6     16.75      0.00
    2   -5    6     -3.03      0.00
    3   -5    6      9.49      0.00
    4   -5    6     18.02      0.00
    5   -5    6      4.50      0.00
    6   -5    6      9.64      0.00
    7   -5    6      2.59      0.00
    8   -5    6    -14.38      0.00
    9   -5    6      8.44      0.00
   10   -5    6     -4.19      0.00
   11   -5    6      3.91      0.00
   12   -5    6      0.37      0.00
   13   -5    6     -4.34      0.00
   14   -5    6      3.02      0.00
   15   -5    6      3.02      0.00
   16   -5    6     -5.21      0.00
  -17   -4    6      2.96      0.00
  -16   -4    6      1.71      0.00
  -15   -4    6     -0.91      0.00
  -14   -4    6     -3.99      0.00
  -13   -4    6     -0.43      0.00
  -12   -4    6     -3.56      0.00
  -11   -4    6      0.61      0.00
  -10   -4    6      5.56      0.00
   -9   -4    6     -2.46      0.00
   -8   -4    6      3.04      0.00
   -7   -4    6      9.96      0.00
   -6   -4    6    -14.05      0.00
   -5   -4    6    -16.04      0.00
   -4   -4    6     17.00      0.00
   -3   -4    6     15.49      0.00
   -2   -4    6    -42.36      0.00
   -1   -4    6     33.20      0.00
    0   -4    6     -6.09      0.00
    1   -4    6     13.10      0.00
    2   -4    6     -2.01      0.00
    3   -4    6     22.85      0.00
    4   -4    6     -6.78      0.00
    5   -4    6     40.96      0.00
    6   -4    6      6.72      0.00
    7   -4    6      7.77      0.00
    8   -4    6     13.40      0.00
    9   -4    6    -10.97      0.00
   10   -4    6     -1.69      0.00
   11   -4    6      4.50      0.00
   12   -4    6     -1.50      0.00
   13   -4    6     -1.11      0.00
   14   -4    6      4.58      0.00
   15   -4    6      0.96      0.00
   16   -4    6      0.99      0.00
   17   -4    6     -1.10      0.00
  -16   -3    6     -6.32      0.00
  -15   -3    6      0.94      0.00
  -14   -3    6      0.78      0.00
  -13   -3    6      4.40      0.00
  -12   -3    6      0.12      0.00
  -11   -3    6      1.61      0.00
  -10   -3    6      7.59      0.00
   -9   -3    6     -6.84      0.00
   -8   -3    6     -3.28      0.00
   -7   -3    6     13.08      0.00
   -6   -3    6    -15.92      0.00
   -5   -3    6      8.99      0.00
   -4   -3    6     -2.30      0.00
   -3   -3    6     22.39      0.00
   -2   -3    6    -11.70      0.00
   -1   -3    6     28.04      0.00
    0   -3    6    -29.99      0.00
    1   -3    6     14.57      0.00
    2   -3    6      5.97      0.00
    3   -3    6     19.66      0.00
    4   -3    6     29.96      0.00
    5   -3    6     -3.58      0.00
    6   -3    6    -10.86      0.00
    7   -3    6     19.47      0.00
    8   -3    6     -1.47      0.00
    9   -3    6     10.03      0.00
   10   -3    6      4.15      0.00
   11   -3    6     -0.32      0.00
   12   -3    6     -0.38      0.00
   13   -3    6     -0.49      0.00
   14   -3    6      0.06      0.00
   15   -3    6      3.31      0.00
   16   -3    6      2.23      0.00
   17   -3    6     -1.02      0.00
  -16   -2    6     -0.39      0.00
  -15   -2    6      0.00      0.00
  -14   -2    6     -1.26      0.00
  -13   -2    6     -6.34      0.00
  -12   -2    6     -0.11      0.00
  -11   -2    6      2.02      0.00
  -10   -2    6      4.86      0.00
   -9   -2    6      1.60      0.00
   -8   -2    6      0.43      0.00
   -7   -2    6      6.93      0.00
   -6   -2    6      1.06      0.00
   -5   -2    6     -5.55      0.00
   -4   -2    6     -7.12      0.00
   -3   -2    6      1.82      0.00
   -2   -2    6    -21.59      0.00
   -1   -2    6     12.41      0.00
    0   -2    6     27.94      0.00
    1   -2    6     -3.32      0.00
    2   -2    6    -51.23      0.00
    3   -2    6      2.12      0.00
    4   -2    6    -41.21      0.00
    5   -2    6     53.65      0.00
    6   -2    6     12.52      0.00
    7   -2    6     12.29      0.00
    8   -2    6    -10.54      0.00
    9   -2    6      1.62      0.00
   10   -2    6     -5.32      0.00
   11   -2    6      3.89      0.00
   12   -2    6      2.79      0.00
   13   -2    6     -6.06      0.00
   14   -2    6      6.52      0.00
   15   -2    6     -0.43      0.00
   16   -2    6     -0.89      0.00
   17   -2    6      1.88      0.00
   18   -2    6     -0.38      0.00
  -16   -1    6     -1.54      0.00
  -15   -1    6      4.32      0.00
  -14   -1    6      4.07      0.00
  -13   -1    6     -7.25      0.00
  -12   -1    6     -2.93      0.00
  -11   -1    6      1.27      0.00
  -10   -1    6     -0.09      0.00
   -9   -1    6     -8.93      0.00
   -8   -1    6     -0.24      0.00
   -7   -1    6     -6.69      0.00
   -6   -1    6    -14.24      0.00
   -5   -1    6      0.15      0.00
   -4   -1    6     12.97      0.00
   -3   -1    6      6.53      0.00
   -2   -1    6     -4.44      0.00
   -1   -1    6     13.67      0.00
    0   -1    6    -80.25      0.00
    1   -1    6     10.32      0.00
    2   -1    6     16.43      0.00
    3   -1    6     27.73      0.00
    4   -1    6      4.27      0.00
    5   -1    6     -2.49      0.00
    6   -1    6    -38.84      0.00
    7   -1    6     27.39      0.00
    8   -1    6     25.46      0.00
    9   -1    6      4.02      0.00
   10   -1    6      8.26      0.00
   11   -1    6      0.71      0.00
   12   -1    6     -6.89      0.00
   13   -1    6      9.20      0.00
   14   -1    6     -0.47      0.00
   15   -1    6      0.93      0.00
   16   -1    6      3.44      0.00
   17   -1    6      3.80      0.00
   18   -1    6     -2.08      0.00
  -15    0    6     -1.29      0.00
  -14    0    6     -2.81      0.00
  -13    0    6    -12.01      0.00
  -12    0    6      4.57      0.00
  -11    0    6      1.91      0.00
  -10    0    6      0.01      0.00
   -9    0    6    -13.06      0.00
   -8    0    6      0.13      0.00
   -7    0    6     -3.07      0.00
   -6    0    6     -6.47      0.00
   -5    0    6      2.41      0.00
   -4    0    6     -7.36      0.00
   -3    0    6     -9.19      0.00
   -2    0    6      6.51      0.00
   -1    0    6     18.69      0.00
    0    0    6      1.29      0.00
    1    0    6     -6.70      0.00
    2    0    6    -52.52      0.00
    3    0    6      3.79      0.00
    4    0    6    -10.24      0.00
    5    0    6     54.37      0.00
    6    0    6      0.68      0.00
    7    0    6     12.45      0.00
    8    0    6    -25.06      0.00
    9    0    6     17.83      0.00
   10    0    6    -11.82      0.00
   11    0    6      5.19      0.00
   12    0    6      2.64      0.00
   13    0    6      1.94      0.00
   14    0    6      9.66      0.00
   15    0    6      1.73      0.00
   16    0    6     -0.04      0.00
   17    0    6      2.15      0.00
   18    0    6     -0.39      0.00
   19    0    6     -0.06      0.00
  -15    1    6      7.12      0.00
  -14    1    6     -4.02      0.00
  -13    1    6      2.13      0.00
  -12    1    6      0.13      0.00
  -11    1    6     -0.57      0.00
  -10    1    6     -2.45      0.00
   -9    1    6     -5.18      0.00
   -8    1    6     -5.59      0.00
   -7    1    6    -10.26      0.00
   -6    1    6     -7.50      0.00
   -5    1    6     -7.55      0.00
   -4    1    6     23.82      0.00
   -3    1    6      3.51      0.00
   -2    1    6     -7.36      0.00
   -1    1    6     27.22      0.00
    0    1    6    -38.75      0.00
    1    1    6    -11.63      0.00
    2    1    6     -3.23      0.00
    3    1    6     43.94      0.00
    4    1    6    -36.13      0.00
    5    1    6     31.26      0.00
    6    1    6    -28.96      0.00
    7    1    6     11.10      0.00
    8    1    6     18.03      0.00
    9    1    6     -6.43      0.00
   10    1    6     -0.61      0.00
   11    1    6      9.72      0.00
   12    1    6     -5.35      0.00
   13    1    6      7.09      0.00
   14    1    6     -1.88      0.00
   15    1    6     -1.87      0.00
   16    1    6     -0.23      0.00
   17    1    6      2.82      0.00
   18    1    6      4.89      0.00
   19    1    6     -1.22      0.00
  -14    2    6      4.64      0.00
  -13    2    6      1.90      0.00
  -12    2    6      4.24      0.00
  -11    2    6      3.69      0.00
  -10    2    6     -1.32      0.00
   -9    2    6    -10.12      0.00
   -8    2    6      4.66      0.00
   -7    2    6     -2.51      0.00
   -6    2    6    -17.49      0.00
   -5    2    6      4.47      0.00
   -4    2    6     -9.60      0.00
   -3    2    6    -11.75      0.00
   -2    2    6     14.03      0.00
   -1    2    6     17.83      0.00
    0    2    6    -14.66      0.00
    1    2    6      6.64      0.00
    2    2    6    -35.95      0.00
    3    2    6    -27.01      0.00
    4    2    6     -6.07      0.00
    5    2    6    -20.23      0.00
    6    2    6    -15.09      0.00
    7    2    6     16.12      0.00
    8    2    6    -26.05      0.00
    9    2    6     13.18      0.00
   10    2    6     -1.49      0.00
   11    2    6      2.68      0.00
   12    2    6     -8.62      0.00
   13    2    6      4.21      0.00
   14    2    6      3.82      0.00
   15    2    6      5.14      0.00
   16    2    6      7.75      0.00
   17    2    6     -1.71      0.00
   18    2    6      4.61      0.00
   19    2    6     -4.64      0.00
  -14    3    6      3.77      0.00
  -13    3    6     12.70      0.00
  -12    3    6     -0.63      0.00
  -11    3    6     -1.84      0.00
  -10    3    6     -6.96      0.00
   -9    3    6     -0.87      0.00
   -8    3    6     -5.77      0.00
   -7    3    6     -1.88      0.00
   -6    3    6     -0.60      0.00
   -5    3    6      8.17      0.00
   -4    3    6    -11.34      0.00
   -3    3    6    -14.26      0.00
   -2    3    6    -18.94      0.00
   -1    3    6     -5.20      0.00
    0    3    6     12.52      0.00
    1    3    6    -22.72      0.00
    2    3    6    -10.38      0.00
    3    3    6      7.63      0.00
    4    3    6    -31.80      0.00
    5    3    6    -27.31      0.00
    6    3    6    -34.11      0.00
    7    3    6     -4.98      0.00
    8    3    6     -9.89      0.00
    9    3    6     -7.61      0.00
   10    3    6     -7.27      0.00
   11    3    6     10.38      0.00
   12    3    6      5.67      0.00
   13    3    6     -4.37      0.00
   14    3    6     -1.53      0.00
   15    3    6      0.22      0.00
   16    3    6      0.48      0.00
   17    3    6     -5.25      0.00
   18    3    6      4.98      0.00
   19    3    6      0.81      0.00
   20    3    6      4.05      0.00
  -13    4    6      7.98      0.00
  -12    4    6     14.79      0.00
  -11    4    6     -0.01      0.00
  -10    4    6      4.99      0.00
   -9    4    6     -2.72      0.00
   -8    4    6      1.60      0.00
   -7    4    6      2.37      0.00
   -6    4    6    -12.83      0.00
   -5    4    6     -0.70      0.00
   -4    4    6     -3.40      0.00
   -3    4    6     -8.89      0.00
   -2    4    6     -3.61      0.00
   -1    4    6    -12.31      0.00
    0    4    6    -39.76      0.00
    1    4    6      9.49      0.00
    2    4    6     24.37      0.00
    3    4    6      0.80      0.00
    4    4    6     31.50      0.00
    5    4    6    -38.93      0.00
    6    4    6    -54.17      0.00
    7    4    6     -5.34      0.00
    8    4    6    -19.56      0.00
    9    4    6     -1.85      0.00
   10    4    6      6.31      0.00
   11    4    6      1.31      0.00
   12    4    6     -8.25      0.00
   13    4    6      6.71      0.00
   14    4    6      1.38      0.00
   15    4    6      6.24      0.00
   16    4    6     -0.36      0.00
   17    4    6     -3.47      0.00
   18    4    6      4.53      0.00
   19    4    6     -1.76      0.00
   20    4    6     -1.73      0.00
  -13    5    6     -1.41      0.00
  -12    5    6     -3.63      0.00
  -11    5    6     -1.79      0.00
  -10    5    6      0.35      0.00
   -9    5    6     -1.73      0.00
   -8    5    6      0.81      0.00
   -7    5    6     -3.84      0.00
   -6    5    6      2.39      0.00
   -5    5    6     17.47      0.00
   -4    5    6    -14.90      0.00
   -3    5    6    -15.29      0.00
   -2    5    6     -6.05      0.00
   -1    5    6    -19.46      0.00
    0    5    6     23.67      0.00
    1    5    6     -6.05      0.00
    2    5    6    -17.43      0.00
    3    5    6     -9.39      0.00
    4    5    6     34.03      0.00
    5    5    6     16.88      0.00
    6    5    6     -3.35      0.00
    7    5    6     18.82      0.00
    8    5    6    -36.27      0.00
    9    5    6    -15.92      0.00
   10    5    6    -14.95      0.00
   11    5    6      3.69      0.00
   12    5    6      5.28      0.00
   13    5    6     -2.91      0.00
   14    5    6      0.18      0.00
   15    5    6      1.15      0.00
   16    5    6     -2.99      0.00
   17    5    6     -0.69      0.00
   18    5    6      1.71      0.00
   19    5    6      4.13      0.00
   20    5    6      0.22      0.00
  -12    6    6     -0.50      0.00
  -11    6    6     -6.18      0.00
  -10    6    6      7.37      0.00
   -9    6    6      0.80      0.00
   -8    6    6      2.10      0.00
   -7    6    6     -0.62      0.00
   -6    6    6     -3.03      0.00
   -5    6    6     -5.11      0.00
   -4    6    6     11.02      0.00
   -3    6    6      5.50      0.00
   -2    6    6     -3.29      0.00
   -1    6    6    -10.78      0.00
    0    6    6    -25.12      0.00
    1    6    6      1.13      0.00
    2    6    6     13.70      0.00
    3    6    6     12.64      0.00
    4    6    6      4.59      0.00
    5    6    6      6.31      0.00
    6    6    6    -22.64      0.00
    7    6    6     16.37      0.00
    8    6    6     14.72      0.00
    9    6    6    -11.27      0.00
   10    6    6     -4.60      0.00
   11    6    6    -11.39      0.00
   12    6    6     -9.62      0.00
   13    6    6     -0.48      0.00
   14    6    6      1.32      0.00
   15    6    6     -0.94      0.00
   16    6    6     -4.36      0.00
   17    6    6     -4.01      0.00
   18    6    6     -0.62      0.00
   19    6    6      0.00      0.00
   20    6    6     -0.58      0.00
   21    6    6      6.09      0.00
  -11    7    6     -5.15      0.00
  -10    7    6     -1.68      0.00
   -9    7    6     -7.19      0.00
   -8    7    6      4.79      0.00
   -7    7    6      3.17      0.00
   -6    7    6      2.58      0.00
   -5    7    6      5.50      0.00
   -4    7    6     -8.96      0.00
   -3    7    6     -9.36      0.00
   -2    7    6      3.25      0.00
   -1    7    6     -0.03      0.00
    0    7    6      2.14      0.00
    1    7    6     11.44      0.00
    2    7    6    -28.66      0.00
    3    7    6    -17.72      0.00
    4    7    6     11.37      0.00
    5    7    6      6.43      0.00
    6    7    6      1.50      0.00
    7    7    6     22.38      0.00
    8    7    6    -13.87      0.00
    9    7    6      1.87      0.00
   10    7    6     -4.79      0.00
   11    7    6    -11.89      0.00
   12    7    6     -2.32      0.00
   13    7    6     -8.49      0.00
   14    7    6     -4.48      0.00
   15    7    6      0.97      0.00
   16    7    6     -1.01      0.00
   17    7    6     -2.19      0.00
   18    7    6     -2.33      0.00
   19    7    6      1.80      0.00
   20    7    6     -5.48      0.00
   21    7    6      0.35      0.00
  -11    8    6     -2.20      0.00
  -10    8    6      0.02      0.00
   -9    8    6     -0.04      0.00
   -8    8    6     -0.98      0.00
   -7    8    6     -2.04      0.00
   -6    8    6      2.62      0.00
   -5    8    6      1.47      0.00
   -4    8    6      0.36      0.00
   -3    8    6     13.94      0.00
   -2    8    6    -15.45      0.00
   -1    8    6     -7.30      0.00
    0    8    6     -6.76      0.00
    1    8    6     11.81      0.00
    2    8    6    -10.71      0.00
    3    8    6     20.37      0.00
    4    8    6    -32.53      0.00
    5    8    6     -2.15      0.00
    6    8    6    -13.54      0.00
    7    8    6      6.01      0.00
    8    8    6     -6.86      0.00
    9    8    6      2.91      0.00
   10    8    6     11.93      0.00
   11    8    6     -5.22      0.00
   12    8    6      1.81      0.00
   13    8    6     -6.17      0.00
   14    8    6     -2.26      0.00
   15    8    6     -6.87      0.00
   16    8    6     -2.81      0.00
   17    8    6     -7.24      0.00
   18    8    6      2.63      0.00
   19    8    6      2.45      0.00
   20    8    6     -4.10      0.00
   21    8    6      0.25      0.00
  -10    9    6      1.12      0.00
   -9    9    6     -1.54      0.00
   -8    9    6      2.01      0.00
   -7    9    6      5.68      0.00
   -6    9    6     -2.31      0.00
   -5    9    6     -0.51      0.00
   -4    9    6      3.88      0.00
   -3    9    6     -0.41      0.00
   -2    9    6     -2.33      0.00
   -1    9    6     13.59      0.00
    0    9    6    -15.49      0.00
    1    9    6      8.34      0.00
    2    9    6    -14.83      0.00
    3    9    6     11.75      0.00
    4    9    6     -3.38      0.00
    5    9    6     -7.28      0.00
    6    9    6     -7.01      0.00
    7    9    6     12.75      0.00
    8    9    6     -9.30      0.00
    9    9    6      1.31      0.00
   10    9    6     14.85      0.00
   11    9    6     -8.62      0.00
   12    9    6      1.46      0.00
   13    9    6      3.95      0.00
   14    9    6     -2.64      0.00
   15    9    6     -1.65      0.00
   16    9    6     -3.18      0.00
   17    9    6      0.68      0.00
   18    9    6     -6.49      0.00
   19    9    6      6.72      0.00
   20    9    6      1.18      0.00
   21    9    6     -3.38      0.00
   -9   10    6      0.81      0.00
   -8   10    6     -2.20      0.00
   -7   10    6     -2.21      0.00
   -6   10    6     -5.58      0.00
   -5   10    6      5.44      0.00
   -4   10    6     -8.63      0.00
   -3   10    6      7.30      0.00
   -2   10    6     -3.44      0.00
   -1   10    6      2.33      0.00
    0   10    6     -0.66      0.00
    1   10    6     12.34      0.00
    2   10    6    -19.00      0.00
    3   10    6      4.23      0.00
    4   10    6    -21.83      0.00
    5   10    6      0.74      0.00
    6   10    6      9.05      0.00
    7   10    6     12.38      0.00
    8   10    6    -11.07      0.00
    9   10    6     -2.67      0.00
   10   10    6      5.64      0.00
   11   10    6     -3.64      0.00
   12   10    6      4.32      0.00
   13   10    6      0.43      0.00
   14   10    6      2.09      0.00
   15   10    6     -2.99      0.00
   16   10    6     -1.31      0.00
   17   10    6     -4.24      0.00
   18   10    6     -4.21      0.00
   19   10    6     -0.65      0.00
   20   10    6      3.90      0.00
   21   10    6      0.29      0.00
   -8   11    6     -6.04      0.00
   -7   11    6      5.00      0.00
   -6   11    6     -8.79      0.00
   -5   11    6     -7.02      0.00
   -4   11    6     -2.52      0.00
   -3   11    6      2.20      0.00
   -2   11    6     -3.13      0.00
   -1   11    6      4.95      0.00
    0   11    6     -1.73      0.00
    1   11    6      4.05      0.00
    2   11    6     -6.04      0.00
    3   11    6      4.55      0.00
    4   11    6    -12.14      0.00
    5   11    6     -7.06      0.00
    6   11    6    -13.05      0.00
    7   11    6      2.59      0.00
    8   11    6      2.94      0.00
    9   11    6     -3.88      0.00
   10   11    6      5.49      0.00
   11   11    6     -9.99      0.00
   12   11    6     -5.54      0.00
   13   11    6      0.91      0.00
   14   11    6      0.16      0.00
   15   11    6      1.78      0.00
   16   11    6      2.58      0.00
   17   11    6      3.53      0.00
   18   11    6     -8.14      0.00
   19   11    6     -2.56      0.00
   20   11    6     -4.68      0.00
   21   11    6     -1.65      0.00
   -7   12    6     -0.99      0.00
   -6   12    6    -13.24      0.00
   -5   12    6      1.96      0.00
   -4   12    6     -5.70      0.00
   -3   12    6     -1.28      0.00
   -2   12    6      4.24      0.00
   -1   12    6      7.05      0.00
    0   12    6      1.30      0.00
    1   12    6      5.44      0.00
    2   12    6     -9.82      0.00
    3   12    6     -0.58      0.00
    4   12    6    -12.38      0.00
    5   12    6     -7.74      0.00
    6   12    6     -9.42      0.00
    7   12    6      2.33      0.00
    8   12    6    -14.62      0.00
    9   12    6     -0.80      0.00
   10   12    6      0.16      0.00
   11   12    6      5.58      0.00
   12   12    6     -2.70      0.00
   13   12    6     -3.72      0.00
   14   12    6     -2.82      0.00
   15   12    6     -2.48      0.00
   16   12    6     -2.47      0.00
   17   12    6     -5.93      0.00
   18   12    6      6.60      0.00
   19   12    6     -3.01      0.00
   20   12    6     -2.14      0.00
   21   12    6     -5.65      0.00
   -6   13    6     -5.19      0.00
   -5   13    6     -0.16      0.00
   -4   13    6      4.18      0.00
   -3   13    6      4.06      0.00
   -2   13    6      4.03      0.00
   -1   13    6     -0.50      0.00
    0   13    6      3.03      0.00
    1   13    6      2.08      0.00
    2   13    6      1.44      0.00
    3   13    6      8.11      0.00
    4   13    6     -3.74      0.00
    5   13    6      0.96      0.00
    6   13    6    -11.99      0.00
    7   13    6     -5.78      0.00
    8   13    6     -2.23      0.00
    9   13    6     -0.67      0.00
   10   13    6    -11.00      0.00
   11   13    6     -4.55      0.00
   12   13    6     -0.98      0.00
   13   13    6     -1.94      0.00
   14   13    6     -6.00      0.00
   15   13    6     -6.46      0.00
   16   13    6     -3.47      0.00
   17   13    6     -3.45      0.00
   18   13    6     -8.36      0.00
   19   13    6    -12.10      0.00
   20   13    6      1.36      0.00
   21   13    6      0.10      0.00
   -5   14    6      7.76      0.00
   -4   14    6     -5.66      0.00
   -3   14    6     -2.45      0.00
   -2   14    6      4.78      0.00
   -1   14    6      9.04      0.00
    0   14    6     -1.77      0.00
    1   14    6      1.77      0.00
    2   14    6     -6.33      0.00
    3   14    6     -1.80      0.00
    4   14    6      0.56      0.00
    5   14    6      4.58      0.00
    6   14    6      4.68      0.00
    7   14    6     -2.32      0.00
    8   14    6     -9.09      0.00
    9   14    6      4.07      0.00
   10   14    6     -1.46      0.00
   11   14    6     -1.99      0.00
   12   14    6     -0.73      0.00
   13   14    6     -0.84      0.00
   14   14    6     -2.29      0.00
   15   14    6     -6.66      0.00
   16   14    6     -1.09      0.00
   17   14    6     -1.87      0.00
   18   14    6     12.23      0.00
   19   14    6     -4.83      0.00
   20   14    6      6.01      0.00
   21   14    6      0.50      0.00
   -4   15    6      5.02      0.00
   -3   15    6      4.95      0.00
   -2   15    6      4.48      0.00
   -1   15    6      1.90      0.00
    0   15    6      3.62      0.00
    1   15    6      4.02      0.00
    2   15    6     -3.85      0.00
    3   15    6      1.68      0.00
    4   15    6     -0.58      0.00
    5   15    6      2.57      0.00
    6   15    6      5.31      0.00
    7   15    6      0.68      0.00
    8   15    6     -1.17      0.00
    9   15    6     -1.73      0.00
   10   15    6     -4.80      0.00
   11   15    6     -3.87      0.00
   12   15    6     -0.78      0.00
   13   15    6     -2.71      0.00
   14   15    6     -1.31      0.00
   15   15    6     -3.68      0.00
   16   15    6     -8.71      0.00
   17   15    6      3.65      0.00
   18   15    6      4.17      0.00
   19   15    6     -2.04      0.00
   20   15    6      0.54      0.00
   21   15    6     -1.72      0.00
   -3   16    6      1.26      0.00
   -2   16    6      5.45      0.00
   -1   16    6     10.04      0.00
    0   16    6     -1.34      0.00
    1   16    6      4.40      0.00
    2   16    6     -3.62      0.00
    3   16    6      2.77      0.00
    4   16    6     -1.88      0.00
    5   16    6      0.82      0.00
    6   16    6      0.67      0.00
    7   16    6      2.39      0.00
    8   16    6      4.72      0.00
    9   16    6      5.77      0.00
   10   16    6      0.51      0.00
   11   16    6     -1.91      0.00
   12   16    6      3.94      0.00
   13   16    6      2.58      0.00
   14   16    6      4.06      0.00
   15   16    6      0.08      0.00
   16   16    6      3.37      0.00
   17   16    6      2.73      0.00
   18   16    6      3.19      0.00
   19   16    6      3.57      0.00
   20   16    6     10.94      0.00
   -2   17    6      4.32      0.00
   -1   17    6     -4.30      0.00
    0   17    6      5.42      0.00
    1   17    6      2.59      0.00
    2   17    6     -3.61      0.00
    3   17    6      3.34      0.00
    4   17    6      3.78      0.00
    5   17    6     -0.47      0.00
    6   17    6      8.19      0.00
    7   17    6     -3.38      0.00
    8   17    6      1.77      0.00
    9   17    6      3.32      0.00
   10   17    6      4.32      0.00
   11   17    6      3.51      0.00
   12   17    6      3.23      0.00
   13   17    6      4.68      0.00
   14   17    6     -3.44      0.00
   15   17    6     -0.67      0.00
   16   17    6     -2.53      0.00
   17   17    6      6.67      0.00
   18   17    6     -2.01      0.00
   19   17    6     -6.74      0.00
   20   17    6     -6.39      0.00
    0   18    6      6.21      0.00
    1   18    6      2.31      0.00
    2   18    6      0.22      0.00
    3   18    6      1.08      0.00
    4   18    6      2.64      0.00
    5   18    6      1.38      0.00
    6   18    6      5.59      0.00
    7   18    6      0.25      0.00
    8   18    6      3.86      0.00
    9   18    6      5.10      0.00
   10   18    6     -0.81      0.00
   11   18    6     -2.67      0.00
   12   18    6      0.87      0.00
   13   18    6      6.98      0.00
   14   18    6      4.68      0.00
   15   18    6      1.75      0.00
   16   18    6      0.72      0.00
   17   18    6      1.05      0.00
   18   18    6      1.18      0.00
   19   18    6      3.65      0.00
    1   19    6      0.59      0.00
    2   19    6     -1.06      0.00
    3   19    6      2.47      0.00
    4   19    6      2.08      0.00
    5   19    6     -1.08      0.00
    6   19    6      4.89      0.00
    7   19    6     -1.53      0.00
    8   19    6      3.81      0.00
    9   19    6      1.65      0.00
   10   19    6     -1.17      0.00
   11   19    6     -3.17      0.00
   12   19    6      1.10      0.00
   13   19    6     -1.73      0.00
   14   19    6     -1.33      0.00
   15   19    6      7.01      0.00
   16   19    6      4.77      0.00
   17   19    6      7.62      0.00
   18   19    6     -4.58      0.00
    3   20    6      1.38      0.00
    4   20    6     -2.48      0.00
    5   20    6     -0.32      0.00
    6   20    6      2.39      0.00
    7   20    6      1.45      0.00
    8   20    6     -5.06      0.00
    9   20    6     -1.48      0.00
   10   20    6     -1.59      0.00
   11   20    6     -0.50      0.00
   12   20    6     -6.58      0.00
   13   20    6      6.83      0.00
   14   20    6     -6.22      0.00
   15   20    6      9.37      0.00
   16   20    6      2.67      0.00
   17   20    6      2.73      0.00
    6   21    6     -1.00      0.00
    7   21    6      0.99      0.00
    8   21    6      0.83      0.00
    9   21    6     -0.12      0.00
   10   21    6      0.24      0.00
   11   21    6     -0.37      0.00
   12   21    6     -2.75      0.00
   13   21    6     -0.06      0.00
   14   21    6     -6.34      0.00
   15   21    6      2.29      0.00
   16   21    6      3.13      0.00
   10   22    6      0.56      0.00
   11   22    6      2.41      0.00
   12   22    6      3.54      0.00
  -11  -21    7      0.06      0.00
  -10  -21    7      0.96      0.00
   -9  -21    7     -1.30      0.00
   -8  -21    7     -0.66      0.00
   -7  -21    7     -3.43      0.00
   -6  -21    7      6.25      0.00
   -5  -21    7     -2.22      0.00
   -4  -21    7      0.94      0.00
  -13  -20    7     -2.82      0.00
  -12  -20    7      1.28      0.00
  -11  -20    7      3.20      0.00
  -10  -20    7     -1.06      0.00
   -9  -20    7      1.04      0.00
   -8  -20    7      7.20      0.00
   -7  -20    7      0.84      0.00
   -6  -20    7      4.38      0.00
   -5  -20    7     -2.74      0.00
   -4  -20    7     -5.88      0.00
   -3  -20    7      3.27      0.00
   -2  -20    7     -3.31      0.00
   -1  -20    7      7.19      0.00
  -14  -19    7      0.26      0.00
  -13  -19    7     -6.33      0.00
  -12  -19    7     -1.02      0.00
  -11  -19    7      1.03      0.00
  -10  -19    7      2.46      0.00
   -9  -19    7     -0.83      0.00
   -8  -19    7     -0.25      0.00
   -7  -19    7     -5.09      0.00
   -6  -19    7      2.37      0.00
   -5  -19    7      4.96      0.00
   -4  -19    7      0.30      0.00
   -3  -19    7      3.46      0.00
   -2  -19    7     -2.95      0.00
   -1  -19    7      1.57      0.00
    0  -19    7     -3.62      0.00
    1  -19    7     -0.34      0.00
  -15  -18    7     -5.09      0.00
  -14  -18    7      2.87      0.00
  -13  -18    7      3.42      0.00
  -12  -18    7      3.41      0.00
  -11  -18    7      0.01      0.00
  -10  -18    7      2.12      0.00
   -9  -18    7      0.30      0.00
   -8  -18    7      0.73      0.00
   -7  -18    7      3.01      0.00
   -6  -18    7      1.06      0.00
   -5  -18    7      2.55      0.00
   -4  -18    7     -0.33      0.00
   -3  -18    7      1.09      0.00
   -2  -18    7     -0.47      0.00
   -1  -18    7      8.49      0.00
    0  -18    7     -2.13      0.00
    1  -18    7     -1.75      0.00
    2  -18    7      2.71      0.00
    3  -18    7      2.93      0.00
  -16  -17    7      2.33      0.00
  -15  -17    7      2.18      0.00
  -14  -17    7      0.08      0.00
  -13  -17    7     -3.55      0.00
  -12  -17    7     -1.23      0.00
  -11  -17    7      1.58      0.00
  -10  -17    7     -0.82      0.00
   -9  -17    7      0.26      0.00
   -8  -17    7     -1.00      0.00
   -7  -17    7     -1.33      0.00
   -6  -17    7     -4.09      0.00
   -5  -17    7     -0.11      0.00
   -4  -17    7     -1.27      0.00
   -3  -17    7      4.00      0.00
   -2  -17    7      0.50      0.00
   -1  -17    7      0.83      0.00
    0  -17    7      5.68      0.00
    1  -17    7     -2.00      0.00
    2  -17    7      4.79      0.00
    3  -17    7     -3.60      0.00
    4  -17    7     -2.22      0.00
    5  -17    7     -2.78      0.00
  -16  -16    7      5.68      0.00
  -15  -16    7     -1.87      0.00
  -14  -16    7      2.75      0.00
  -13  -16    7      3.31      0.00
  -12  -16    7     -2.18      0.00
  -11  -16    7     -0.02      0.00
  -10  -16    7      0.25      0.00
   -9  -16    7      1.46      0.00
   -8  -16    7      0.16      0.00
   -7  -16    7      8.48      0.00
   -6  -16    7      1.31      0.00
   -5  -16    7      0.61      0.00
   -4  -16    7     -0.18      0.00
   -3  -16    7     -3.80      0.00
   -2  -16    7      1.40      0.00
   -1  -16    7     -4.40      0.00
    0  -16    7     -0.28      0.00
    1  -16    7     -1.76      0.00
    2  -16    7      2.21      0.00
    3  -16    7     -3.91      0.00
    4  -16    7      2.30      0.00
    5  -16    7     -4.17      0.00
    6  -16    7     -2.33      0.00
  -16  -15    7      3.78      0.00
  -15  -15    7     -2.21      0.00
  -14  -15    7     -0.47      0.00
  -13  -15    7     -0.28      0.00
  -12  -15    7     -0.81      0.00
  -11  -15    7     -3.11      0.00
  -10  -15    7     -0.42      0.00
   -9  -15    7      1.65      0.00
   -8  -15    7      0.72      0.00
   -7  -15    7     -6.95      0.00
   -6  -15    7      1.60      0.00
   -5  -15    7      0.77      0.00
   -4  -15    7     -3.58      0.00
   -3  -15    7     -1.44      0.00
   -2  -15    7     -0.64      0.00
   -1  -15    7     -0.72      0.00
    0  -15    7      0.14      0.00
    1  -15    7     -3.87      0.00
    2  -15    7     -2.15      0.00
    3  -15    7     -4.84      0.00
    4  -15    7     -3.07      0.00
    5  -15    7     -2.93      0.00
    6  -15    7      2.12      0.00
    7  -15    7     -4.91      0.00
  -17  -14    7     -4.06      0.00
  -16  -14    7      0.90      0.00
  -15  -14    7      1.56      0.00
  -14  -14    7     -1.53      0.00
  -13  -14    7      0.55      0.00
  -12  -14    7     -1.46      0.00
  -11  -14    7      2.45      0.00
  -10  -14    7     -2.11      0.00
   -9  -14    7      2.61      0.00
   -8  -14    7     -2.85      0.00
   -7  -14    7     -5.96      0.00
   -6  -14    7      1.09      0.00
   -5  -14    7      2.09      0.00
   -4  -14    7     -0.79      0.00
   -3  -14    7     -3.87      0.00
   -2  -14    7     -4.95      0.00
   -1  -14    7     -6.48      0.00
    0  -14    7      2.75      0.00
    1  -14    7      2.48      0.00
    2  -14    7     -2.76      0.00
    3  -14    7     -0.72      0.00
    4  -14    7     -2.68      0.00
    5  -14    7     -5.24      0.00
    6  -14    7      0.56      0.00
    7  -14    7     -8.32      0.00
    8  -14    7     -6.21      0.00
    9  -14    7     -1.47      0.00
  -17  -13    7     -0.96      0.00
  -16  -13    7      1.21      0.00
  -15  -13    7     -2.45      0.00
  -14  -13    7      3.79      0.00
  -13  -13    7      0.75      0.00
  -12  -13    7      2.44      0.00
  -11  -13    7     -1.25      0.00
  -10  -13    7      2.03      0.00
   -9  -13    7     -1.75      0.00
   -8  -13    7      7.62      0.00
   -7  -13    7     -6.42      0.00
   -6  -13    7      1.01      0.00
   -5  -13    7     -6.09      0.00
   -4  -13    7     -2.46      0.00
   -3  -13    7     -3.51      0.00
   -2  -13    7      3.57      0.00
   -1  -13    7      7.58      0.00
    0  -13    7     -0.15      0.00
    1  -13    7      5.94      0.00
    2  -13    7     -5.13      0.00
    3  -13    7      8.29      0.00
    4  -13    7     -4.30      0.00
    5  -13    7      4.80      0.00
    6  -13    7     -0.60      0.00
    7  -13    7      1.30      0.00
    8  -13    7      1.01      0.00
    9  -13    7     -1.17      0.00
   10  -13    7     -4.00      0.00
  -17  -12    7     -1.26      0.00
  -16  -12    7      3.70      0.00
  -15  -12    7      0.85      0.00
  -14  -12    7     -4.43      0.00
  -13  -12    7      6.65      0.00
  -12  -12    7      2.44      0.00
  -11  -12    7      1.73      0.00
  -10  -12    7      6.35      0.00
   -9  -12    7      0.83      0.00
   -8  -12    7      0.33      0.00
   -7  -12    7     -4.91      0.00
   -6  -12    7     -1.78      0.00
   -5  -12    7     -2.74      0.00
   -4  -12    7      2.17      0.00
   -3  -12    7     -0.12      0.00
   -2  -12    7     -8.92      0.00
   -1  -12    7      6.54      0.00
    0  -12    7     -1.70      0.00
    1  -12    7     11.24      0.00
    2  -12    7     -3.75      0.00
    3  -12    7      3.22      0.00
    4  -12    7     -2.20      0.00
    5  -12    7     -0.13      0.00
    6  -12    7     -0.30      0.00
    7  -12    7      0.88      0.00
    8  -12    7     -3.33      0.00
    9  -12    7     -2.33      0.00
   10  -12    7     -3.67      0.00
   11  -12    7     -0.81      0.00
  -17  -11    7      0.43      0.00
  -16  -11    7      9.56      0.00
  -15  -11    7     -2.97      0.00
  -14  -11    7      2.78      0.00
  -13  -11    7     -3.67      0.00
  -12  -11    7      0.72      0.00
  -11  -11    7     -7.80      0.00
  -10  -11    7      4.18      0.00
   -9  -11    7     -5.91      0.00
   -8  -11    7      4.52      0.00
   -7  -11    7      4.09      0.00
   -6  -11    7      6.92      0.00
   -5  -11    7    -14.49      0.00
   -4  -11    7     -4.14      0.00
   -3  -11    7     -0.74      0.00
   -2  -11    7      3.88      0.00
   -1  -11    7      1.23      0.00
    0  -11    7     -1.50      0.00
    1  -11    7     -3.71      0.00
    2  -11    7     -6.76      0.00
    3  -11    7     12.98      0.00
    4  -11    7     -2.76      0.00
    5  -11    7      6.07      0.00
    6  -11    7     -5.51      0.00
    7  -11    7      4.66      0.00
    8  -11    7      3.39      0.00
    9  -11    7     -1.21      0.00
   10  -11    7      1.28      0.00
   11  -11    7     -1.67      0.00
   12  -11    7     -0.26      0.00
  -17  -10    7     -4.52      0.00
  -16  -10    7      5.58      0.00
  -15  -10    7     -3.37      0.00
  -14  -10    7     -4.64      0.00
  -13  -10    7     -0.12      0.00
  -12  -10    7     -0.54      0.00
  -11  -10    7     -7.01      0.00
  -10  -10    7      5.61      0.00
   -9  -10    7     -5.02      0.00
   -8  -10    7     -1.38      0.00
   -7  -10    7    -10.53      0.00
   -6  -10    7      1.71      0.00
   -5  -10    7    -17.48      0.00
   -4  -10    7      7.19      0.00
   -3  -10    7      2.04      0.00
   -2  -10    7     -3.37      0.00
   -1  -10    7     -0.11      0.00
    0  -10    7     -8.17      0.00
    1  -10    7      9.25      0.00
    2  -10    7    -13.51      0.00
    3  -10    7     -2.01      0.00
    4  -10    7     -6.75      0.00
    5  -10    7      8.98      0.00
    6  -10    7     -0.57      0.00
    7  -10    7     -4.61      0.00
    8  -10    7      1.98      0.00
    9  -10    7     -8.26      0.00
   10  -10    7      8.36      0.00
   11  -10    7      0.73      0.00
   12  -10    7      3.16      0.00
  -17   -9    7      2.73      0.00
  -16   -9    7      6.84      0.00
  -15   -9    7     -6.82      0.00
  -14   -9    7     -1.44      0.00
  -13   -9    7     -6.75      0.00
  -12   -9    7     -2.59      0.00
  -11   -9    7     -8.07      0.00
  -10   -9    7      8.82      0.00
   -9   -9    7     -5.62      0.00
   -8   -9    7     -0.82      0.00
   -7   -9    7    -10.40      0.00
   -6   -9    7      7.57      0.00
   -5   -9    7     -7.47      0.00
   -4   -9    7      1.40      0.00
   -3   -9    7     -1.80      0.00
   -2   -9    7      1.18      0.00
   -1   -9    7     -7.24      0.00
    0   -9    7      4.14      0.00
    1   -9    7      4.02      0.00
    2   -9    7     -0.89      0.00
    3   -9    7      2.94      0.00
    4   -9    7     -0.96      0.00
    5   -9    7     -7.24      0.00
    6   -9    7      0.45      0.00
    7   -9    7      5.94      0.00
    8   -9    7      1.98      0.00
    9   -9    7      3.13      0.00
   10   -9    7     -1.87      0.00
   11   -9    7     -3.81      0.00
   12   -9    7      0.38      0.00
   13   -9    7      3.43      0.00
  -17   -8    7     -3.24      0.00
  -16   -8    7      3.73      0.00
  -15   -8    7      1.76      0.00
  -14   -8    7     -3.35      0.00
  -13   -8    7      0.26      0.00
  -12   -8    7      1.46      0.00
  -11   -8    7      4.36      0.00
  -10   -8    7      1.34      0.00
   -9   -8    7     -5.06      0.00
   -8   -8    7      7.78      0.00
   -7   -8    7     -5.60      0.00
   -6   -8    7      3.85      0.00
   -5   -8    7    -20.74      0.00
   -4   -8    7      7.81      0.00
   -3   -8    7     -2.53      0.00
   -2   -8    7     26.16      0.00
   -1   -8    7     16.07      0.00
    0   -8    7      2.78      0.00
    1   -8    7     -9.03      0.00
    2   -8    7    -10.50      0.00
    3   -8    7     -0.88      0.00
    4   -8    7     -3.77      0.00
    5   -8    7     20.01      0.00
    6   -8    7     -7.73      0.00
    7   -8    7     -4.40      0.00
    8   -8    7      0.36      0.00
    9   -8    7     -2.65      0.00
   10   -8    7      4.53      0.00
   11   -8    7      4.26      0.00
   12   -8    7     -3.00      0.00
   13   -8    7     -1.42      0.00
   14   -8    7      4.95      0.00
  -17   -7    7      5.46      0.00
  -16   -7    7      7.15      0.00
  -15   -7    7     -5.72      0.00
  -14   -7    7     -1.15      0.00
  -13   -7    7     -4.10      0.00
  -12   -7    7     -3.76      0.00
  -11   -7    7      4.64      0.00
  -10   -7    7     12.55      0.00
   -9   -7    7     -5.86      0.00
   -8   -7    7      2.34      0.00
   -7   -7    7    -14.25      0.00
   -6   -7    7     -2.35      0.00
   -5   -7    7      6.76      0.00
   -4   -7    7     17.53      0.00
   -3   -7    7     -5.24      0.00
   -2   -7    7    -10.19      0.00
   -1   -7    7     -3.49      0.00
    0   -7    7     -4.89      0.00
    1   -7    7     15.16      0.00
    2   -7    7     11.74      0.00
    3   -7    7    -17.39      0.00
    4   -7    7      2.85      0.00
    5   -7    7    -19.96      0.00
    6   -7    7      0.10      0.00
    7   -7    7      2.98      0.00
    8   -7    7     -2.85      0.00
    9   -7    7      3.10      0.00
   10   -7    7    -10.38      0.00
   11   -7    7     -3.75      0.00
   12   -7    7     -0.47      0.00
   13   -7    7      3.39      0.00
   14   -7    7      4.04      0.00
   15   -7    7     -1.75      0.00
  -17   -6    7      4.69      0.00
  -16   -6    7      0.46      0.00
  -15   -6    7     -2.83      0.00
  -14   -6    7      2.54      0.00
  -13   -6    7      0.97      0.00
  -12   -6    7      1.00      0.00
  -11   -6    7      9.58      0.00
  -10   -6    7      2.59      0.00
   -9   -6    7    -11.26      0.00
   -8   -6    7      5.11      0.00
   -7   -6    7      2.43      0.00
   -6   -6    7     -5.34      0.00
   -5   -6    7    -16.72      0.00
   -4   -6    7      2.06      0.00
   -3   -6    7     -0.68      0.00
   -2   -6    7     10.88      0.00
   -1   -6    7     -1.10      0.00
    0   -6    7      6.73      0.00
    1   -6    7    -31.53      0.00
    2   -6    7      1.40      0.00
    3   -6    7     -7.67      0.00
    4   -6    7     -3.08      0.00
    5   -6    7      1.49      0.00
    6   -6    7     -7.93      0.00
    7   -6    7    -11.56      0.00
    8   -6    7     -4.46      0.00
    9   -6    7      8.49      0.00
   10   -6    7     -5.10      0.00
   11   -6    7      3.91      0.00
   12   -6    7     -0.92      0.00
   13   -6    7     -5.10      0.00
   14   -6    7      1.06      0.00
   15   -6    7     -3.84      0.00
  -17   -5    7      6.35      0.00
  -16   -5    7      1.88      0.00
  -15   -5    7     -9.04      0.00
  -14   -5    7      0.49      0.00
  -13   -5    7     -1.27      0.00
  -12   -5    7      1.07      0.00
  -11   -5    7      2.42      0.00
  -10   -5    7      8.19      0.00
   -9   -5    7     -8.08      0.00
   -8   -5    7     -1.84      0.00
   -7   -5    7     -7.33      0.00
   -6   -5    7    -12.45      0.00
   -5   -5    7     -1.29      0.00
   -4   -5    7     22.91      0.00
   -3   -5    7    -12.97      0.00
   -2   -5    7    -23.53      0.00
   -1   -5    7     -0.65      0.00
    0   -5    7    -23.95      0.00
    1   -5    7     16.16      0.00
    2   -5    7     16.60      0.00
    3   -5    7    -16.50      0.00
    4   -5    7      6.90      0.00
    5   -5    7     -2.52      0.00
    6   -5    7     -5.39      0.00
    7   -5    7     -5.82      0.00
    8   -5    7      0.29      0.00
    9   -5    7    -12.06      0.00
   10   -5    7     -0.11      0.00
   11   -5    7      1.16      0.00
   12   -5    7     -1.30      0.00
   13   -5    7      0.49      0.00
   14   -5    7      0.93      0.00
   15   -5    7      1.19      0.00
   16   -5    7      0.23      0.00
  -16   -4    7     -2.30      0.00
  -15   -4    7      0.09      0.00
  -14   -4    7      3.45      0.00
  -13   -4    7      1.00      0.00
  -12   -4    7     -2.22      0.00
  -11   -4    7      4.65      0.00
  -10   -4    7      1.02      0.00
   -9   -4    7     -9.86      0.00
   -8   -4    7      4.00      0.00
   -7   -4    7      4.77      0.00
   -6   -4    7     -5.21      0.00
   -5   -4    7      0.62      0.00
   -4   -4    7     -2.21      0.00
   -3   -4    7      0.45      0.00
   -2   -4    7      2.31      0.00
   -1   -4    7    -19.77      0.00
    0   -4    7     12.85      0.00
    1   -4    7    -10.51      0.00
    2   -4    7     20.01      0.00
    3   -4    7     -7.20      0.00
    4   -4    7     18.84      0.00
    5   -4    7    -16.03      0.00
    6   -4    7      2.87      0.00
    7   -4    7     -4.90      0.00
    8   -4    7     -6.82      0.00
    9   -4    7     14.79      0.00
   10   -4    7    -10.53      0.00
   11   -4    7      3.89      0.00
   12   -4    7      3.81      0.00
   13   -4    7      0.09      0.00
   14   -4    7      2.91      0.00
   15   -4    7      2.59      0.00
   16   -4    7     -6.11      0.00
   17   -4    7      2.96      0.00
  -16   -3    7      1.13      0.00
  -15   -3    7     -2.12      0.00
  -14   -3    7      1.46      0.00
  -13   -3    7     -5.35      0.00
  -12   -3    7      5.14      0.00
  -11   -3    7     -0.12      0.00
  -10   -3    7      2.45      0.00
   -9   -3    7     -3.41      0.00
   -8   -3    7     11.51      0.00
   -7   -3    7      1.41      0.00
   -6   -3    7      4.89      0.00
   -5   -3    7     -1.54      0.00
   -4   -3    7     11.96      0.00
   -3   -3    7     -6.92      0.00
   -2   -3    7     -0.50      0.00
   -1   -3    7      6.60      0.00
    0   -3    7     -5.83      0.00
    1   -3    7     -9.00      0.00
    2   -3    7     -1.60      0.00
    3   -3    7     -4.23      0.00
    4   -3    7      4.20      0.00
    5   -3    7     45.08      0.00
    6   -3    7    -16.17      0.00
    7   -3    7    -16.74      0.00
    8   -3    7     -2.42      0.00
    9   -3    7    -20.51      0.00
   10   -3    7     -1.69      0.00
   11   -3    7      1.46      0.00
   12   -3    7     -0.67      0.00
   13   -3    7      5.10      0.00
   14   -3    7      0.88      0.00
   15   -3    7     -2.84      0.00
   16   -3    7     -1.61      0.00
   17   -3    7      4.14      0.00
  -16   -2    7      1.74      0.00
  -15   -2    7     -0.48      0.00
  -14   -2    7      4.67      0.00
  -13   -2    7     -6.66      0.00
  -12   -2    7      1.84      0.00
  -11   -2    7      0.85      0.00
  -10   -2    7     -3.40      0.00
   -9   -2    7     -0.84      0.00
   -8   -2    7     15.18      0.00
   -7   -2    7     -2.82      0.00
   -6   -2    7     11.00      0.00
   -5   -2    7     23.37      0.00
   -4   -2    7      2.00      0.00
   -3   -2    7     -2.24      0.00
   -2   -2    7      5.54      0.00
   -1   -2    7    -25.92      0.00
    0   -2    7    -27.68      0.00
    1   -2    7     41.90      0.00
    2   -2    7     22.89      0.00
    3   -2    7    -19.26      0.00
    4   -2    7      0.39      0.00
    5   -2    7    -43.42      0.00
    6   -2    7     -1.91      0.00
    7   -2    7     23.29      0.00
    8   -2    7      3.30      0.00
    9   -2    7     -2.51      0.00
   10   -2    7     -8.98      0.00
   11   -2    7     -8.55      0.00
   12   -2    7     -0.68      0.00
   13   -2    7      0.09      0.00
   14   -2    7     -6.25      0.00
   15   -2    7      2.58      0.00
   16   -2    7     -5.34      0.00
   17   -2    7      5.07      0.00
   18   -2    7     -1.86      0.00
  -15   -1    7     -1.04      0.00
  -14   -1    7     -0.55      0.00
  -13   -1    7     -5.76      0.00
  -12   -1    7      6.09      0.00
  -11   -1    7     -1.09      0.00
  -10   -1    7      2.68      0.00
   -9   -1    7     -4.52      0.00
   -8   -1    7     14.96      0.00
   -7   -1    7     -3.57      0.00
   -6   -1    7     13.15      0.00
   -5   -1    7     11.77      0.00
   -4   -1    7     -7.68      0.00
   -3   -1    7     -2.88      0.00
   -2   -1    7      9.48      0.00
   -1   -1    7      6.74      0.00
    0   -1    7    -12.22      0.00
    1   -1    7    -11.61      0.00
    2   -1    7    -37.02      0.00
    3   -1    7      6.85      0.00
    4   -1    7     -5.18      0.00
    5   -1    7     46.41      0.00
    6   -1    7    -29.68      0.00
    7   -1    7    -14.93      0.00
    8   -1    7     -1.40      0.00
    9   -1    7      6.49      0.00
   10   -1    7     -0.25      0.00
   11   -1    7      4.99      0.00
   12   -1    7      2.99      0.00
   13   -1    7     -5.56      0.00
   14   -1    7      0.94      0.00
   15   -1    7     -3.22      0.00
   16   -1    7     -4.14      0.00
   17   -1    7      8.12      0.00
   18   -1    7      2.11      0.00
  -15    0    7      0.63      0.00
  -14    0    7      3.30      0.00
  -13    0    7     -0.72      0.00
  -12    0    7     -2.73      0.00
  -11    0    7      0.60      0.00
  -10    0    7     -2.47      0.00
   -9    0    7     -2.82      0.00
   -8    0    7      4.29      0.00
   -7    0    7     -5.41      0.00
   -6    0    7     11.23      0.00
   -5    0    7     19.60      0.00
   -4    0    7     13.53      0.00
   -3    0    7     -2.91      0.00
   -2    0    7      0.14      0.00
   -1    0    7      8.44      0.00
    0    0    7    -42.91      0.00
    1    0    7     66.25      0.00
    2    0    7     -1.00      0.00
    3    0    7     -0.35      0.00
    4    0    7    -12.59      0.00
    5    0    7     -2.25      0.00
    6    0    7     -8.20      0.00
    7    0    7     31.36      0.00
    8    0    7     18.23      0.00
    9    0    7     -7.38      0.00
   10    0    7      8.32      0.00
   11    0    7     -3.71      0.00
   12    0    7     -2.95      0.00
   13    0    7      1.78      0.00
   14    0    7     -4.62      0.00
   15    0    7      1.64      0.00
   16    0    7     -0.57      0.00
   17    0    7      3.21      0.00
   18    0    7      0.57      0.00
   19    0    7     -2.06      0.00
  -14    1    7      1.15      0.00
  -13    1    7      2.71      0.00
  -12    1    7      2.87      0.00
  -11    1    7      0.14      0.00
  -10    1    7     -3.17      0.00
   -9    1    7     -2.71      0.00
   -8    1    7     13.15      0.00
   -7    1    7     -2.45      0.00
   -6    1    7      4.88      0.00
   -5    1    7      8.16      0.00
   -4    1    7    -15.05      0.00
   -3    1    7     28.45      0.00
   -2    1    7     21.31      0.00
   -1    1    7     14.72      0.00
    0    1    7     13.58      0.00
    1    1    7     17.10      0.00
    2    1    7    -41.59      0.00
    3    1    7     25.76      0.00
    4    1    7     22.02      0.00
    5    1    7     14.32      0.00
    6    1    7      3.58      0.00
    7    1    7      7.98      0.00
    8    1    7     -7.32      0.00
    9    1    7     24.92      0.00
   10    1    7     -7.20      0.00
   11    1    7      1.39      0.00
   12    1    7      2.50      0.00
   13    1    7     -4.51      0.00
   14    1    7      8.49      0.00
   15    1    7     -0.88      0.00
   16    1    7     -8.08      0.00
   17    1    7     -7.00      0.00
   18    1    7      0.44      0.00
   19    1    7     -4.71      0.00
  -14    2    7      3.64      0.00
  -13    2    7      1.97      0.00
  -12    2    7    -10.74      0.00
  -11    2    7     -4.48      0.00
  -10    2    7      0.03      0.00
   -9    2    7      6.24      0.00
   -8    2    7      0.42      0.00
   -7    2    7      4.71      0.00
   -6    2    7      7.66      0.00
   -5    2    7      3.58      0.00
   -4    2    7      0.81      0.00
   -3    2    7      1.78      0.00
   -2    2    7      1.24      0.00
   -1    2    7     23.72      0.00
    0    2    7     17.00      0.00
    1    2    7     35.05      0.00
    2    2    7     -4.79      0.00
    3    2    7     11.35      0.00
    4    2    7    -17.97      0.00
    5    2    7     -4.47      0.00
    6    2    7    -24.73      0.00
    7    2    7     27.27      0.00
    8    2    7     10.85      0.00
    9    2    7     -7.97      0.00
   10    2    7     12.80      0.00
   11    2    7      8.19      0.00
   12    2    7      0.57      0.00
   13    2    7     -4.77      0.00
   14    2    7     -4.36      0.00
   15    2    7     -3.23      0.00
   16    2    7     -1.86      0.00
   17    2    7     -3.02      0.00
   18    2    7      4.71      0.00
   19    2    7      1.08      0.00
   20    2    7      2.18      0.00
  -13    3    7      4.84      0.00
  -12    3    7     -1.45      0.00
  -11    3    7     -4.31      0.00
  -10    3    7     -3.69      0.00
   -9    3    7     -1.50      0.00
   -8    3    7      6.48      0.00
   -7    3    7     -6.96      0.00
   -6    3    7     -4.35      0.00
   -5    3    7      6.16      0.00
   -4    3    7     -4.47      0.00
   -3    3    7     11.04      0.00
   -2    3    7     10.59      0.00
   -1    3    7    -11.72      0.00
    0    3    7     19.77      0.00
    1    3    7     47.10      0.00
    2    3    7     -8.79      0.00
    3    3    7      8.59      0.00
    4    3    7     17.06      0.00
    5    3    7    -51.60      0.00
    6    3    7    -30.00      0.00
    7    3    7     22.34      0.00
    8    3    7    -18.70      0.00
    9    3    7     23.12      0.00
   10    3    7     -3.69      0.00
   11    3    7      0.03      0.00
   12    3    7     -2.59      0.00
   13    3    7      6.50      0.00
   14    3    7     -1.67      0.00
   15    3    7      0.89      0.00
   16    3    7     -6.53      0.00
   17    3    7     -5.79      0.00
   18    3    7     -1.99      0.00
   19    3    7     -0.73      0.00
   20    3    7     -1.73      0.00
  -13    4    7     -0.45      0.00
  -12    4    7     -0.51      0.00
  -11    4    7      8.35      0.00
  -10    4    7      1.41      0.00
   -9    4    7      7.88      0.00
   -8    4    7      1.42      0.00
   -7    4    7     -2.52      0.00
   -6    4    7     12.26      0.00
   -5    4    7     -5.33      0.00
   -4    4    7    -12.74      0.00
   -3    4    7     -3.74      0.00
   -2    4    7      8.58      0.00
   -1    4    7     -2.36      0.00
    0    4    7     39.11      0.00
    1    4    7    -11.91      0.00
    2    4    7     -9.40      0.00
    3    4    7     26.96      0.00
    4    4    7     11.16      0.00
    5    4    7     16.41      0.00
    6    4    7    -31.01      0.00
    7    4    7      7.06      0.00
    8    4    7    -29.63      0.00
    9    4    7      0.82      0.00
   10    4    7     -1.66      0.00
   11    4    7     17.89      0.00
   12    4    7     -0.32      0.00
   13    4    7     -0.07      0.00
   14    4    7     -0.44      0.00
   15    4    7      2.45      0.00
   16    4    7     -1.78      0.00
   17    4    7     -2.37      0.00
   18    4    7      2.12      0.00
   19    4    7      4.96      0.00
   20    4    7     -0.92      0.00
  -12    5    7     -0.96      0.00
  -11    5    7      1.15      0.00
  -10    5    7      2.48      0.00
   -9    5    7      2.08      0.00
   -8    5    7      3.43      0.00
   -7    5    7     -9.17      0.00
   -6    5    7     -0.80      0.00
   -5    5    7     -5.83      0.00
   -4    5    7     10.38      0.00
   -3    5    7     -4.77      0.00
   -2    5    7      1.63      0.00
   -1    5    7    -18.13      0.00
    0    5    7      3.81      0.00
    1    5    7     30.77      0.00
    2    5    7      6.27      0.00
    3    5    7      3.92      0.00
    4    5    7      7.92      0.00
    5    5    7     -1.63      0.00
    6    5    7     -5.84      0.00
    7    5    7     34.21      0.00
    8    5    7     -2.00      0.00
    9    5    7     -1.58      0.00
   10    5    7     -9.55      0.00
   11    5    7     -4.57      0.00
   12    5    7     -3.15      0.00
   13    5    7     16.16      0.00
   14    5    7     -1.54      0.00
   15    5    7      5.46      0.00
   16    5    7     -3.61      0.00
   17    5    7     -1.17      0.00
   18    5    7      2.09      0.00
   19    5    7      2.58      0.00
   20    5    7      0.46      0.00
  -12    6    7     -5.76      0.00
  -11    6    7     -1.53      0.00
  -10    6    7     -2.60      0.00
   -9    6    7      6.49      0.00
   -8    6    7      5.91      0.00
   -7    6    7     -3.57      0.00
   -6    6    7      4.67      0.00
   -5    6    7     -9.18      0.00
   -4    6    7    -16.17      0.00
   -3    6    7      4.78      0.00
   -2    6    7      9.66      0.00
   -1    6    7     -6.56      0.00
    0    6    7     27.55      0.00
    1    6    7    -22.08      0.00
    2    6    7    -23.84      0.00
    3    6    7     19.12      0.00
    4    6    7     24.38      0.00
    5    6    7     25.87      0.00
    6    6    7     13.11      0.00
    7    6    7     10.95      0.00
    8    6    7    -14.23      0.00
    9    6    7     19.37      0.00
   10    6    7    -14.13      0.00
   11    6    7      0.57      0.00
   12    6    7     -2.43      0.00
   13    6    7     -2.47      0.00
   14    6    7      3.31      0.00
   15    6    7      4.27      0.00
   16    6    7      2.75      0.00
   17    6    7      0.16      0.00
   18    6    7      0.88      0.00
   19    6    7      0.88      0.00
   20    6    7     -0.61      0.00
   21    6    7      4.99      0.00
  -11    7    7      0.62      0.00
  -10    7    7      3.27      0.00
   -9    7    7      1.86      0.00
   -8    7    7     -7.97      0.00
   -7    7    7     -6.47      0.00
   -6    7    7      2.35      0.00
   -5    7    7     -6.00      0.00
   -4    7    7      5.86      0.00
   -3    7    7     -1.62      0.00
   -2    7    7    -15.77      0.00
   -1    7    7     -6.39      0.00
    0    7    7      0.21      0.00
    1    7    7     11.52      0.00
    2    7    7      3.06      0.00
    3    7    7      2.00      0.00
    4    7    7    -27.23      0.00
    5    7    7      4.22      0.00
    6    7    7      7.53      0.00
    7    7    7     15.94      0.00
    8    7    7     11.30      0.00
    9    7    7      5.89      0.00
   10    7    7     -0.78      0.00
   11    7    7     -8.58      0.00
   12    7    7     -2.40      0.00
   13    7    7     -0.90      0.00
   14    7    7     -3.59      0.00
   15    7    7     -2.99      0.00
   16    7    7      2.52      0.00
   17    7    7      2.89      0.00
   18    7    7      3.76      0.00
   19    7    7      0.11      0.00
   20    7    7      1.19      0.00
   21    7    7      2.50      0.00
  -10    8    7      4.77      0.00
   -9    8    7     -0.89      0.00
   -8    8    7      1.97      0.00
   -7    8    7     -3.94      0.00
   -6    8    7     -6.35      0.00
   -5    8    7     -0.81      0.00
   -4    8    7     -5.96      0.00
   -3    8    7      5.18      0.00
   -2    8    7      1.25      0.00
   -1    8    7     -7.65      0.00
    0    8    7     -9.51      0.00
    1    8    7    -11.56      0.00
    2    8    7     -7.81      0.00
    3    8    7     11.21      0.00
    4    8    7     10.30      0.00
    5    8    7    -17.47      0.00
    6    8    7     12.45      0.00
    7    8    7      2.28      0.00
    8    8    7    -12.91      0.00
    9    8    7     14.10      0.00
   10    8    7     -3.34      0.00
   11    8    7     -1.40      0.00
   12    8    7      3.77      0.00
   13    8    7      0.18      0.00
   14    8    7     -5.59      0.00
   15    8    7      1.88      0.00
   16    8    7      0.38      0.00
   17    8    7     -0.61      0.00
   18    8    7     -1.97      0.00
   19    8    7      5.24      0.00
   20    8    7      4.41      0.00
   21    8    7     -6.09      0.00
  -10    9    7      5.11      0.00
   -9    9    7      3.45      0.00
   -8    9    7     -0.10      0.00
   -7    9    7      1.97      0.00
   -6    9    7      5.00      0.00
   -5    9    7      2.05      0.00
   -4    9    7      2.42      0.00
   -3    9    7     14.76      0.00
   -2    9    7     -8.03      0.00
   -1    9    7     -0.37      0.00
    0    9    7      6.50      0.00
    1    9    7    -15.51      0.00
    2    9    7    -11.57      0.00
    3    9    7      0.76      0.00
    4    9    7     -8.01      0.00
    5    9    7      8.89      0.00
    6    9    7     11.02      0.00
    7    9    7      1.34      0.00
    8    9    7     -6.93      0.00
    9    9    7      2.00      0.00
   10    9    7      7.84      0.00
   11    9    7      3.73      0.00
   12    9    7      4.88      0.00
   13    9    7      3.14      0.00
   14    9    7     -0.56      0.00
   15    9    7     -1.75      0.00
   16    9    7     -4.26      0.00
   17    9    7     -2.54      0.00
   18    9    7     -1.30      0.00
   19    9    7      4.27      0.00
   20    9    7      8.68      0.00
   21    9    7     -0.72      0.00
   -9   10    7      2.20      0.00
   -8   10    7      2.78      0.00
   -7   10    7      7.15      0.00
   -6   10    7     -2.99      0.00
   -5   10    7      4.53      0.00
   -4   10    7      2.69      0.00
   -3   10    7      2.98      0.00
   -2   10    7     -2.10      0.00
   -1   10    7      4.10      0.00
    0   10    7     -7.23      0.00
    1   10    7     -6.33      0.00
    2   10    7     -1.99      0.00
    3   10    7     -5.18      0.00
    4   10    7     -2.88      0.00
    5   10    7     -9.79      0.00
    6   10    7     13.27      0.00
    7   10    7     15.61      0.00
    8   10    7      2.78      0.00
    9   10    7      1.69      0.00
   10   10    7      2.24      0.00
   11   10    7     -2.36      0.00
   12   10    7      0.95      0.00
   13   10    7      5.61      0.00
   14   10    7      3.31      0.00
   15   10    7      4.30      0.00
   16   10    7     -2.58      0.00
   17   10    7      3.17      0.00
   18   10    7     -4.05      0.00
   19   10    7     -2.58      0.00
   20   10    7      8.71      0.00
   21   10    7     -2.71      0.00
   -8   11    7      1.35      0.00
   -7   11    7      6.55      0.00
   -6   11    7      3.58      0.00
   -5   11    7      3.48      0.00
   -4   11    7     -5.96      0.00
   -3   11    7      3.16      0.00
   -2   11    7     -1.24      0.00
   -1   11    7      0.03      0.00
    0   11    7      1.79      0.00
    1   11    7     -1.98      0.00
    2   11    7     -7.26      0.00
    3   11    7      2.51      0.00
    4   11    7    -14.08      0.00
    5   11    7      4.67      0.00
    6   11    7      1.38      0.00
    7   11    7      3.59      0.00
    8   11    7     -4.20      0.00
    9   11    7     12.54      0.00
   10   11    7      2.48      0.00
   11   11    7      8.07      0.00
   12   11    7     -0.99      0.00
   13   11    7     -4.65      0.00
   14   11    7      2.42      0.00
   15   11    7      4.41      0.00
   16   11    7     -0.83      0.00
   17   11    7     10.80      0.00
   18   11    7      6.62      0.00
   19   11    7     -3.02      0.00
   20   11    7      0.19      0.00
   21   11    7     -2.53      0.00
   -7   12    7      8.27      0.00
   -6   12    7     -0.61      0.00
   -5   12    7     -1.54      0.00
   -4   12    7      0.51      0.00
   -3   12    7     -1.54      0.00
   -2   12    7    -10.70      0.00
   -1   12    7      0.16      0.00
    0   12    7      0.55      0.00
    1   12    7      8.65      0.00
    2   12    7      4.23      0.00
    3   12    7      9.68      0.00
    4   12    7     -8.41      0.00
    5   12    7      4.09      0.00
    6   12    7    -14.58      0.00
    7   12    7     -1.94      0.00
    8   12    7      1.97      0.00
    9   12    7      1.07      0.00
   10   12    7     -5.60      0.00
   11   12    7      1.36      0.00
   12   12    7      7.71      0.00
   13   12    7     -0.76      0.00
   14   12    7      0.55      0.00
   15   12    7      3.49      0.00
   16   12    7      7.51      0.00
   17   12    7      4.94      0.00
   18   12    7     -0.08      0.00
   19   12    7     -0.89      0.00
   20   12    7      6.07      0.00
   21   12    7     -3.13      0.00
   -6   13    7      3.69      0.00
   -5   13    7      5.35      0.00
   -4   13    7     -6.47      0.00
   -3   13    7      1.20      0.00
   -2   13    7      0.52      0.00
   -1   13    7      1.67      0.00
    0   13    7     -1.19      0.00
    1   13    7      2.50      0.00
    2   13    7     -5.99      0.00
    3   13    7      9.24      0.00
    4   13    7     -1.21      0.00
    5   13    7     14.16      0.00
    6   13    7     -2.24      0.00
    7   13    7     -7.26      0.00
    8   13    7     -8.20      0.00
    9   13    7      7.06      0.00
   10   13    7      0.78      0.00
   11   13    7      1.18      0.00
   12   13    7      2.57      0.00
   13   13    7     -4.15      0.00
   14   13    7      0.80      0.00
   15   13    7      1.68      0.00
   16   13    7     -1.17      0.00
   17   13    7      7.24      0.00
   18   13    7      1.18      0.00
   19   13    7     -6.90      0.00
   20   13    7     -3.53      0.00
   21   13    7      4.14      0.00
   -5   14    7      6.04      0.00
   -4   14    7      8.85      0.00
   -3   14    7      0.20      0.00
   -2   14    7     -6.68      0.00
   -1   14    7      0.34      0.00
    0   14    7      3.27      0.00
    1   14    7      5.65      0.00
    2   14    7     -1.81      0.00
    3   14    7      7.07      0.00
    4   14    7     -7.38      0.00
    5   14    7     12.80      0.00
    6   14    7     -0.08      0.00
    7   14    7     -0.61      0.00
    8   14    7     -3.35      0.00
    9   14    7     -4.19      0.00
   10   14    7     -1.77      0.00
   11   14    7     -3.95      0.00
   12   14    7      7.77      0.00
   13   14    7     -3.71      0.00
   14   14    7      6.62      0.00
   15   14    7     -1.92      0.00
   16   14    7      0.13      0.00
   17   14    7      5.34      0.00
   18   14    7     -1.20      0.00
   19   14    7      2.69      0.00
   20   14    7      2.55      0.00
   21   14    7      4.48      0.00
   -4   15    7     -5.12      0.00
   -3   15    7      3.37      0.00
   -2   15    7      1.76      0.00
   -1   15    7      2.38      0.00
    0   15    7     -5.42      0.00
    1   15    7      2.41      0.00
    2   15    7     -4.75      0.00
    3   15    7      6.09      0.00
    4   15    7     -2.88      0.00
    5   15    7      5.73      0.00
    6   15    7      0.48      0.00
    7   15    7     -1.90      0.00
    8   15    7     -0.75      0.00
    9   15    7      0.00      0.00
   10   15    7     -0.06      0.00
   11   15    7     -3.82      0.00
   12   15    7      1.62      0.00
   13   15    7      2.36      0.00
   14   15    7      0.82      0.00
   15   15    7      2.26      0.00
   16   15    7     -4.46      0.00
   17   15    7      0.49      0.00
   18   15    7      5.22      0.00
   19   15    7      9.07      0.00
   20   15    7      2.82      0.00
   21   15    7      0.38      0.00
   -3   16    7      4.86      0.00
   -2   16    7     -3.08      0.00
   -1   16    7     -5.13      0.00
    0   16    7      4.24      0.00
    1   16    7     -6.02      0.00
    2   16    7     -1.61      0.00
    3   16    7      3.41      0.00
    4   16    7      1.56      0.00
    5   16    7      1.94      0.00
    6   16    7     -5.10      0.00
    7   16    7     -7.21      0.00
    8   16    7     -2.12      0.00
    9   16    7      3.14      0.00
   10   16    7      2.57      0.00
   11   16    7     -0.66      0.00
   12   16    7     -2.59      0.00
   13   16    7      1.07      0.00
   14   16    7      4.64      0.00
   15   16    7      2.57      0.00
   16   16    7     -0.76      0.00
   17   16    7      2.88      0.00
   18   16    7     -4.20      0.00
   19   16    7     -1.49      0.00
   20   16    7      0.47      0.00
   -1   17    7     -5.21      0.00
    0   17    7     -6.83      0.00
    1   17    7     -6.10      0.00
    2   17    7     -7.10      0.00
    3   17    7     -3.10      0.00
    4   17    7     -1.03      0.00
    5   17    7     -1.54      0.00
    6   17    7     -2.18      0.00
    7   17    7     -0.38      0.00
    8   17    7     -1.28      0.00
    9   17    7     -1.85      0.00
   10   17    7      0.97      0.00
   11   17    7     -2.45      0.00
   12   17    7      2.21      0.00
   13   17    7      8.80      0.00
   14   17    7      2.49      0.00
   15   17    7     -5.08      0.00
   16   17    7     -1.68      0.00
   17   17    7     -2.73      0.00
   18   17    7     -0.69      0.00
   19   17    7     -1.59      0.00
   20   17    7     -4.92      0.00
    0   18    7     -5.58      0.00
    1   18    7     -4.60      0.00
    2   18    7     -4.46      0.00
    3   18    7      3.23      0.00
    4   18    7      3.05      0.00
    5   18    7     -0.30      0.00
    6   18    7      0.06      0.00
    7   18    7     -1.80      0.00
    8   18    7     -2.03      0.00
    9   18    7      3.47      0.00
   10   18    7     -0.43      0.00
   11   18    7     -1.21      0.00
   12   18    7     -6.13      0.00
   13   18    7      0.05      0.00
   14   18    7      0.46      0.00
   15   18    7     -0.06      0.00
   16   18    7     -3.12      0.00
   17   18    7     -6.52      0.00
   18   18    7     -9.89      0.00
   19   18    7     -3.04      0.00
    2   19    7     -6.18      0.00
    3   19    7     -0.86      0.00
    4   19    7     -0.38      0.00
    5   19    7      3.73      0.00
    6   19    7     -3.36      0.00
    7   19    7      0.30      0.00
    8   19    7     -4.31      0.00
    9   19    7      8.40      0.00
   10   19    7     -0.15      0.00
   11   19    7     -2.78      0.00
   12   19    7     -5.32      0.00
   13   19    7     10.10      0.00
   14   19    7     -3.54      0.00
   15   19    7      3.33      0.00
   16   19    7     -2.71      0.00
   17   19    7     -4.04      0.00
   18   19    7     -1.99      0.00
    4   20    7      0.42      0.00
    5   20    7     -2.58      0.00
    6   20    7     -4.11      0.00
    7   20    7      1.27      0.00
    8   20    7     -2.43      0.00
    9   20    7      0.06      0.00
   10   20    7     -0.23      0.00
   11   20    7     -2.56      0.00
   12   20    7     -7.25      0.00
   13   20    7     -1.16      0.00
   14   20    7     -0.83      0.00
   15   20    7      1.97      0.00
   16   20    7      4.92      0.00
   17   20    7      0.62      0.00
    7   21    7     -3.78      0.00
    8   21    7      1.31      0.00
    9   21    7      0.77      0.00
   10   21    7      9.15      0.00
   11   21    7      5.12      0.00
   12   21    7     -2.45      0.00
   13   21    7      1.12      0.00
   14   21    7     -0.52      0.00
   15   21    7      1.34      0.00
   16   21    7     -1.72      0.00
   -9  -21    8      1.15      0.00
   -8  -21    8      4.37      0.00
   -7  -21    8     -6.32      0.00
   -6  -21    8      2.66      0.00
   -5  -21    8     -0.36      0.00
  -12  -20    8     -2.11      0.00
  -11  -20    8      1.01      0.00
  -10  -20    8      2.95      0.00
   -9  -20    8     -3.34      0.00
   -8  -20    8     -0.23      0.00
   -7  -20    8     -0.61      0.00
   -6  -20    8     11.21      0.00
   -5  -20    8      6.13      0.00
   -4  -20    8     -2.53      0.00
   -3  -20    8     -1.50      0.00
   -2  -20    8     -1.54      0.00
   -1  -20    8     -0.53      0.00
  -13  -19    8      1.73      0.00
  -12  -19    8     -5.66      0.00
  -11  -19    8     -0.91      0.00
  -10  -19    8      3.06      0.00
   -9  -19    8     -2.12      0.00
   -8  -19    8      3.79      0.00
   -7  -19    8     -1.97      0.00
   -6  -19    8      3.48      0.00
   -5  -19    8     -1.85      0.00
   -4  -19    8     -3.69      0.00
   -3  -19    8     -0.94      0.00
   -2  -19    8     -0.82      0.00
   -1  -19    8      3.08      0.00
    0  -19    8     -0.83      0.00
    1  -19    8     -4.81      0.00
  -14  -18    8     -2.26      0.00
  -13  -18    8     -1.06      0.00
  -12  -18    8     -4.24      0.00
  -11  -18    8      1.62      0.00
  -10  -18    8      0.39      0.00
   -9  -18    8     -0.82      0.00
   -8  -18    8      0.46      0.00
   -7  -18    8      1.56      0.00
   -6  -18    8      2.72      0.00
   -5  -18    8      0.21      0.00
   -4  -18    8     -2.04      0.00
   -3  -18    8      0.86      0.00
   -2  -18    8     -0.66      0.00
   -1  -18    8      1.13      0.00
    0  -18    8      1.11      0.00
    1  -18    8     -1.22      0.00
    2  -18    8     -2.32      0.00
    3  -18    8     -1.50      0.00
  -15  -17    8     -0.98      0.00
  -14  -17    8      6.83      0.00
  -13  -17    8      0.25      0.00
  -12  -17    8     -3.85      0.00
  -11  -17    8      2.32      0.00
  -10  -17    8      0.18      0.00
   -9  -17    8     -1.68      0.00
   -8  -17    8      4.20      0.00
   -7  -17    8      1.92      0.00
   -6  -17    8     -1.72      0.00
   -5  -17    8     -6.22      0.00
   -4  -17    8     -3.77      0.00
   -3  -17    8     -3.27      0.00
   -2  -17    8      0.89      0.00
   -1  -17    8      0.76      0.00
    0  -17    8      1.84      0.00
    1  -17    8      1.02      0.00
    2  -17    8      4.32      0.00
    3  -17    8      1.81      0.00
    4  -17    8      2.71      0.00
    5  -17    8     -2.55      0.00
  -15  -16    8      2.59      0.00
  -14  -16    8     -1.68      0.00
  -13  -16    8      1.23      0.00
  -12  -16    8     -2.63      0.00
  -11  -16    8      3.82      0.00
  -10  -16    8      1.71      0.00
   -9  -16    8     -0.17      0.00
   -8  -16    8     -0.99      0.00
   -7  -16    8     -2.07      0.00
   -6  -16    8      0.94      0.00
   -5  -16    8      1.22      0.00
   -4  -16    8      0.68      0.00
   -3  -16    8      4.26      0.00
   -2  -16    8      0.52      0.00
   -1  -16    8      0.27      0.00
    0  -16    8      1.68      0.00
    1  -16    8      0.03      0.00
    2  -16    8     -0.27      0.00
    3  -16    8     -2.04      0.00
    4  -16    8      0.95      0.00
    5  -16    8      4.92      0.00
    6  -16    8      2.40      0.00
  -16  -15    8      3.01      0.00
  -15  -15    8      0.52      0.00
  -14  -15    8      2.93      0.00
  -13  -15    8     -1.66      0.00
  -12  -15    8      3.87      0.00
  -11  -15    8      1.32      0.00
  -10  -15    8      1.26      0.00
   -9  -15    8      0.61      0.00
   -8  -15    8      4.23      0.00
   -7  -15    8     -1.60      0.00
   -6  -15    8      3.14      0.00
   -5  -15    8      4.06      0.00
   -4  -15    8     -0.46      0.00
   -3  -15    8     -2.97      0.00
   -2  -15    8      1.44      0.00
   -1  -15    8      0.37      0.00
    0  -15    8      3.35      0.00
    1  -15    8      0.71      0.00
    2  -15    8      1.81      0.00
    3  -15    8      0.50      0.00
    4  -15    8      3.07      0.00
    5  -15    8      0.13      0.00
    6  -15    8      2.48      0.00
    7  -15    8     -3.99      0.00
  -16  -14    8     -7.32      0.00
  -15  -14    8      0.41      0.00
  -14  -14    8      1.17      0.00
  -13  -14    8      0.45      0.00
  -12  -14    8      0.02      0.00
  -11  -14    8      0.43      0.00
  -10  -14    8     -2.68      0.00
   -9  -14    8     -0.58      0.00
   -8  -14    8      7.23      0.00
   -7  -14    8     -4.40      0.00
   -6  -14    8      1.32      0.00
   -5  -14    8      5.91      0.00
   -4  -14    8     -0.21      0.00
   -3  -14    8      2.29      0.00
   -2  -14    8      5.79      0.00
   -1  -14    8     -0.40      0.00
    0  -14    8     -0.73      0.00
    1  -14    8     -1.07      0.00
    2  -14    8     -3.15      0.00
    3  -14    8      1.75      0.00
    4  -14    8     -1.49      0.00
    5  -14    8      4.32      0.00
    6  -14    8      1.17      0.00
    7  -14    8     -0.45      0.00
    8  -14    8     -6.26      0.00
  -16  -13    8     -3.12      0.00
  -15  -13    8     -5.43      0.00
  -14  -13    8      2.41      0.00
  -13  -13    8      0.24      0.00
  -12  -13    8      1.07      0.00
  -11  -13    8      2.54      0.00
  -10  -13    8      2.21      0.00
   -9  -13    8     -2.55      0.00
   -8  -13    8      1.53      0.00
   -7  -13    8     -0.10      0.00
   -6  -13    8      3.08      0.00
   -5  -13    8      6.44      0.00
   -4  -13    8      4.12      0.00
   -3  -13    8     -3.21      0.00
   -2  -13    8      0.95      0.00
   -1  -13    8      0.31      0.00
    0  -13    8      6.20      0.00
    1  -13    8      5.55      0.00
    2  -13    8      1.31      0.00
    3  -13    8      0.53      0.00
    4  -13    8      2.30      0.00
    5  -13    8     -2.73      0.00
    6  -13    8      0.99      0.00
    7  -13    8     -3.36      0.00
    8  -13    8     -5.81      0.00
    9  -13    8      7.41      0.00
   10  -13    8      2.54      0.00
  -17  -12    8     -0.88      0.00
  -16  -12    8     -0.83      0.00
  -15  -12    8     -1.53      0.00
  -14  -12    8      2.24      0.00
  -13  -12    8     -5.11      0.00
  -12  -12    8      0.12      0.00
  -11  -12    8      1.95      0.00
  -10  -12    8      4.00      0.00
   -9  -12    8      3.64      0.00
   -8  -12    8      6.49      0.00
   -7  -12    8      5.81      0.00
   -6  -12    8      2.70      0.00
   -5  -12    8     -1.79      0.00
   -4  -12    8      5.87      0.00
   -3  -12    8      6.77      0.00
   -2  -12    8      6.87      0.00
   -1  -12    8     -3.98      0.00
    0  -12    8     -3.61      0.00
    1  -12    8     -6.72      0.00
    2  -12    8      2.39      0.00
    3  -12    8      5.76      0.00
    4  -12    8     -0.95      0.00
    5  -12    8      5.14      0.00
    6  -12    8     -3.04      0.00
    7  -12    8     -0.34      0.00
    8  -12    8     -0.15      0.00
    9  -12    8      3.78      0.00
   10  -12    8      1.90      0.00
   11  -12    8     -4.81      0.00
  -17  -11    8     -1.06      0.00
  -16  -11    8      2.89      0.00
  -15  -11    8     -0.49      0.00
  -14  -11    8      7.27      0.00
  -13  -11    8     -2.14      0.00
  -12  -11    8      3.70      0.00
  -11  -11    8     -4.02      0.00
  -10  -11    8      4.41      0.00
   -9  -11    8     -7.39      0.00
   -8  -11    8     -3.81      0.00
   -7  -11    8     -4.61      0.00
   -6  -11    8      8.70      0.00
   -5  -11    8      2.56      0.00
   -4  -11    8     10.82      0.00
   -3  -11    8     -0.21      0.00
   -2  -11    8      1.35      0.00
   -1  -11    8     -0.72      0.00
    0  -11    8     -3.67      0.00
    1  -11    8      2.41      0.00
    2  -11    8    -13.53      0.00
    3  -11    8      0.35      0.00
    4  -11    8      2.34      0.00
    5  -11    8      1.98      0.00
    6  -11    8      0.86      0.00
    7  -11    8     -6.55      0.00
    8  -11    8     -0.02      0.00
    9  -11    8      5.80      0.00
   10  -11    8      4.70      0.00
   11  -11    8     -2.11      0.00
   12  -11    8     -3.41      0.00
  -17  -10    8      0.98      0.00
  -16  -10    8     -0.48      0.00
  -15  -10    8     -4.96      0.00
  -14  -10    8      2.80      0.00
  -13  -10    8     -3.68      0.00
  -12  -10    8      0.44      0.00
  -11  -10    8     -4.14      0.00
  -10  -10    8      2.91      0.00
   -9  -10    8     -6.94      0.00
   -8  -10    8     -0.31      0.00
   -7  -10    8     -0.49      0.00
   -6  -10    8      2.93      0.00
   -5  -10    8     -5.55      0.00
   -4  -10    8     -2.53      0.00
   -3  -10    8     -0.19      0.00
   -2  -10    8      2.27      0.00
   -1  -10    8     -8.92      0.00
    0  -10    8     -7.63      0.00
    1  -10    8     -6.80      0.00
    2  -10    8     -3.36      0.00
    3  -10    8      3.63      0.00
    4  -10    8     -8.88      0.00
    5  -10    8      0.60      0.00
    6  -10    8      1.91      0.00
    7  -10    8      0.99      0.00
    8  -10    8      2.93      0.00
    9  -10    8      1.09      0.00
   10  -10    8     -3.70      0.00
   11  -10    8     -4.41      0.00
   12  -10    8      0.67      0.00
  -17   -9    8     -3.87      0.00
  -16   -9    8      3.42      0.00
  -15   -9    8     -1.71      0.00
  -14   -9    8      3.03      0.00
  -13   -9    8      0.84      0.00
  -12   -9    8      3.36      0.00
  -11   -9    8     -5.75      0.00
  -10   -9    8     -2.41      0.00
   -9   -9    8     -9.21      0.00
   -8   -9    8      5.58      0.00
   -7   -9    8    -11.37      0.00
   -6   -9    8      5.63      0.00
   -5   -9    8     -4.45      0.00
   -4   -9    8     13.15      0.00
   -3   -9    8     -5.19      0.00
   -2   -9    8     13.24      0.00
   -1   -9    8     -4.06      0.00
    0   -9    8    -15.06      0.00
    1   -9    8      5.30      0.00
    2   -9    8    -11.04      0.00
    3   -9    8     10.23      0.00
    4   -9    8      0.02      0.00
    5   -9    8      9.54      0.00
    6   -9    8     -7.59      0.00
    7   -9    8     -3.97      0.00
    8   -9    8      1.17      0.00
    9   -9    8      4.79      0.00
   10   -9    8      5.97      0.00
   11   -9    8      0.89      0.00
   12   -9    8     -2.02      0.00
   13   -9    8      3.42      0.00
  -17   -8    8     -0.10      0.00
  -16   -8    8     -3.38      0.00
  -15   -8    8     -6.77      0.00
  -14   -8    8      3.92      0.00
  -13   -8    8     -1.93      0.00
  -12   -8    8     -2.89      0.00
  -11   -8    8      2.14      0.00
  -10   -8    8      5.19      0.00
   -9   -8    8    -10.60      0.00
   -8   -8    8     10.27      0.00
   -7   -8    8     -8.27      0.00
   -6   -8    8     11.07      0.00
   -5   -8    8      9.25      0.00
   -4   -8    8     -1.13      0.00
   -3   -8    8    -19.43      0.00
   -2   -8    8     -0.67      0.00
   -1   -8    8      6.40      0.00
    0   -8    8      4.75      0.00
    1   -8    8     15.65      0.00
    2   -8    8      1.64      0.00
    3   -8    8     -1.33      0.00
    4   -8    8     -4.63      0.00
    5   -8    8     -3.60      0.00
    6   -8    8      8.60      0.00
    7   -8    8      1.71      0.00
    8   -8    8     -2.60      0.00
    9   -8    8      1.28      0.00
   10   -8    8     -6.12      0.00
   11   -8    8      3.83      0.00
   12   -8    8      6.65      0.00
   13   -8    8      3.10      0.00
   14   -8    8      1.67      0.00
  -16   -7    8     -1.32      0.00
  -15   -7    8     -2.35      0.00
  -14   -7    8      7.90      0.00
  -13   -7    8      0.95      0.00
  -12   -7    8     -0.76      0.00
  -11   -7    8     -3.90      0.00
  -10   -7    8     -4.48      0.00
   -9   -7    8     -7.67      0.00
   -8   -7    8     19.92      0.00
   -7   -7    8     -0.60      0.00
   -6   -7    8      3.67      0.00
   -5   -7    8     -7.83      0.00
   -4   -7    8     20.57      0.00
   -3   -7    8     -6.17      0.00
   -2   -7    8     24.26      0.00
   -1   -7    8     -1.65      0.00
    0   -7    8    -10.64      0.00
    1   -7    8     -4.38      0.00
    2   -7    8     10.59      0.00
    3   -7    8     11.76      0.00
    4   -7    8     -6.74      0.00
    5   -7    8     13.92      0.00
    6   -7    8    -15.07      0.00
    7   -7    8      1.96      0.00
    8   -7    8      3.44      0.00
    9   -7    8      6.63      0.00
   10   -7    8      7.49      0.00
   11   -7    8      2.09      0.00
   12   -7    8      1.21      0.00
   13   -7    8     -3.16      0.00
   14   -7    8      4.11      0.00
   15   -7    8     -2.27      0.00
  -16   -6    8     -2.32      0.00
  -15   -6    8     -5.10      0.00
  -14   -6    8      2.07      0.00
  -13   -6    8      0.61      0.00
  -12   -6    8     -2.02      0.00
  -11   -6    8      1.97      0.00
  -10   -6    8      1.24      0.00
   -9   -6    8     -8.53      0.00
   -8   -6    8      5.11      0.00
   -7   -6    8     -7.68      0.00
   -6   -6    8     15.50      0.00
   -5   -6    8      2.20      0.00
   -4   -6    8      4.47      0.00
   -3   -6    8    -29.75      0.00
   -2   -6    8      4.49      0.00
   -1   -6    8     -4.16      0.00
    0   -6    8      3.48      0.00
    1   -6    8     25.93      0.00
    2   -6    8     -5.17      0.00
    3   -6    8     -7.92      0.00
    4   -6    8     -6.28      0.00
    5   -6    8    -11.03      0.00
    6   -6    8      4.65      0.00
    7   -6    8     -1.06      0.00
    8   -6    8     -8.54      0.00
    9   -6    8      0.22      0.00
   10   -6    8     -0.59      0.00
   11   -6    8     -4.05      0.00
   12   -6    8      2.75      0.00
   13   -6    8     -2.88      0.00
   14   -6    8     -0.93      0.00
   15   -6    8     -3.00      0.00
  -16   -5    8      0.35      0.00
  -15   -5    8      1.91      0.00
  -14   -5    8      2.93      0.00
  -13   -5    8     -1.64      0.00
  -12   -5    8     -4.41      0.00
  -11   -5    8     -3.30      0.00
  -10   -5    8     -4.78      0.00
   -9   -5    8     -2.70      0.00
   -8   -5    8      8.61      0.00
   -7   -5    8     -8.95      0.00
   -6   -5    8      5.55      0.00
   -5   -5    8    -19.38      0.00
   -4   -5    8      5.02      0.00
   -3   -5    8     -3.02      0.00
   -2   -5    8     18.72      0.00
   -1   -5    8    -21.96      0.00
    0   -5    8     11.61      0.00
    1   -5    8    -18.08      0.00
    2   -5    8     20.78      0.00
    3   -5    8      5.84      0.00
    4   -5    8     -4.88      0.00
    5   -5    8      4.17      0.00
    6   -5    8      0.69      0.00
    7   -5    8      2.33      0.00
    8   -5    8      3.98      0.00
    9   -5    8     11.04      0.00
   10   -5    8     -6.93      0.00
   11   -5    8      5.12      0.00
   12   -5    8     -2.57      0.00
   13   -5    8     -5.26      0.00
   14   -5    8     -1.27      0.00
   15   -5    8     -6.43      0.00
   16   -5    8      4.23      0.00
  -16   -4    8      1.48      0.00
  -15   -4    8     -1.32      0.00
  -14   -4    8      2.58      0.00
  -13   -4    8     -0.36      0.00
  -12   -4    8     -0.49      0.00
  -11   -4    8     -3.92      0.00
  -10   -4    8     -0.41      0.00
   -9   -4    8      0.99      0.00
   -8   -4    8      3.32      0.00
   -7   -4    8    -14.70      0.00
   -6   -4    8     10.51      0.00
   -5   -4    8    -18.32      0.00
   -4   -4    8      5.82      0.00
   -3   -4    8    -23.46      0.00
   -2   -4    8     14.16      0.00
   -1   -4    8    -15.37      0.00
    0   -4    8      4.05      0.00
    1   -4    8     18.33      0.00
    2   -4    8      5.63      0.00
    3   -4    8      2.39      0.00
    4   -4    8     19.76      0.00
    5   -4    8     18.04      0.00
    6   -4    8     -8.74      0.00
    7   -4    8     -2.36      0.00
    8   -4    8     -6.17      0.00
    9   -4    8     -4.89      0.00
   10   -4    8      8.87      0.00
   11   -4    8      0.15      0.00
   12   -4    8      0.89      0.00
   13   -4    8      3.90      0.00
   14   -4    8     -3.92      0.00
   15   -4    8      0.67      0.00
   16   -4    8      5.78      0.00
   17   -4    8     -3.51      0.00
  -16   -3    8      0.83      0.00
  -15   -3    8     -0.06      0.00
  -14   -3    8      4.87      0.00
  -13   -3    8     -6.01      0.00
  -12   -3    8      2.17      0.00
  -11   -3    8     -7.25      0.00
  -10   -3    8      3.81      0.00
   -9   -3    8     -0.02      0.00
   -8   -3    8      8.15      0.00
   -7   -3    8    -11.13      0.00
   -6   -3    8     16.87      0.00
   -5   -3    8    -10.27      0.00
   -4   -3    8    -11.68      0.00
   -3   -3    8     -0.33      0.00
   -2   -3    8      9.97      0.00
   -1   -3    8    -28.09      0.00
    0   -3    8     26.20      0.00
    1   -3    8      7.57      0.00
    2   -3    8      9.90      0.00
    3   -3    8    -17.87      0.00
    4   -3    8      2.04      0.00
    5   -3    8    -11.29      0.00
    6   -3    8     42.92      0.00
    7   -3    8      4.41      0.00
    8   -3    8      1.62      0.00
    9   -3    8      7.60      0.00
   10   -3    8    -15.80      0.00
   11   -3    8      1.41      0.00
   12   -3    8     -0.58      0.00
   13   -3    8      0.97      0.00
   14   -3    8      1.37      0.00
   15   -3    8      0.76      0.00
   16   -3    8     -1.33      0.00
   17   -3    8     -1.08      0.00
  -15   -2    8     -0.56      0.00
  -14   -2    8      3.53      0.00
  -13   -2    8     -3.54      0.00
  -12   -2    8      5.15      0.00
  -11   -2    8     -3.39      0.00
  -10   -2    8      3.40      0.00
   -9   -2    8     -0.90      0.00
   -8   -2    8      5.69      0.00
   -7   -2    8    -12.15      0.00
   -6   -2    8      9.10      0.00
   -5   -2    8    -12.58      0.00
   -4   -2    8     -8.56      0.00
   -3   -2    8     -9.30      0.00
   -2   -2    8     17.32      0.00
   -1   -2    8     -9.22      0.00
    0   -2    8    -15.14      0.00
    1   -2    8    -21.94      0.00
    2   -2    8      4.23      0.00
    3   -2    8      7.90      0.00
    4   -2    8     19.09      0.00
    5   -2    8     19.13      0.00
    6   -2    8    -32.68      0.00
    7   -2    8    -11.39      0.00
    8   -2    8     10.97      0.00
    9   -2    8      1.12      0.00
   10   -2    8      6.37      0.00
   11   -2    8     -0.62      0.00
   12   -2    8     -1.98      0.00
   13   -2    8      3.90      0.00
   14   -2    8     -0.17      0.00
   15   -2    8      3.03      0.00
   16   -2    8      4.33      0.00
   17   -2    8      1.12      0.00
   18   -2    8     -2.44      0.00
  -15   -1    8     -0.40      0.00
  -14   -1    8      2.45      0.00
  -13   -1    8     -8.45      0.00
  -12   -1    8     -6.87      0.00
  -11   -1    8     -6.97      0.00
  -10   -1    8      3.00      0.00
   -9   -1    8     -0.87      0.00
   -8   -1    8      5.66      0.00
   -7   -1    8    -10.01      0.00
   -6   -1    8      6.79      0.00
   -5   -1    8      2.28      0.00
   -4   -1    8    -12.49      0.00
   -3   -1    8    -13.74      0.00
   -2   -1    8     -4.97      0.00
   -1   -1    8    -22.10      0.00
    0   -1    8     -9.94      0.00
    1   -1    8     24.36      0.00
    2   -1    8    -24.57      0.00
    3   -1    8    -46.44      0.00
    4   -1    8     -3.28      0.00
    5   -1    8    -26.58      0.00
    6   -1    8     42.22      0.00
    7   -1    8      1.48      0.00
    8   -1    8     -3.58      0.00
    9   -1    8     -5.31      0.00
   10   -1    8     -1.78      0.00
   11   -1    8     -2.79      0.00
   12   -1    8      2.64      0.00
   13   -1    8      3.99      0.00
   14   -1    8     -1.41      0.00
   15   -1    8      9.07      0.00
   16   -1    8     -0.67      0.00
   17   -1    8      0.16      0.00
   18   -1    8      2.97      0.00
  -14    0    8      1.87      0.00
  -13    0    8      4.36      0.00
  -12    0    8     -2.23      0.00
  -11    0    8     -6.87      0.00
  -10    0    8      0.51      0.00
   -9    0    8     -0.22      0.00
   -8    0    8     -2.26      0.00
   -7    0    8     -9.84      0.00
   -6    0    8     -7.79      0.00
   -5    0    8    -14.10      0.00
   -4    0    8    -13.45      0.00
   -3    0    8     18.24      0.00
   -2    0    8     -1.94      0.00
   -1    0    8     -7.53      0.00
    0    0    8    -12.15      0.00
    1    0    8    -47.71      0.00
    2    0    8     -3.94      0.00
    3    0    8     -2.37      0.00
    4    0    8     11.46      0.00
    5    0    8      1.46      0.00
    6    0    8     -7.37      0.00
    7    0    8    -18.65      0.00
    8    0    8     13.83      0.00
    9    0    8     15.44      0.00
   10    0    8     -3.58      0.00
   11    0    8      3.53      0.00
   12    0    8      1.27      0.00
   13    0    8     -1.22      0.00
   14    0    8      9.79      0.00
   15    0    8      2.86      0.00
   16    0    8     -1.34      0.00
   17    0    8      5.69      0.00
   18    0    8      5.17      0.00
   19    0    8     -1.10      0.00
  -14    1    8     -1.41      0.00
  -13    1    8     -4.15      0.00
  -12    1    8     -5.37      0.00
  -11    1    8      1.70      0.00
  -10    1    8      4.73      0.00
   -9    1    8     -1.14      0.00
   -8    1    8     -7.72      0.00
   -7    1    8      0.63      0.00
   -6    1    8      6.77      0.00
   -5    1    8     -5.57      0.00
   -4    1    8    -12.96      0.00
   -3    1    8     -6.92      0.00
   -2    1    8      4.40      0.00
   -1    1    8      2.25      0.00
    0    1    8      3.29      0.00
    1    1    8     11.13      0.00
    2    1    8    -34.10      0.00
    3    1    8    -42.11      0.00
    4    1    8      3.87      0.00
    5    1    8     -8.78      0.00
    6    1    8     22.66      0.00
    7    1    8     13.51      0.00
    8    1    8     -0.71      0.00
    9    1    8     -4.65      0.00
   10    1    8     15.87      0.00
   11    1    8    -12.57      0.00
   12    1    8     -0.48      0.00
   13    1    8     -4.49      0.00
   14    1    8     -4.26      0.00
   15    1    8     10.25      0.00
   16    1    8      2.35      0.00
   17    1    8      4.59      0.00
   18    1    8      3.96      0.00
   19    1    8      1.06      0.00
  -13    2    8     -0.14      0.00
  -12    2    8     -1.60      0.00
  -11    2    8     -6.14      0.00
  -10    2    8     -2.61      0.00
   -9    2    8     -1.17      0.00
   -8    2    8     -3.27      0.00
   -7    2    8    -10.35      0.00
   -6    2    8      2.47      0.00
   -5    2    8     -5.82      0.00
   -4    2    8     -4.13      0.00
   -3    2    8     19.03      0.00
   -2    2    8     -9.77      0.00
   -1    2    8    -17.52      0.00
    0    2    8     27.50      0.00
    1    2    8     -6.30      0.00
    2    2    8    -27.34      0.00
    3    2    8     -4.43      0.00
    4    2    8     -1.34      0.00
    5    2    8    -28.90      0.00
    6    2    8     -2.28      0.00
    7    2    8     -7.35      0.00
    8    2    8     -4.04      0.00
    9    2    8     21.91      0.00
   10    2    8    -15.29      0.00
   11    2    8      1.80      0.00
   12    2    8      3.99      0.00
   13    2    8     -0.55      0.00
   14    2    8      2.60      0.00
   15    2    8     -2.50      0.00
   16    2    8     -6.32      0.00
   17    2    8      2.67      0.00
   18    2    8     -0.23      0.00
   19    2    8      2.90      0.00
   20    2    8     -0.26      0.00
  -13    3    8      5.61      0.00
  -12    3    8      3.71      0.00
  -11    3    8      4.39      0.00
  -10    3    8      0.65      0.00
   -9    3    8     -2.53      0.00
   -8    3    8     -5.08      0.00
   -7    3    8     -0.64      0.00
   -6    3    8     10.18      0.00
   -5    3    8    -19.00      0.00
   -4    3    8      9.24      0.00
   -3    3    8     -1.00      0.00
   -2    3    8      3.86      0.00
   -1    3    8     -3.14      0.00
    0    3    8      2.89      0.00
    1    3    8    -15.84      0.00
    2    3    8    -11.88      0.00
    3    3    8      6.47      0.00
    4    3    8     -9.70      0.00
    5    3    8      7.28      0.00
    6    3    8    -51.76      0.00
    7    3    8    -12.55      0.00
    8    3    8    -14.59      0.00
    9    3    8     -2.99      0.00
   10    3    8     11.07      0.00
   11    3    8      3.56      0.00
   12    3    8     -1.52      0.00
   13    3    8     -2.90      0.00
   14    3    8     -3.94      0.00
   15    3    8      1.86      0.00
   16    3    8      2.64      0.00
   17    3    8      3.56      0.00
   18    3    8     -0.94      0.00
   19    3    8      4.44      0.00
   20    3    8      0.71      0.00
  -12    4    8      6.25      0.00
  -11    4    8      2.62      0.00
  -10    4    8     -0.05      0.00
   -9    4    8     -3.79      0.00
   -8    4    8      2.20      0.00
   -7    4    8    -13.31      0.00
   -6    4    8      8.41      0.00
   -5    4    8     -1.53      0.00
   -4    4    8      9.67      0.00
   -3    4    8     -3.24      0.00
   -2    4    8     -7.57      0.00
   -1    4    8    -16.26      0.00
    0    4    8     10.86      0.00
    1    4    8     18.86      0.00
    2    4    8    -27.94      0.00
    3    4    8      8.18      0.00
    4    4    8     -8.42      0.00
    5    4    8     -7.57      0.00
    6    4    8     -8.79      0.00
    7    4    8     -5.39      0.00
    8    4    8    -21.04      0.00
    9    4    8      0.07      0.00
   10    4    8    -18.11      0.00
   11    4    8      1.16      0.00
   12    4    8      8.94      0.00
   13    4    8      7.49      0.00
   14    4    8     -6.59      0.00
   15    4    8      0.45      0.00
   16    4    8     -2.30      0.00
   17    4    8     -1.56      0.00
   18    4    8     -4.80      0.00
   19    4    8      2.84      0.00
   20    4    8      0.87      0.00
  -12    5    8      1.67      0.00
  -11    5    8     11.46      0.00
  -10    5    8     -1.25      0.00
   -9    5    8      7.90      0.00
   -8    5    8      5.35      0.00
   -7    5    8     -2.02      0.00
   -6    5    8      9.59      0.00
   -5    5    8    -13.59      0.00
   -4    5    8      6.32      0.00
   -3    5    8     12.37      0.00
   -2    5    8      0.50      0.00
   -1    5    8      0.61      0.00
    0    5    8     -2.49      0.00
    1    5    8    -29.03      0.00
    2    5    8      0.86      0.00
    3    5    8     35.36      0.00
    4    5    8     -8.48      0.00
    5    5    8     28.76      0.00
    6    5    8    -24.38      0.00
    7    5    8    -16.33      0.00
    8    5    8     -4.90      0.00
    9    5    8      4.07      0.00
   10    5    8    -14.60      0.00
   11    5    8      3.27      0.00
   12    5    8     -5.60      0.00
   13    5    8     -1.89      0.00
   14    5    8      5.28      0.00
   15    5    8      1.45      0.00
   16    5    8      5.19      0.00
   17    5    8     -5.85      0.00
   18    5    8     -4.64      0.00
   19    5    8      4.27      0.00
   20    5    8      0.35      0.00
   21    5    8      1.66      0.00
  -11    6    8     -2.24      0.00
  -10    6    8     -6.92      0.00
   -9    6    8     -2.21      0.00
   -8    6    8     -1.82      0.00
   -7    6    8      0.82      0.00
   -6    6    8      5.64      0.00
   -5    6    8      0.45      0.00
   -4    6    8      6.65      0.00
   -3    6    8     -5.34      0.00
   -2    6    8     -5.76      0.00
   -1    6    8      6.86      0.00
    0    6    8      2.19      0.00
    1    6    8     30.13      0.00
    2    6    8    -11.55      0.00
    3    6    8     -7.63      0.00
    4    6    8    -18.46      0.00
    5    6    8     23.43      0.00
    6    6    8     20.72      0.00
    7    6    8      9.32      0.00
    8    6    8      0.18      0.00
    9    6    8     -2.42      0.00
   10    6    8    -12.63      0.00
   11    6    8     -7.18      0.00
   12    6    8     -2.93      0.00
   13    6    8     -2.15      0.00
   14    6    8     -7.14      0.00
   15    6    8      1.22      0.00
   16    6    8      4.54      0.00
   17    6    8     -1.18      0.00
   18    6    8     -0.54      0.00
   19    6    8     -0.27      0.00
   20    6    8     -0.62      0.00
   21    6    8     -1.27      0.00
  -10    7    8     -3.57      0.00
   -9    7    8      5.01      0.00
   -8    7    8      2.54      0.00
   -7    7    8     -4.09      0.00
   -6    7    8      1.07      0.00
   -5    7    8     -2.16      0.00
   -4    7    8     -1.64      0.00
   -3    7    8     11.27      0.00
   -2    7    8      0.24      0.00
   -1    7    8     -5.24      0.00
    0    7    8     -1.61      0.00
    1    7    8    -10.50      0.00
    2    7    8     16.79      0.00
    3    7    8     24.09      0.00
    4    7    8     -3.20      0.00
    5    7    8     -7.68      0.00
    6    7    8      2.34      0.00
    7    7    8    -14.84      0.00
    8    7    8     -1.73      0.00
    9    7    8     19.60      0.00
   10    7    8    -18.34      0.00
   11    7    8      1.05      0.00
   12    7    8    -10.54      0.00
   13    7    8     -5.43      0.00
   14    7    8     -6.53      0.00
   15    7    8      3.47      0.00
   16    7    8     -3.69      0.00
   17    7    8     -0.98      0.00
   18    7    8     -3.23      0.00
   19    7    8      1.56      0.00
   20    7    8     -6.13      0.00
   21    7    8     -2.36      0.00
  -10    8    8     -1.50      0.00
   -9    8    8     -3.67      0.00
   -8    8    8     -4.40      0.00
   -7    8    8      1.98      0.00
   -6    8    8      1.36      0.00
   -5    8    8     -1.24      0.00
   -4    8    8      3.90      0.00
   -3    8    8     -1.34      0.00
   -2    8    8     -2.85      0.00
   -1    8    8      3.57      0.00
    0    8    8      1.71      0.00
    1    8    8     -8.61      0.00
    2    8    8      8.15      0.00
    3    8    8     -1.93      0.00
    4    8    8      5.83      0.00
    5    8    8     11.69      0.00
    6    8    8     -7.59      0.00
    7    8    8     -6.13      0.00
    8    8    8     -5.04      0.00
    9    8    8      1.57      0.00
   10    8    8     -2.18      0.00
   11    8    8     -0.76      0.00
   12    8    8     -5.93      0.00
   13    8    8      3.60      0.00
   14    8    8     -6.72      0.00
   15    8    8     -4.00      0.00
   16    8    8      2.38      0.00
   17    8    8      0.78      0.00
   18    8    8     -0.27      0.00
   19    8    8     -2.19      0.00
   20    8    8      1.95      0.00
   21    8    8     -3.77      0.00
   -9    9    8     -4.58      0.00
   -8    9    8      0.05      0.00
   -7    9    8     -3.24      0.00
   -6    9    8     -1.92      0.00
   -5    9    8      1.40      0.00
   -4    9    8     -0.63      0.00
   -3    9    8     -0.20      0.00
   -2    9    8      6.40      0.00
   -1    9    8    -12.48      0.00
    0    9    8      1.00      0.00
    1    9    8     -5.11      0.00
    2    9    8     10.23      0.00
    3    9    8     -4.69      0.00
    4    9    8     10.34      0.00
    5    9    8     -9.29      0.00
    6    9    8     13.24      0.00
    7    9    8     -0.45      0.00
    8    9    8     -5.55      0.00
    9    9    8     -2.21      0.00
   10    9    8    -11.75      0.00
   11    9    8      5.40      0.00
   12    9    8     -4.27      0.00
   13    9    8      5.86      0.00
   14    9    8     -2.12      0.00
   15    9    8     -1.14      0.00
   16    9    8     -7.54      0.00
   17    9    8     -0.27      0.00
   18    9    8    -12.36      0.00
   19    9    8     -3.13      0.00
   20    9    8      3.71      0.00
   21    9    8     -2.16      0.00
   -8   10    8      0.29      0.00
   -7   10    8     -2.70      0.00
   -6   10    8      1.18      0.00
   -5   10    8     -5.28      0.00
   -4   10    8      1.95      0.00
   -3   10    8      4.75      0.00
   -2   10    8      0.44      0.00
   -1   10    8     -0.64      0.00
    0   10    8      5.88      0.00
    1   10    8    -13.91      0.00
    2   10    8      2.88      0.00
    3   10    8     -6.93      0.00
    4   10    8     -5.30      0.00
    5   10    8      1.46      0.00
    6   10    8     -7.59      0.00
    7   10    8      8.48      0.00
    8   10    8      7.12      0.00
    9   10    8      8.02      0.00
   10   10    8     -6.76      0.00
   11   10    8      8.28      0.00
   12   10    8     -9.57      0.00
   13   10    8     -2.45      0.00
   14   10    8      4.07      0.00
   15   10    8     -4.49      0.00
   16   10    8     -0.24      0.00
   17   10    8     -7.34      0.00
   18   10    8     -2.07      0.00
   19   10    8    -15.56      0.00
   20   10    8      4.22      0.00
   21   10    8      0.93      0.00
   -7   11    8     -2.94      0.00
   -6   11    8     -4.51      0.00
   -5   11    8     -1.20      0.00
   -4   11    8     -2.00      0.00
   -3   11    8     -6.70      0.00
   -2   11    8     -3.54      0.00
   -1   11    8      0.21      0.00
    0   11    8      0.35      0.00
    1   11    8     -0.28      0.00
    2   11    8      2.93      0.00
    3   11    8    -10.60      0.00
    4   11    8     -5.64      0.00
    5   11    8    -16.05      0.00
    6   11    8    -10.07      0.00
    7   11    8      5.60      0.00
    8   11    8      2.82      0.00
    9   11    8     -0.07      0.00
   10   11    8     -6.70      0.00
   11   11    8      7.05      0.00
   12   11    8      0.62      0.00
   13   11    8     -2.40      0.00
   14   11    8     -1.25      0.00
   15   11    8     -1.11      0.00
   16   11    8     -2.99      0.00
   17   11    8     -2.71      0.00
   18   11    8     -4.25      0.00
   19   11    8     -3.16      0.00
   20   11    8      4.48      0.00
   21   11    8     -0.50      0.00
   -6   12    8      4.12      0.00
   -5   12    8     -6.11      0.00
   -4   12    8     -5.45      0.00
   -3   12    8      4.36      0.00
   -2   12    8      1.13      0.00
   -1   12    8      1.00      0.00
    0   12    8     -2.02      0.00
    1   12    8     -2.76      0.00
    2   12    8     -0.01      0.00
    3   12    8      1.98      0.00
    4   12    8     -2.41      0.00
    5   12    8      0.83      0.00
    6   12    8    -14.19      0.00
    7   12    8     -9.66      0.00
    8   12    8     -4.47      0.00
    9   12    8      8.25      0.00
   10   12    8     -1.18      0.00
   11   12    8      0.82      0.00
   12   12    8     -3.49      0.00
   13   12    8     -7.18      0.00
   14   12    8      2.59      0.00
   15   12    8     -9.35      0.00
   16   12    8     -2.97      0.00
   17   12    8     -0.67      0.00
   18   12    8     -4.69      0.00
   19   12    8    -10.61      0.00
   20   12    8      0.86      0.00
   21   12    8     -1.52      0.00
   -5   13    8      1.89      0.00
   -4   13    8      3.08      0.00
   -3   13    8     -2.15      0.00
   -2   13    8     -3.50      0.00
   -1   13    8     10.11      0.00
    0   13    8      1.02      0.00
    1   13    8      8.25      0.00
    2   13    8     -3.42      0.00
    3   13    8     -3.53      0.00
    4   13    8     -7.43      0.00
    5   13    8      0.63      0.00
    6   13    8     -7.88      0.00
    7   13    8     -2.89      0.00
    8   13    8     -5.05      0.00
    9   13    8     -5.23      0.00
   10   13    8      1.49      0.00
   11   13    8      1.15      0.00
   12   13    8      9.08      0.00
   13   13    8     -3.30      0.00
   14   13    8     -0.10      0.00
   15   13    8     -5.64      0.00
   16   13    8     -0.14      0.00
   17   13    8      0.58      0.00
   18   13    8     -6.56      0.00
   19   13    8      3.60      0.00
   20   13    8     -5.62      0.00
   21   13    8      1.94      0.00
   -4   14    8     -0.37      0.00
   -3   14    8      9.97      0.00
   -2   14    8      1.16      0.00
   -1   14    8      6.38      0.00
    0   14    8      1.39      0.00
    1   14    8      8.78      0.00
    2   14    8      0.43      0.00
    3   14    8      5.70      0.00
    4   14    8     -3.82      0.00
    5   14    8      0.09      0.00
    6   14    8     -1.75      0.00
    7   14    8      2.39      0.00
    8   14    8     -2.00      0.00
    9   14    8     -0.65      0.00
   10   14    8      2.11      0.00
   11   14    8     -7.38      0.00
   12   14    8     -1.10      0.00
   13   14    8     -4.58      0.00
   14   14    8     -6.70      0.00
   15   14    8     -5.91      0.00
   16   14    8     -9.17      0.00
   17   14    8      1.93      0.00
   18   14    8     -3.31      0.00
   19   14    8     -1.96      0.00
   20   14    8     -8.14      0.00
   21   14    8      1.66      0.00
   -3   15    8     -3.78      0.00
   -2   15    8     -4.48      0.00
   -1   15    8      6.29      0.00
    0   15    8      9.65      0.00
    1   15    8      0.31      0.00
    2   15    8      5.14      0.00
    3   15    8      1.23      0.00
    4   15    8      0.25      0.00
    5   15    8      2.90      0.00
    6   15    8     -1.16      0.00
    7   15    8      7.33      0.00
    8   15    8      1.00      0.00
    9   15    8      0.99      0.00
   10   15    8      3.80      0.00
   11   15    8     -3.38      0.00
   12   15    8     -4.64      0.00
   13   15    8     -0.73      0.00
   14   15    8      3.32      0.00
   15   15    8      0.16      0.00
   16   15    8      1.19      0.00
   17   15    8      1.89      0.00
   18   15    8     -1.40      0.00
   19   15    8     15.77      0.00
   20   15    8      2.49      0.00
   21   15    8      9.99      0.00
   -2   16    8      1.76      0.00
   -1   16    8      4.83      0.00
    0   16    8      3.75      0.00
    1   16    8      4.10      0.00
    2   16    8      4.79      0.00
    3   16    8      2.45      0.00
    4   16    8     -0.11      0.00
    5   16    8      4.83      0.00
    6   16    8      2.70      0.00
    7   16    8      0.17      0.00
    8   16    8     -4.53      0.00
    9   16    8     -4.92      0.00
   10   16    8      6.97      0.00
   11   16    8     -1.36      0.00
   12   16    8      0.62      0.00
   13   16    8     -2.19      0.00
   14   16    8     -3.34      0.00
   15   16    8     -0.13      0.00
   16   16    8      1.38      0.00
   17   16    8      3.83      0.00
   18   16    8      6.05      0.00
   20   16    8     -1.48      0.00
   -1   17    8      4.46      0.00
    0   17    8      4.57      0.00
    1   17    8     -0.50      0.00
    2   17    8     11.45      0.00
    3   17    8      3.32      0.00
    4   17    8      0.46      0.00
    5   17    8      0.93      0.00
    6   17    8     -3.05      0.00
    7   17    8      1.90      0.00
    8   17    8      0.26      0.00
    9   17    8      2.77      0.00
   10   17    8      2.45      0.00
   11   17    8      5.53      0.00
   12   17    8     -5.55      0.00
   13   17    8      8.31      0.00
   14   17    8      9.07      0.00
   15   17    8      4.17      0.00
   16   17    8     -1.62      0.00
   17   17    8      3.75      0.00
   18   17    8      5.22      0.00
   19   17    8      8.10      0.00
   20   17    8      0.85      0.00
    1   18    8      1.12      0.00
    2   18    8      2.38      0.00
    3   18    8      1.08      0.00
    4   18    8      1.17      0.00
    5   18    8      7.78      0.00
    6   18    8     -4.78      0.00
    7   18    8     10.36      0.00
    8   18    8     -3.14      0.00
    9   18    8      4.32      0.00
   10   18    8      1.88      0.00
   11   18    8      2.79      0.00
   12   18    8      1.35      0.00
   13   18    8      9.23      0.00
   14   18    8      4.29      0.00
   15   18    8     -1.02      0.00
   16   18    8      1.07      0.00
   17   18    8      2.24      0.00
   18   18    8      4.53      0.00
   19   18    8      1.54      0.00
    3   19    8      1.85      0.00
    4   19    8     -3.87      0.00
    5   19    8      2.97      0.00
    6   19    8      1.36      0.00
    7   19    8      7.08      0.00
    8   19    8     -2.39      0.00
    9   19    8      6.16      0.00
   10   19    8      4.71      0.00
   11   19    8     -1.33      0.00
   12   19    8     -8.03      0.00
   13   19    8      2.62      0.00
   14   19    8      8.50      0.00
   15   19    8      4.20      0.00
   16   19    8      5.09      0.00
   17   19    8      4.48      0.00
   18   19    8     -1.09      0.00
    5   20    8      4.40      0.00
    6   20    8     -2.74      0.00
    7   20    8      5.18      0.00
    8   20    8      1.40      0.00
    9   20    8      4.12      0.00
   10   20    8      6.31      0.00
   11   20    8     -5.89      0.00
   12   20    8     -5.80      0.00
   13   20    8     -1.49      0.00
   14   20    8      1.60      0.00
   15   20    8     -2.13      0.00
   16   20    8      4.86      0.00
   17   20    8      6.92      0.00
    8   21    8      0.63      0.00
    9   21    8     -2.67      0.00
   10   21    8      0.00      0.00
   11   21    8      0.40      0.00
   12   21    8     -0.25      0.00
   13   21    8     -3.12      0.00
   14   21    8      2.25      0.00
   15   21    8     -3.92      0.00
  -11  -20    9      0.14      0.00
  -10  -20    9      3.63      0.00
   -9  -20    9      2.71      0.00
   -8  -20    9     -1.57      0.00
   -7  -20    9     -0.74      0.00
   -6  -20    9     -1.42      0.00
   -5  -20    9      4.52      0.00
   -4  -20    9     -0.98      0.00
   -3  -20    9      2.04      0.00
   -2  -20    9      3.08      0.00
  -12  -19    9     -1.46      0.00
  -11  -19    9     -0.51      0.00
  -10  -19    9      4.83      0.00
   -9  -19    9     -1.52      0.00
   -8  -19    9      1.28      0.00
   -7  -19    9      1.90      0.00
   -6  -19    9      2.07      0.00
   -5  -19    9      3.38      0.00
   -4  -19    9      1.26      0.00
   -3  -19    9      2.28      0.00
   -2  -19    9      4.21      0.00
   -1  -19    9     -1.56      0.00
    0  -19    9      4.61      0.00
    1  -19    9     -2.35      0.00
  -13  -18    9      2.81      0.00
  -12  -18    9     -5.95      0.00
  -11  -18    9      2.88      0.00
  -10  -18    9     -2.86      0.00
   -9  -18    9      1.20      0.00
   -8  -18    9     -3.34      0.00
   -7  -18    9     -1.36      0.00
   -6  -18    9     -6.02      0.00
   -5  -18    9     -1.37      0.00
   -4  -18    9      1.12      0.00
   -3  -18    9      1.59      0.00
   -2  -18    9      2.15      0.00
   -1  -18    9      1.71      0.00
    0  -18    9      1.86      0.00
    1  -18    9     -0.01      0.00
    2  -18    9      0.43      0.00
    3  -18    9      2.28      0.00
  -14  -17    9     -3.94      0.00
  -13  -17    9      3.45      0.00
  -12  -17    9     -1.26      0.00
  -11  -17    9      3.67      0.00
  -10  -17    9     -2.61      0.00
   -9  -17    9     -4.13      0.00
   -8  -17    9     -0.44      0.00
   -7  -17    9     -0.72      0.00
   -6  -17    9      3.78      0.00
   -5  -17    9     -1.13      0.00
   -4  -17    9      2.69      0.00
   -3  -17    9     -0.12      0.00
   -2  -17    9     -2.59      0.00
   -1  -17    9     -0.95      0.00
    0  -17    9      2.89      0.00
    1  -17    9     -1.32      0.00
    2  -17    9     -1.56      0.00
    3  -17    9      0.11      0.00
    4  -17    9      5.37      0.00
  -15  -16    9      2.44      0.00
  -14  -16    9     -2.58      0.00
  -13  -16    9      3.09      0.00
  -12  -16    9     -2.59      0.00
  -11  -16    9     -1.81      0.00
  -10  -16    9     -3.67      0.00
   -9  -16    9      1.51      0.00
   -8  -16    9     -0.59      0.00
   -7  -16    9     -3.22      0.00
   -6  -16    9     -2.13      0.00
   -5  -16    9     -4.63      0.00
   -4  -16    9     -1.24      0.00
   -3  -16    9     -3.75      0.00
   -2  -16    9      0.74      0.00
   -1  -16    9     -0.60      0.00
    0  -16    9     -1.49      0.00
    1  -16    9      5.32      0.00
    2  -16    9     -0.40      0.00
    3  -16    9      2.67      0.00
    4  -16    9     -5.28      0.00
    5  -16    9     -0.78      0.00
    6  -16    9     -5.18      0.00
  -15  -15    9      5.99      0.00
  -14  -15    9     -1.62      0.00
  -13  -15    9      3.36      0.00
  -12  -15    9     -1.67      0.00
  -11  -15    9     -4.86      0.00
  -10  -15    9     -3.15      0.00
   -9  -15    9      0.89      0.00
   -8  -15    9      4.84      0.00
   -7  -15    9     -1.97      0.00
   -6  -15    9      3.82      0.00
   -5  -15    9     -1.35      0.00
   -4  -15    9      3.71      0.00
   -3  -15    9     -0.59      0.00
   -2  -15    9     -2.59      0.00
   -1  -15    9     -3.94      0.00
    0  -15    9     -7.23      0.00
    1  -15    9     -3.67      0.00
    2  -15    9     -5.00      0.00
    3  -15    9     -2.18      0.00
    4  -15    9     -4.20      0.00
    5  -15    9      1.40      0.00
    6  -15    9     -3.46      0.00
    7  -15    9     -0.85      0.00
  -16  -14    9     -1.71      0.00
  -15  -14    9      2.73      0.00
  -14  -14    9      2.40      0.00
  -13  -14    9      5.89      0.00
  -12  -14    9     -0.04      0.00
  -11  -14    9      1.45      0.00
  -10  -14    9     -2.85      0.00
   -9  -14    9     -3.51      0.00
   -8  -14    9      0.91      0.00
   -7  -14    9      0.58      0.00
   -6  -14    9     -2.39      0.00
   -5  -14    9     -0.50      0.00
   -4  -14    9     -1.01      0.00
   -3  -14    9     -6.83      0.00
   -2  -14    9      1.03      0.00
   -1  -14    9     -1.79      0.00
    0  -14    9      4.55      0.00
    1  -14    9      1.42      0.00
    2  -14    9     -2.36      0.00
    3  -14    9     -1.78      0.00
    4  -14    9     -1.49      0.00
    5  -14    9     -4.70      0.00
    6  -14    9     -3.04      0.00
    7  -14    9      0.32      0.00
    8  -14    9      0.34      0.00
  -16  -13    9     -2.50      0.00
  -15  -13    9     -2.24      0.00
  -14  -13    9      1.49      0.00
  -13  -13    9     -0.12      0.00
  -12  -13    9      0.13      0.00
  -11  -13    9     -0.52      0.00
  -10  -13    9      5.77      0.00
   -9  -13    9     -0.90      0.00
   -8  -13    9      4.33      0.00
   -7  -13    9     -4.53      0.00
   -6  -13    9     -3.60      0.00
   -5  -13    9     -6.08      0.00
   -4  -13    9      7.84      0.00
   -3  -13    9     -2.23      0.00
   -2  -13    9      0.29      0.00
   -1  -13    9     -8.83      0.00
    0  -13    9     -3.49      0.00
    1  -13    9      2.59      0.00
    2  -13    9      6.86      0.00
    3  -13    9     -0.86      0.00
    4  -13    9      4.42      0.00
    5  -13    9      0.78      0.00
    6  -13    9     -4.65      0.00
    7  -13    9      1.02      0.00
    8  -13    9     -1.34      0.00
    9  -13    9     -4.63      0.00
   10  -13    9     -3.44      0.00
  -16  -12    9     -0.82      0.00
  -15  -12    9      3.28      0.00
  -14  -12    9      5.98      0.00
  -13  -12    9      2.19      0.00
  -12  -12    9      0.39      0.00
  -11  -12    9      3.19      0.00
  -10  -12    9      4.99      0.00
   -9  -12    9     -2.17      0.00
   -8  -12    9      0.10      0.00
   -7  -12    9      2.93      0.00
   -6  -12    9      6.65      0.00
   -5  -12    9      2.66      0.00
   -4  -12    9      0.37      0.00
   -3  -12    9     -3.19      0.00
   -2  -12    9      4.33      0.00
   -1  -12    9      5.17      0.00
    0  -12    9     12.07      0.00
    1  -12    9      0.61      0.00
    2  -12    9      1.09      0.00
    3  -12    9      1.04      0.00
    4  -12    9      8.31      0.00
    5  -12    9     -2.36      0.00
    6  -12    9      6.01      0.00
    7  -12    9     -2.93      0.00
    8  -12    9      3.48      0.00
    9  -12    9      0.26      0.00
   10  -12    9     -1.12      0.00
   11  -12    9     -7.06      0.00
  -16  -11    9     -5.12      0.00
  -15  -11    9      0.96      0.00
  -14  -11    9      5.17      0.00
  -13  -11    9     -3.74      0.00
  -12  -11    9      2.17      0.00
  -11  -11    9      2.78      0.00
  -10  -11    9      3.89      0.00
   -9  -11    9      1.43      0.00
   -8  -11    9      2.11      0.00
   -7  -11    9     -0.33      0.00
   -6  -11    9      0.59      0.00
   -5  -11    9     -2.40      0.00
   -4  -11    9      1.24      0.00
   -3  -11    9     -0.43      0.00
   -2  -11    9      7.06      0.00
   -1  -11    9     -6.57      0.00
    0  -11    9      7.40      0.00
    1  -11    9     -2.00      0.00
    2  -11    9      7.23      0.00
    3  -11    9     -3.01      0.00
    4  -11    9      0.45      0.00
    5  -11    9      0.40      0.00
    6  -11    9     -0.14      0.00
    7  -11    9      2.12      0.00
    8  -11    9     -1.46      0.00
    9  -11    9     -5.24      0.00
   10  -11    9     -4.83      0.00
   11  -11    9      0.78      0.00
   12  -11    9      0.49      0.00
  -16  -10    9      3.82      0.00
  -15  -10    9      4.65      0.00
  -14  -10    9      1.38      0.00
  -13  -10    9     -1.09      0.00
  -12  -10    9     -0.71      0.00
  -11  -10    9     -2.17      0.00
  -10  -10    9     -3.79      0.00
   -9  -10    9     -0.66      0.00
   -8  -10    9     -2.82      0.00
   -7  -10    9     -2.67      0.00
   -6  -10    9      4.89      0.00
   -5  -10    9      3.01      0.00
   -4  -10    9     -4.18      0.00
   -3  -10    9     -8.33      0.00
   -2  -10    9      4.64      0.00
   -1  -10    9     -4.94      0.00
    0  -10    9      0.57      0.00
    1  -10    9      0.66      0.00
    2  -10    9     -3.90      0.00
    3  -10    9      1.68      0.00
    4  -10    9      2.91      0.00
    5  -10    9     -6.65      0.00
    6  -10    9     -1.32      0.00
    7  -10    9     -3.72      0.00
    8  -10    9      2.30      0.00
    9  -10    9      3.45      0.00
   10  -10    9     -0.70      0.00
   11  -10    9      0.87      0.00
   12  -10    9     -1.39      0.00
  -16   -9    9      0.29      0.00
  -15   -9    9      2.67      0.00
  -14   -9    9      1.34      0.00
  -13   -9    9     -9.24      0.00
  -12   -9    9      1.20      0.00
  -11   -9    9      2.49      0.00
  -10   -9    9     -0.31      0.00
   -9   -9    9     -1.38      0.00
   -8   -9    9      3.64      0.00
   -7   -9    9     -3.07      0.00
   -6   -9    9     -0.48      0.00
   -5   -9    9      0.23      0.00
   -4   -9    9    -10.71      0.00
   -3   -9    9    -10.16      0.00
   -2   -9    9      7.32      0.00
   -1   -9    9     -1.15      0.00
    0   -9    9      6.10      0.00
    1   -9    9     -2.78      0.00
    2   -9    9      4.72      0.00
    3   -9    9    -12.46      0.00
    4   -9    9      0.29      0.00
    5   -9    9      1.23      0.00
    6   -9    9      8.38      0.00
    7   -9    9      1.65      0.00
    8   -9    9     -7.78      0.00
    9   -9    9     -2.52      0.00
   10   -9    9     -4.84      0.00
   11   -9    9      7.44      0.00
   12   -9    9     -0.96      0.00
   13   -9    9      2.68      0.00
  -16   -8    9      6.39      0.00
  -15   -8    9      4.63      0.00
  -14   -8    9      5.08      0.00
  -13   -8    9     -5.16      0.00
  -12   -8    9     -2.63      0.00
  -11   -8    9     -6.81      0.00
  -10   -8    9     -2.57      0.00
   -9   -8    9      1.90      0.00
   -8   -8    9      9.09      0.00
   -7   -8    9     -5.08      0.00
   -6   -8    9     -7.79      0.00
   -5   -8    9      1.43      0.00
   -4   -8    9     13.36      0.00
   -3   -8    9     -9.85      0.00
   -2   -8    9      7.13      0.00
   -1   -8    9    -11.03      0.00
    0   -8    9     -5.78      0.00
    1   -8    9      8.15      0.00
    2   -8    9      6.66      0.00
    3   -8    9      3.77      0.00
    4   -8    9     -0.99      0.00
    5   -8    9      6.08      0.00
    6   -8    9     -8.46      0.00
    7   -8    9      8.63      0.00
    8   -8    9      2.64      0.00
    9   -8    9      3.94      0.00
   10   -8    9      1.45      0.00
   11   -8    9     -3.73      0.00
   12   -8    9     -4.07      0.00
   13   -8    9      0.23      0.00
   14   -8    9      2.84      0.00
  -16   -7    9     -4.10      0.00
  -15   -7    9      0.93      0.00
  -14   -7    9     -0.41      0.00
  -13   -7    9     -3.13      0.00
  -12   -7    9      4.64      0.00
  -11   -7    9      2.03      0.00
  -10   -7    9      6.11      0.00
   -9   -7    9     -3.74      0.00
   -8   -7    9      6.48      0.00
   -7   -7    9      0.79      0.00
   -6   -7    9     11.41      0.00
   -5   -7    9     -4.66      0.00
   -4   -7    9     -1.72      0.00
   -3   -7    9    -13.59      0.00
   -2   -7    9     13.44      0.00
   -1   -7    9      8.94      0.00
    0   -7    9     12.47      0.00
    1   -7    9     -3.80      0.00
    2   -7    9    -12.28      0.00
    3   -7    9     -4.38      0.00
    4   -7    9     -4.17      0.00
    5   -7    9      3.36      0.00
    6   -7    9      9.61      0.00
    7   -7    9     -5.23      0.00
    8   -7    9     -4.18      0.00
    9   -7    9      2.73      0.00
   10   -7    9     -0.73      0.00
   11   -7    9      1.51      0.00
   12   -7    9      3.77      0.00
   13   -7    9      0.89      0.00
   14   -7    9     -0.85      0.00
   15   -7    9      3.24      0.00
  -16   -6    9      0.61      0.00
  -15   -6    9      8.40      0.00
  -14   -6    9     -4.93      0.00
  -13   -6    9     -6.35      0.00
  -12   -6    9     -5.49      0.00
  -11   -6    9      0.13      0.00
  -10   -6    9      2.98      0.00
   -9   -6    9      4.34      0.00
   -8   -6    9      4.63      0.00
   -7   -6    9    -13.53      0.00
   -6   -6    9      2.59      0.00
   -5   -6    9     -9.97      0.00
   -4   -6    9     23.30      0.00
   -3   -6    9     -1.59      0.00
   -2   -6    9     14.05      0.00
   -1   -6    9    -19.09      0.00
    0   -6    9     -4.12      0.00
    1   -6    9     -8.71      0.00
    2   -6    9      5.60      0.00
    3   -6    9      1.28      0.00
    4   -6    9    -20.62      0.00
    5   -6    9      6.45      0.00
    6   -6    9    -23.12      0.00
    7   -6    9     10.04      0.00
    8   -6    9     -3.58      0.00
    9   -6    9      1.57      0.00
   10   -6    9      0.64      0.00
   11   -6    9     -3.32      0.00
   12   -6    9     -5.59      0.00
   13   -6    9      2.98      0.00
   14   -6    9     -2.29      0.00
   15   -6    9     -3.25      0.00
  -16   -5    9      1.06      0.00
  -15   -5    9      3.42      0.00
  -14   -5    9     -3.12      0.00
  -13   -5    9     -1.54      0.00
  -12   -5    9      2.84      0.00
  -11   -5    9     -0.91      0.00
  -10   -5    9      6.78      0.00
   -9   -5    9      1.31      0.00
   -8   -5    9      3.30      0.00
   -7   -5    9    -13.13      0.00
   -6   -5    9     15.46      0.00
   -5   -5    9    -20.69      0.00
   -4   -5    9      2.76      0.00
   -3   -5    9    -13.34      0.00
   -2   -5    9     21.67      0.00
   -1   -5    9     -7.20      0.00
    0   -5    9      6.21      0.00
    1   -5    9      3.43      0.00
    2   -5    9    -24.84      0.00
    3   -5    9     10.60      0.00
    4   -5    9    -11.64      0.00
    5   -5    9     -8.15      0.00
    6   -5    9    -12.62      0.00
    7   -5    9     -8.75      0.00
    8   -5    9     -7.76      0.00
    9   -5    9      3.23      0.00
   10   -5    9      3.77      0.00
   11   -5    9     -3.38      0.00
   12   -5    9      4.92      0.00
   13   -5    9      0.41      0.00
   14   -5    9     -4.15      0.00
   15   -5    9     -2.10      0.00
   16   -5    9      1.03      0.00
  -15   -4    9      3.89      0.00
  -14   -4    9     -5.64      0.00
  -13   -4    9     -1.44      0.00
  -12   -4    9      0.45      0.00
  -11   -4    9     -4.54      0.00
  -10   -4    9      2.59      0.00
   -9   -4    9     -1.19      0.00
   -8   -4    9      1.84      0.00
   -7   -4    9    -11.08      0.00
   -6   -4    9     16.50      0.00
   -5   -4    9    -21.29      0.00
   -4   -4    9      6.60      0.00
   -3   -4    9     10.95      0.00
   -2   -4    9      6.43      0.00
   -1   -4    9    -15.98      0.00
    0   -4    9     13.94      0.00
    1   -4    9     -7.18      0.00
    2   -4    9      7.88      0.00
    3   -4    9      1.15      0.00
    4   -4    9    -16.00      0.00
    5   -4    9     16.57      0.00
    6   -4    9      7.39      0.00
    7   -4    9     -2.35      0.00
    8   -4    9     -5.47      0.00
    9   -4    9     -3.12      0.00
   10   -4    9    -12.53      0.00
   11   -4    9      7.09      0.00
   12   -4    9     -1.28      0.00
   13   -4    9      5.47      0.00
   14   -4    9     -2.53      0.00
   15   -4    9     -5.96      0.00
   16   -4    9      3.81      0.00
   17   -4    9     -2.52      0.00
  -15   -3    9     -0.96      0.00
  -14   -3    9      3.46      0.00
  -13   -3    9     -1.34      0.00
  -12   -3    9     10.18      0.00
  -11   -3    9     -6.73      0.00
  -10   -3    9      5.70      0.00
   -9   -3    9     -1.06      0.00
   -8   -3    9     -0.03      0.00
   -7   -3    9     -7.40      0.00
   -6   -3    9     19.31      0.00
   -5   -3    9    -12.74      0.00
   -4   -3    9     10.81      0.00
   -3   -3    9     -2.21      0.00
   -2   -3    9     21.31      0.00
   -1   -3    9    -14.35      0.00
    0   -3    9     -3.13      0.00
    1   -3    9     20.00      0.00
    2   -3    9     10.45      0.00
    3   -3    9     28.93      0.00
    4   -3    9      3.59      0.00
    5   -3    9     -0.62      0.00
    6   -3    9    -24.39      0.00
    7   -3    9      8.35      0.00
    8   -3    9      0.17      0.00
    9   -3    9      0.38      0.00
   10   -3    9      5.81      0.00
   11   -3    9    -10.32      0.00
   12   -3    9      0.64      0.00
   13   -3    9      3.75      0.00
   14   -3    9      0.04      0.00
   15   -3    9     -1.59      0.00
   16   -3    9      4.78      0.00
   17   -3    9     -6.84      0.00
  -15   -2    9      2.07      0.00
  -14   -2    9      1.76      0.00
  -13   -2    9     -1.84      0.00
  -12   -2    9     -3.50      0.00
  -11   -2    9     -0.42      0.00
  -10   -2    9      8.55      0.00
   -9   -2    9     -0.49      0.00
   -8   -2    9      1.80      0.00
   -7   -2    9     -0.40      0.00
   -6   -2    9     16.66      0.00
   -5   -2    9      2.22      0.00
   -4   -2    9      8.14      0.00
   -3   -2    9      3.15      0.00
   -2   -2    9      1.70      0.00
   -1   -2    9     -4.25      0.00
    0   -2    9     24.41      0.00
    1   -2    9     -1.18      0.00
    2   -2    9     -4.33      0.00
    3   -2    9     -5.52      0.00
    4   -2    9      8.15      0.00
    5   -2    9     13.53      0.00
    6   -2    9     49.38      0.00
    7   -2    9    -21.52      0.00
    8   -2    9     -7.12      0.00
    9   -2    9      0.28      0.00
   10   -2    9    -14.34      0.00
   11   -2    9      4.05      0.00
   12   -2    9     -6.76      0.00
   13   -2    9      2.49      0.00
   14   -2    9     -3.13      0.00
   15   -2    9     -3.01      0.00
   16   -2    9     -2.21      0.00
   17   -2    9     -1.54      0.00
   18   -2    9      2.76      0.00
  -14   -1    9      4.76      0.00
  -13   -1    9      0.22      0.00
  -12   -1    9     -2.24      0.00
  -11   -1    9     -7.01      0.00
  -10   -1    9      8.21      0.00
   -9   -1    9     -3.43      0.00
   -8   -1    9     -1.91      0.00
   -7   -1    9      3.36      0.00
   -6   -1    9      2.36      0.00
   -5   -1    9     -2.80      0.00
   -4   -1    9     28.11      0.00
   -3   -1    9      6.14      0.00
   -2   -1    9      4.61      0.00
   -1   -1    9    -10.46      0.00
    0   -1    9     -7.73      0.00
    1   -1    9    -21.61      0.00
    2   -1    9     53.38      0.00
    3   -1    9      7.24      0.00
    4   -1    9      7.10      0.00
    5   -1    9     -9.60      0.00
    6   -1    9    -15.01      0.00
    7   -1    9      8.62      0.00
    8   -1    9     19.70      0.00
    9   -1    9      1.87      0.00
   10   -1    9     -2.68      0.00
   11   -1    9     -0.77      0.00
   12   -1    9     -0.55      0.00
   13   -1    9      5.10      0.00
   14   -1    9     -1.33      0.00
   15   -1    9     -4.44      0.00
   16   -1    9      4.24      0.00
   17   -1    9     -1.54      0.00
   18   -1    9     -2.04      0.00
  -14    0    9     -2.17      0.00
  -13    0    9     -3.21      0.00
  -12    0    9      0.95      0.00
  -11    0    9      5.88      0.00
  -10    0    9      1.59      0.00
   -9    0    9     -2.37      0.00
   -8    0    9     -1.66      0.00
   -7    0    9      9.90      0.00
   -6    0    9     10.01      0.00
   -5    0    9     -4.84      0.00
   -4    0    9      6.73      0.00
   -3    0    9     -2.06      0.00
   -2    0    9     13.66      0.00
   -1    0    9      2.25      0.00
    0    0    9     25.20      0.00
    1    0    9    -17.60      0.00
    2    0    9     -2.99      0.00
    3    0    9    -15.67      0.00
    4    0    9     27.75      0.00
    5    0    9      1.17      0.00
    6    0    9     55.90      0.00
    7    0    9    -11.90      0.00
    8    0    9     -1.13      0.00
    9    0    9      8.54      0.00
   10    0    9      4.64      0.00
   11    0    9      0.91      0.00
   12    0    9      2.39      0.00
   13    0    9      3.09      0.00
   14    0    9     -6.53      0.00
   15    0    9     10.38      0.00
   16    0    9     -1.73      0.00
   17    0    9      1.25      0.00
   18    0    9      1.39      0.00
   19    0    9      2.08      0.00
  -13    1    9     -2.05      0.00
  -12    1    9      2.73      0.00
  -11    1    9     -3.92      0.00
  -10    1    9      6.75      0.00
   -9    1    9     -3.01      0.00
   -8    1    9     -3.34      0.00
   -7    1    9     -2.91      0.00
   -6    1    9      8.26      0.00
   -5    1    9      0.19      0.00
   -4    1    9     22.60      0.00
   -3    1    9     -1.06      0.00
   -2    1    9     -2.83      0.00
   -1    1    9      1.45      0.00
    0    1    9     28.83      0.00
    1    1    9    -26.38      0.00
    2    1    9     44.81      0.00
    3    1    9     -7.52      0.00
    4    1    9      3.87      0.00
    5    1    9      0.49      0.00
    6    1    9     17.86      0.00
    7    1    9      8.36      0.00
    8    1    9     24.32      0.00
    9    1    9     14.73      0.00
   10    1    9     -5.19      0.00
   11    1    9     14.93      0.00
   12    1    9     -1.84      0.00
   13    1    9      2.70      0.00
   14    1    9      2.08      0.00
   15    1    9     -3.19      0.00
   16    1    9      0.60      0.00
   17    1    9     -0.23      0.00
   18    1    9     -3.03      0.00
   19    1    9      0.63      0.00
  -13    2    9      0.55      0.00
  -12    2    9     -1.08      0.00
  -11    2    9     -5.27      0.00
  -10    2    9     -3.84      0.00
   -9    2    9     -8.37      0.00
   -8    2    9     -0.86      0.00
   -7    2    9      6.35      0.00
   -6    2    9      5.85      0.00
   -5    2    9    -11.57      0.00
   -4    2    9     15.47      0.00
   -3    2    9     -9.85      0.00
   -2    2    9     20.58      0.00
   -1    2    9     -2.98      0.00
    0    2    9      7.21      0.00
    1    2    9      6.64      0.00
    2    2    9     18.21      0.00
    3    2    9    -11.26      0.00
    4    2    9     20.31      0.00
    5    2    9      5.23      0.00
    6    2    9     -0.43      0.00
    7    2    9      2.19      0.00
    8    2    9      3.38      0.00
    9    2    9      5.41      0.00
   10    2    9     16.53      0.00
   11    2    9     -6.45      0.00
   12    2    9     -0.27      0.00
   13    2    9     -2.06      0.00
   14    2    9     -4.44      0.00
   15    2    9     11.15      0.00
   16    2    9     -1.81      0.00
   17    2    9     -4.37      0.00
   18    2    9     -5.71      0.00
   19    2    9      2.42      0.00
   20    2    9      0.50      0.00
  -12    3    9      5.75      0.00
  -11    3    9    -11.43      0.00
  -10    3    9      2.39      0.00
   -9    3    9     -7.91      0.00
   -8    3    9      4.16      0.00
   -7    3    9     -8.51      0.00
   -6    3    9     11.66      0.00
   -5    3    9     -6.79      0.00
   -4    3    9      7.80      0.00
   -3    3    9     -3.53      0.00
   -2    3    9     -2.98      0.00
   -1    3    9      1.56      0.00
    0    3    9     22.89      0.00
    1    3    9      1.07      0.00
    2    3    9      3.08      0.00
    3    3    9     -0.90      0.00
    4    3    9     -4.06      0.00
    5    3    9      3.74      0.00
    6    3    9      9.25      0.00
    7    3    9    -28.90      0.00
    8    3    9      2.90      0.00
    9    3    9      1.23      0.00
   10    3    9    -10.48      0.00
   11    3    9     16.34      0.00
   12    3    9      8.08      0.00
   13    3    9      1.07      0.00
   14    3    9      0.62      0.00
   15    3    9     -4.79      0.00
   16    3    9     -3.31      0.00
   17    3    9     -2.07      0.00
   18    3    9     -3.96      0.00
   19    3    9      3.66      0.00
   20    3    9      2.11      0.00
  -12    4    9      4.28      0.00
  -11    4    9      4.02      0.00
  -10    4    9     -0.16      0.00
   -9    4    9     -3.44      0.00
   -8    4    9     -0.02      0.00
   -7    4    9     -1.62      0.00
   -6    4    9     -2.85      0.00
   -5    4    9    -10.75      0.00
   -4    4    9     14.79      0.00
   -3    4    9     -4.66      0.00
   -2    4    9     -3.02      0.00
   -1    4    9      5.11      0.00
    0    4    9    -18.49      0.00
    1    4    9      4.40      0.00
    2    4    9     26.51      0.00
    3    4    9     -3.48      0.00
    4    4    9     -3.86      0.00
    5    4    9     10.73      0.00
    6    4    9    -34.18      0.00
    7    4    9    -19.39      0.00
    8    4    9      8.29      0.00
    9    4    9     -9.78      0.00
   10    4    9     11.38      0.00
   11    4    9     -4.73      0.00
   12    4    9      4.30      0.00
   13    4    9     -1.09      0.00
   14    4    9     11.07      0.00
   15    4    9     -1.39      0.00
   16    4    9      4.10      0.00
   17    4    9     -5.30      0.00
   18    4    9     -1.34      0.00
   19    4    9      3.49      0.00
   20    4    9      0.41      0.00
  -11    5    9     -3.00      0.00
  -10    5    9      8.47      0.00
   -9    5    9     -3.72      0.00
   -8    5    9      7.46      0.00
   -7    5    9      0.36      0.00
   -6    5    9      2.14      0.00
   -5    5    9      1.06      0.00
   -4    5    9     -3.51      0.00
   -3    5    9    -10.97      0.00
   -2    5    9     -3.87      0.00
   -1    5    9     13.70      0.00
    0    5    9      3.21      0.00
    1    5    9     19.16      0.00
    2    5    9    -21.13      0.00
    3    5    9     -9.30      0.00
    4    5    9      2.83      0.00
    5    5    9     15.49      0.00
    6    5    9     20.92      0.00
    7    5    9    -22.10      0.00
    8    5    9      2.41      0.00
    9    5    9     -4.31      0.00
   10    5    9     -1.09      0.00
   11    5    9      5.45      0.00
   12    5    9      9.08      0.00
   13    5    9     -2.73      0.00
   14    5    9      0.33      0.00
   15    5    9      5.06      0.00
   16    5    9      3.66      0.00
   17    5    9      2.01      0.00
   18    5    9     -3.61      0.00
   19    5    9      0.90      0.00
   20    5    9      1.61      0.00
   21    5    9      1.83      0.00
  -11    6    9      0.76      0.00
  -10    6    9     -0.58      0.00
   -9    6    9      3.31      0.00
   -8    6    9      2.45      0.00
   -7    6    9      1.28      0.00
   -6    6    9     -1.32      0.00
   -5    6    9     -6.37      0.00
   -4    6    9     -1.68      0.00
   -3    6    9     -2.47      0.00
   -2    6    9    -11.59      0.00
   -1    6    9     -1.42      0.00
    0    6    9    -15.06      0.00
    1    6    9      3.32      0.00
    2    6    9     36.41      0.00
    3    6    9     -0.36      0.00
    4    6    9    -17.09      0.00
    5    6    9     -2.45      0.00
    6    6    9     -6.43      0.00
    7    6    9      1.11      0.00
    8    6    9     18.79      0.00
    9    6    9      6.16      0.00
   10    6    9     -7.25      0.00
   11    6    9      2.01      0.00
   12    6    9     -2.18      0.00
   13    6    9      0.20      0.00
   14    6    9      8.23      0.00
   15    6    9     -0.07      0.00
   16    6    9      3.33      0.00
   17    6    9     -0.23      0.00
   18    6    9     -1.40      0.00
   19    6    9      3.83      0.00
   20    6    9     -0.20      0.00
   21    6    9      3.92      0.00
  -10    7    9     -1.09      0.00
   -9    7    9      0.34      0.00
   -8    7    9      5.54      0.00
   -7    7    9      4.50      0.00
   -6    7    9     -2.83      0.00
   -5    7    9     -3.30      0.00
   -4    7    9     -6.26      0.00
   -3    7    9    -14.68      0.00
   -2    7    9      2.52      0.00
   -1    7    9      0.58      0.00
    0    7    9     -6.72      0.00
    1    7    9      2.34      0.00
    2    7    9     -4.32      0.00
    3    7    9     -8.81      0.00
    4    7    9     14.57      0.00
    5    7    9      6.77      0.00
    6    7    9     -7.58      0.00
    7    7    9     -2.48      0.00
    8    7    9     -4.19      0.00
    9    7    9      1.65      0.00
   10    7    9      6.18      0.00
   11    7    9     -2.70      0.00
   12    7    9     -3.48      0.00
   13    7    9      2.17      0.00
   14    7    9     -8.22      0.00
   15    7    9      6.95      0.00
   16    7    9      0.76      0.00
   17    7    9      5.17      0.00
   18    7    9     -2.63      0.00
   19    7    9      3.53      0.00
   20    7    9     -1.56      0.00
   21    7    9     -0.47      0.00
   -9    8    9      5.41      0.00
   -8    8    9      6.23      0.00
   -7    8    9     -4.21      0.00
   -6    8    9      2.49      0.00
   -5    8    9     -7.09      0.00
   -4    8    9      0.58      0.00
   -3    8    9     -5.18      0.00
   -2    8    9      2.75      0.00
   -1    8    9    -10.70      0.00
    0    8    9      0.77      0.00
    1    8    9     -4.85      0.00
    2    8    9      5.63      0.00
    3    8    9     -4.58      0.00
    4    8    9     -1.89      0.00
    5    8    9     -0.60      0.00
    6    8    9     -1.14      0.00
    7    8    9     -6.04      0.00
    8    8    9     -5.69      0.00
    9    8    9     -0.72      0.00
   10    8    9     -6.20      0.00
   11    8    9      7.22      0.00
   12    8    9     -6.31      0.00
   13    8    9      3.40      0.00
   14    8    9      3.35      0.00
   15    8    9     -2.49      0.00
   16    8    9     -0.89      0.00
   17    8    9      3.32      0.00
   18    8    9      1.11      0.00
   19    8    9      4.03      0.00
   20    8    9     -0.16      0.00
   21    8    9      3.25      0.00
   -9    9    9      3.84      0.00
   -8    9    9      1.40      0.00
   -7    9    9      2.31      0.00
   -6    9    9      1.40      0.00
   -5    9    9     -5.38      0.00
   -4    9    9      4.43      0.00
   -3    9    9     -2.40      0.00
   -2    9    9      7.91      0.00
   -1    9    9     -1.30      0.00
    0    9    9     -7.50      0.00
    1    9    9    -12.13      0.00
    2    9    9     -2.98      0.00
    3    9    9    -10.65      0.00
    4    9    9      4.13      0.00
    5    9    9      9.70      0.00
    6    9    9     -9.16      0.00
    7    9    9     20.65      0.00
    8    9    9      1.86      0.00
    9    9    9     -2.42      0.00
   10    9    9     -5.68      0.00
   11    9    9      0.47      0.00
   12    9    9     -7.71      0.00
   13    9    9      6.38      0.00
   14    9    9      4.42      0.00
   15    9    9     -0.41      0.00
   16    9    9      0.78      0.00
   17    9    9      0.15      0.00
   18    9    9      0.16      0.00
   19    9    9     -4.23      0.00
   20    9    9      4.75      0.00
   21    9    9      7.44      0.00
   -8   10    9      9.42      0.00
   -7   10    9      2.21      0.00
   -6   10    9     11.39      0.00
   -5   10    9     -1.24      0.00
   -4   10    9      1.58      0.00
   -3   10    9     -5.40      0.00
   -2   10    9     13.18      0.00
   -1   10    9     -4.35      0.00
    0   10    9      8.18      0.00
    1   10    9      1.51      0.00
    2   10    9     -5.15      0.00
    3   10    9     -8.33      0.00
    4   10    9     -2.80      0.00
    5   10    9     -5.49      0.00
    6   10    9      3.36      0.00
    7   10    9     12.55      0.00
    8   10    9      6.40      0.00
    9   10    9      2.23      0.00
   10   10    9     -3.31      0.00
   11   10    9      9.93      0.00
   12   10    9     -2.32      0.00
   13   10    9     -1.63      0.00
   14   10    9      4.93      0.00
   15   10    9     -1.89      0.00
   16   10    9      1.35      0.00
   17   10    9     -2.03      0.00
   18   10    9     -1.31      0.00
   19   10    9     -2.77      0.00
   20   10    9      1.82      0.00
   21   10    9      2.62      0.00
   -7   11    9      4.66      0.00
   -6   11    9      6.58      0.00
   -5   11    9     -3.80      0.00
   -4   11    9      4.46      0.00
   -3   11    9      2.22      0.00
   -2   11    9     -0.80      0.00
   -1   11    9     -3.08      0.00
    0   11    9     -3.23      0.00
    1   11    9     -5.11      0.00
    2   11    9      3.71      0.00
    3   11    9     -2.43      0.00
    4   11    9     -0.12      0.00
    5   11    9     -1.52      0.00
    6   11    9    -12.34      0.00
    7   11    9      8.43      0.00
    8   11    9     10.04      0.00
    9   11    9      9.39      0.00
   10   11    9     -2.41      0.00
   11   11    9      1.43      0.00
   12   11    9     -4.01      0.00
   13   11    9     -2.11      0.00
   14   11    9      4.68      0.00
   15   11    9     -3.66      0.00
   16   11    9      4.71      0.00
   17   11    9     -1.75      0.00
   18   11    9      2.93      0.00
   19   11    9      0.02      0.00
   20   11    9      2.97      0.00
   21   11    9      6.14      0.00
   -6   12    9     10.37      0.00
   -5   12    9      3.71      0.00
   -4   12    9      1.62      0.00
   -3   12    9     -3.86      0.00
   -2   12    9      2.00      0.00
   -1   12    9     -0.74      0.00
    0   12    9     -2.06      0.00
    1   12    9      1.11      0.00
    2   12    9     -2.33      0.00
    3   12    9     -5.55      0.00
    4   12    9      3.54      0.00
    5   12    9     -3.17      0.00
    6   12    9      1.43      0.00
    7   12    9      1.78      0.00
    8   12    9     -2.11      0.00
    9   12    9     -6.93      0.00
   10   12    9      6.07      0.00
   11   12    9      5.39      0.00
   12   12    9      5.78      0.00
   13   12    9     -2.27      0.00
   14   12    9     -3.24      0.00
   15   12    9      0.54      0.00
   16   12    9      1.80      0.00
   17   12    9     -1.59      0.00
   18   12    9      3.46      0.00
   19   12    9      3.63      0.00
   20   12    9      0.26      0.00
   21   12    9     -0.82      0.00
   -5   13    9     -0.07      0.00
   -4   13    9      1.97      0.00
   -3   13    9     10.16      0.00
   -2   13    9     -3.75      0.00
   -1   13    9      1.56      0.00
    0   13    9     -5.25      0.00
    1   13    9      4.68      0.00
    2   13    9      5.05      0.00
    3   13    9     -0.53      0.00
    4   13    9      0.26      0.00
    5   13    9     -3.52      0.00
    6   13    9      1.14      0.00
    7   13    9      1.42      0.00
    8   13    9     -6.78      0.00
    9   13    9     -1.17      0.00
   10   13    9     -1.85      0.00
   11   13    9     -2.80      0.00
   12   13    9     -0.89      0.00
   13   13    9      3.99      0.00
   14   13    9      1.48      0.00
   15   13    9     -3.14      0.00
   16   13    9      3.77      0.00
   17   13    9      2.45      0.00
   18   13    9     -0.27      0.00
   19   13    9     -1.75      0.00
   20   13    9     -2.19      0.00
   21   13    9     -0.13      0.00
   -4   14    9      1.08      0.00
   -3   14    9     -2.30      0.00
   -2   14    9      1.17      0.00
   -1   14    9      4.48      0.00
    0   14    9     -0.69      0.00
    1   14    9     -0.77      0.00
    2   14    9      3.16      0.00
    3   14    9     -7.14      0.00
    4   14    9      3.75      0.00
    5   14    9     -5.28      0.00
    6   14    9      0.91      0.00
    7   14    9      1.60      0.00
    8   14    9     -3.59      0.00
    9   14    9     -6.25      0.00
   10   14    9      5.93      0.00
   11   14    9     -3.36      0.00
   12   14    9      0.76      0.00
   13   14    9      5.33      0.00
   14   14    9      2.86      0.00
   15   14    9      0.14      0.00
   16   14    9     -0.50      0.00
   17   14    9     -5.71      0.00
   18   14    9      1.37      0.00
   19   14    9      3.54      0.00
   20   14    9     -8.47      0.00
   21   14    9     -2.61      0.00
   -3   15    9      9.71      0.00
   -2   15    9     -6.50      0.00
   -1   15    9      1.40      0.00
    0   15    9     -2.15      0.00
    1   15    9      6.39      0.00
    2   15    9      1.57      0.00
    3   15    9     -3.42      0.00
    4   15    9     -0.38      0.00
    5   15    9      0.12      0.00
    6   15    9      1.55      0.00
    7   15    9     -2.53      0.00
    8   15    9     -2.24      0.00
    9   15    9      0.31      0.00
   10   15    9      4.22      0.00
   11   15    9     -0.85      0.00
   12   15    9     -4.25      0.00
   13   15    9     -2.92      0.00
   14   15    9     -2.63      0.00
   15   15    9      1.75      0.00
   16   15    9      2.41      0.00
   17   15    9     -1.67      0.00
   18   15    9      0.39      0.00
   19   15    9     -0.96      0.00
   20   15    9      1.92      0.00
   21   15    9     -0.28      0.00
   -1   16    9      1.77      0.00
    0   16    9     -0.90      0.00
    1   16    9     -4.55      0.00
    2   16    9      3.19      0.00
    3   16    9     -8.82      0.00
    4   16    9     -0.96      0.00
    5   16    9     -2.27      0.00
    6   16    9     -0.89      0.00
    7   16    9     -1.09      0.00
    8   16    9     -4.10      0.00
    9   16    9     -3.91      0.00
   10   16    9      1.34      0.00
   11   16    9     -0.29      0.00
   12   16    9     -3.56      0.00
   13   16    9      2.38      0.00
   14   16    9      2.54      0.00
   15   16    9     -3.30      0.00
   16   16    9     -2.27      0.00
   17   16    9     -2.11      0.00
   18   16    9      0.14      0.00
   19   16    9      5.16      0.00
   20   16    9     -0.64      0.00
    0   17    9     -3.13      0.00
    1   17    9      0.34      0.00
    2   17    9     -7.38      0.00
    3   17    9      0.36      0.00
    4   17    9      1.46      0.00
    5   17    9      6.55      0.00
    6   17    9     -5.12      0.00
    7   17    9     -0.93      0.00
    8   17    9    -11.19      0.00
    9   17    9     -0.49      0.00
   10   17    9     -3.44      0.00
   11   17    9      3.11      0.00
   12   17    9     -3.06      0.00
   13   17    9     -2.11      0.00
   14   17    9     -1.21      0.00
   15   17    9      0.43      0.00
   16   17    9     -2.11      0.00
   17   17    9     -5.33      0.00
   18   17    9     -0.17      0.00
   19   17    9     -3.71      0.00
   20   17    9     -1.54      0.00
    2   18    9     -5.46      0.00
    3   18    9     -9.68      0.00
    4   18    9     -4.04      0.00
    5   18    9      4.57      0.00
    6   18    9     -3.20      0.00
    7   18    9     -1.03      0.00
    8   18    9      1.07      0.00
    9   18    9      1.74      0.00
   10   18    9     -2.82      0.00
   11   18    9     -3.03      0.00
   12   18    9     -2.23      0.00
   13   18    9      1.81      0.00
   14   18    9     10.44      0.00
   15   18    9      1.21      0.00
   16   18    9     -9.20      0.00
   17   18    9     -5.33      0.00
   18   18    9    -12.52      0.00
   19   18    9     -0.56      0.00
    3   19    9     -3.63      0.00
    4   19    9      3.87      0.00
    5   19    9      2.22      0.00
    6   19    9     -4.43      0.00
    7   19    9      3.61      0.00
    8   19    9     -6.50      0.00
    9   19    9     -0.88      0.00
   10   19    9      1.80      0.00
   11   19    9     -3.38      0.00
   12   19    9     -1.38      0.00
   13   19    9     -2.00      0.00
   14   19    9      0.89      0.00
   15   19    9     -1.04      0.00
   16   19    9     -0.92      0.00
   17   19    9     -3.13      0.00
   18   19    9     -4.04      0.00
    6   20    9      0.05      0.00
    7   20    9      0.77      0.00
    8   20    9     -2.79      0.00
    9   20    9     -1.41      0.00
   10   20    9      6.24      0.00
   11   20    9      3.56      0.00
   12   20    9      2.35      0.00
   13   20    9     -2.00      0.00
   14   20    9      9.06      0.00
   15   20    9     -4.34      0.00
   16   20    9     -0.96      0.00
   17   20    9     -5.64      0.00
    9   21    9     -0.66      0.00
   10   21    9     -5.20      0.00
   11   21    9      1.19      0.00
   12   21    9     -0.01      0.00
   13   21    9      0.36      0.00
   14   21    9      1.38      0.00
   -9  -20   10      1.46      0.00
   -8  -20   10      0.77      0.00
   -7  -20   10      6.71      0.00
   -6  -20   10     -1.04      0.00
   -5  -20   10      5.91      0.00
   -4  -20   10      0.76      0.00
   -3  -20   10     -1.15      0.00
  -11  -19   10     -0.68      0.00
  -10  -19   10     -0.68      0.00
   -9  -19   10      3.31      0.00
   -8  -19   10     -2.77      0.00
   -7  -19   10      4.60      0.00
   -6  -19   10     -0.88      0.00
   -5  -19   10      9.83      0.00
   -4  -19   10      4.03      0.00
   -3  -19   10      0.70      0.00
   -2  -19   10      1.15      0.00
   -1  -19   10      0.92      0.00
    0  -19   10      1.65      0.00
  -12  -18   10     -1.84      0.00
  -11  -18   10      1.00      0.00
  -10  -18   10     -3.59      0.00
   -9  -18   10      1.80      0.00
   -8  -18   10      1.70      0.00
   -7  -18   10      5.20      0.00
   -6  -18   10      2.60      0.00
   -5  -18   10      2.13      0.00
   -4  -18   10     -0.44      0.00
   -3  -18   10     -3.51      0.00
   -2  -18   10     -0.66      0.00
   -1  -18   10     -0.46      0.00
    0  -18   10      4.21      0.00
    1  -18   10     -1.65      0.00
    2  -18   10     -1.41      0.00
  -13  -17   10      1.39      0.00
  -12  -17   10     -3.84      0.00
  -11  -17   10     -0.45      0.00
  -10  -17   10      1.22      0.00
   -9  -17   10     -0.73      0.00
   -8  -17   10     -3.03      0.00
   -7  -17   10     -2.03      0.00
   -6  -17   10      0.52      0.00
   -5  -17   10      0.08      0.00
   -4  -17   10      1.78      0.00
   -3  -17   10     -3.84      0.00
   -2  -17   10      1.49      0.00
   -1  -17   10      1.29      0.00
    0  -17   10      4.00      0.00
    1  -17   10      4.16      0.00
    2  -17   10     -0.95      0.00
    3  -17   10     -1.06      0.00
    4  -17   10     -4.32      0.00
  -14  -16   10     -2.44      0.00
  -13  -16   10      4.87      0.00
  -12  -16   10     -4.13      0.00
  -11  -16   10      1.50      0.00
  -10  -16   10     -0.57      0.00
   -9  -16   10      3.01      0.00
   -8  -16   10      2.09      0.00
   -7  -16   10      1.46      0.00
   -6  -16   10      1.13      0.00
   -5  -16   10     -3.62      0.00
   -4  -16   10      2.20      0.00
   -3  -16   10     -1.77      0.00
   -2  -16   10     -2.77      0.00
   -1  -16   10      0.34      0.00
    0  -16   10     -2.15      0.00
    1  -16   10      1.73      0.00
    2  -16   10      1.23      0.00
    3  -16   10      3.87      0.00
    4  -16   10      0.84      0.00
    5  -16   10      2.59      0.00
    6  -16   10      0.11      0.00
  -14  -15   10     -1.30      0.00
  -13  -15   10      0.59      0.00
  -12  -15   10     -0.98      0.00
  -11  -15   10     -1.19      0.00
  -10  -15   10     -0.44      0.00
   -9  -15   10     -1.14      0.00
   -8  -15   10      1.42      0.00
   -7  -15   10     -1.87      0.00
   -6  -15   10      1.67      0.00
   -5  -15   10     -3.07      0.00
   -4  -15   10      2.81      0.00
   -3  -15   10     -1.56      0.00
   -2  -15   10      6.09      0.00
   -1  -15   10      3.98      0.00
    0  -15   10      2.02      0.00
    1  -15   10     -2.30      0.00
    2  -15   10     -2.93      0.00
    3  -15   10     -0.63      0.00
    4  -15   10     -7.85      0.00
    5  -15   10     -3.00      0.00
    6  -15   10      0.68      0.00
    7  -15   10      4.83      0.00
  -15  -14   10     -3.78      0.00
  -14  -14   10     -1.18      0.00
  -13  -14   10     -0.29      0.00
  -12  -14   10     -2.67      0.00
  -11  -14   10      1.42      0.00
  -10  -14   10      4.93      0.00
   -9  -14   10     -3.07      0.00
   -8  -14   10      0.78      0.00
   -7  -14   10     -4.43      0.00
   -6  -14   10      1.35      0.00
   -5  -14   10     -1.62      0.00
   -4  -14   10      8.68      0.00
   -3  -14   10     -5.54      0.00
   -2  -14   10     -5.29      0.00
   -1  -14   10     -3.80      0.00
    0  -14   10     -3.57      0.00
    1  -14   10      6.02      0.00
    2  -14   10     -0.35      0.00
    3  -14   10     -1.44      0.00
    4  -14   10      0.17      0.00
    5  -14   10      0.22      0.00
    6  -14   10     -1.62      0.00
    7  -14   10      1.55      0.00
    8  -14   10     -0.83      0.00
  -15  -13   10     -2.41      0.00
  -14  -13   10     -4.54      0.00
  -13  -13   10      0.55      0.00
  -12  -13   10     -1.96      0.00
  -11  -13   10     -3.30      0.00
  -10  -13   10      3.17      0.00
   -9  -13   10     -6.50      0.00
   -8  -13   10      2.09      0.00
   -7  -13   10      1.67      0.00
   -6  -13   10      2.07      0.00
   -5  -13   10     -6.45      0.00
   -4  -13   10     -0.24      0.00
   -3  -13   10     -0.02      0.00
   -2  -13   10      3.67      0.00
   -1  -13   10      2.48      0.00
    0  -13   10     -1.41      0.00
    1  -13   10     -6.69      0.00
    2  -13   10      0.57      0.00
    3  -13   10     -2.13      0.00
    4  -13   10      1.14      0.00
    5  -13   10      0.11      0.00
    6  -13   10      4.77      0.00
    7  -13   10     -2.31      0.00
    8  -13   10      2.38      0.00
    9  -13   10     -3.19      0.00
  -15  -12   10     -2.44      0.00
  -14  -12   10     -2.25      0.00
  -13  -12   10      0.13      0.00
  -12  -12   10      1.67      0.00
  -11  -12   10     -0.76      0.00
  -10  -12   10      5.34      0.00
   -9  -12   10     -1.57      0.00
   -8  -12   10     -0.14      0.00
   -7  -12   10     -6.66      0.00
   -6  -12   10      0.36      0.00
   -5  -12   10     -0.24      0.00
   -4  -12   10      5.64      0.00
   -3  -12   10      1.54      0.00
   -2  -12   10     -0.16      0.00
   -1  -12   10     -5.13      0.00
    0  -12   10      3.53      0.00
    1  -12   10      2.36      0.00
    2  -12   10      3.33      0.00
    3  -12   10      0.68      0.00
    4  -12   10      0.89      0.00
    5  -12   10      2.75      0.00
    6  -12   10      1.23      0.00
    7  -12   10      1.61      0.00
    8  -12   10     -2.84      0.00
    9  -12   10     -5.68      0.00
   10  -12   10      7.33      0.00
  -15  -11   10     -0.85      0.00
  -14  -11   10     -3.20      0.00
  -13  -11   10      5.51      0.00
  -12  -11   10     -1.38      0.00
  -11  -11   10      1.60      0.00
  -10  -11   10      0.42      0.00
   -9  -11   10      2.70      0.00
   -8  -11   10     -0.38      0.00
   -7  -11   10      0.46      0.00
   -6  -11   10      4.01      0.00
   -5  -11   10      3.49      0.00
   -4  -11   10     -1.89      0.00
   -3  -11   10      0.04      0.00
   -2  -11   10      6.29      0.00
   -1  -11   10     -0.48      0.00
    0  -11   10      5.11      0.00
    1  -11   10     -7.14      0.00
    2  -11   10     -2.56      0.00
    3  -11   10     -4.04      0.00
    4  -11   10      5.46      0.00
    5  -11   10     -4.15      0.00
    6  -11   10      6.88      0.00
    7  -11   10     -5.19      0.00
    8  -11   10      2.39      0.00
    9  -11   10     -0.52      0.00
   10  -11   10      0.18      0.00
   11  -11   10      1.32      0.00
  -16  -10   10     -3.92      0.00
  -15  -10   10     -1.10      0.00
  -14  -10   10     -2.95      0.00
  -13  -10   10      1.10      0.00
  -12  -10   10      5.08      0.00
  -11  -10   10      3.41      0.00
  -10  -10   10     -3.62      0.00
   -9  -10   10      4.22      0.00
   -8  -10   10     -3.30      0.00
   -7  -10   10     -5.80      0.00
   -6  -10   10     -2.20      0.00
   -5  -10   10      3.00      0.00
   -4  -10   10     -0.37      0.00
   -3  -10   10      0.65      0.00
   -2  -10   10      6.55      0.00
   -1  -10   10     -4.71      0.00
    0  -10   10      6.94      0.00
    1  -10   10     -9.86      0.00
    2  -10   10      2.63      0.00
    3  -10   10    -14.33      0.00
    4  -10   10      8.74      0.00
    5  -10   10      0.91      0.00
    6  -10   10      1.52      0.00
    7  -10   10     -2.01      0.00
    8  -10   10     -8.93      0.00
    9  -10   10      0.94      0.00
   10  -10   10      2.71      0.00
   11  -10   10      5.09      0.00
   12  -10   10     -2.33      0.00
  -16   -9   10      1.04      0.00
  -15   -9   10      3.51      0.00
  -14   -9   10     -0.78      0.00
  -13   -9   10     -2.91      0.00
  -12   -9   10     -0.86      0.00
  -11   -9   10     -0.94      0.00
  -10   -9   10     -2.95      0.00
   -9   -9   10      8.01      0.00
   -8   -9   10     -2.86      0.00
   -7   -9   10     -0.25      0.00
   -6   -9   10     -3.24      0.00
   -5   -9   10      6.46      0.00
   -4   -9   10      2.79      0.00
   -3   -9   10    -11.43      0.00
   -2   -9   10      3.15      0.00
   -1   -9   10    -11.11      0.00
    0   -9   10      5.98      0.00
    1   -9   10     -4.45      0.00
    2   -9   10      4.00      0.00
    3   -9   10     -7.74      0.00
    4   -9   10      4.75      0.00
    5   -9   10    -11.52      0.00
    6   -9   10      1.14      0.00
    7   -9   10      4.74      0.00
    8   -9   10      3.65      0.00
    9   -9   10      0.17      0.00
   10   -9   10     -3.61      0.00
   11   -9   10     -2.66      0.00
   12   -9   10     -5.32      0.00
   13   -9   10     -0.43      0.00
  -15   -8   10      3.65      0.00
  -14   -8   10     -3.38      0.00
  -13   -8   10      4.48      0.00
  -12   -8   10      5.35      0.00
  -11   -8   10      0.79      0.00
  -10   -8   10     -3.40      0.00
   -9   -8   10     -2.86      0.00
   -8   -8   10     -0.85      0.00
   -7   -8   10      8.45      0.00
   -6   -8   10      2.12      0.00
   -5   -8   10     -3.65      0.00
   -4   -8   10      2.63      0.00
   -3   -8   10      1.38      0.00
   -2   -8   10      9.27      0.00
   -1   -8   10      3.86      0.00
    0   -8   10      3.91      0.00
    1   -8   10    -17.32      0.00
    2   -8   10     12.56      0.00
    3   -8   10     -6.63      0.00
    4   -8   10     16.04      0.00
    5   -8   10      4.25      0.00
    6   -8   10      4.93      0.00
    7   -8   10     -0.27      0.00
    8   -8   10     -0.11      0.00
    9   -8   10      7.14      0.00
   10   -8   10     -0.69      0.00
   11   -8   10      7.89      0.00
   12   -8   10      0.84      0.00
   13   -8   10     -1.94      0.00
   14   -8   10      0.80      0.00
  -15   -7   10      2.60      0.00
  -14   -7   10    -10.39      0.00
  -13   -7   10     -3.85      0.00
  -12   -7   10      2.09      0.00
  -11   -7   10     -1.53      0.00
  -10   -7   10      1.52      0.00
   -9   -7   10      2.31      0.00
   -8   -7   10     -7.66      0.00
   -7   -7   10      0.31      0.00
   -6   -7   10      3.65      0.00
   -5   -7   10      7.88      0.00
   -4   -7   10     20.67      0.00
   -3   -7   10     -9.05      0.00
   -2   -7   10     -2.54      0.00
   -1   -7   10    -18.39      0.00
    0   -7   10     15.50      0.00
    1   -7   10     -3.75      0.00
    2   -7   10     14.13      0.00
    3   -7   10     -2.01      0.00
    4   -7   10     -0.82      0.00
    5   -7   10      0.97      0.00
    6   -7   10     -3.50      0.00
    7   -7   10     16.64      0.00
    8   -7   10     -1.22      0.00
    9   -7   10      1.28      0.00
   10   -7   10     -2.22      0.00
   11   -7   10     -3.58      0.00
   12   -7   10      1.65      0.00
   13   -7   10      5.76      0.00
   14   -7   10     -1.56      0.00
   15   -7   10      4.68      0.00
  -15   -6   10      1.77      0.00
  -14   -6   10     -4.40      0.00
  -13   -6   10      4.29      0.00
  -12   -6   10      0.78      0.00
  -11   -6   10     -6.47      0.00
  -10   -6   10      3.35      0.00
   -9   -6   10     -6.22      0.00
   -8   -6   10     -1.46      0.00
   -7   -6   10     -0.98      0.00
   -6   -6   10      6.26      0.00
   -5   -6   10     -9.68      0.00
   -4   -6   10      4.88      0.00
   -3   -6   10      7.48      0.00
   -2   -6   10      7.87      0.00
   -1   -6   10      4.61      0.00
    0   -6   10      2.36      0.00
    1   -6   10    -13.42      0.00
    2   -6   10     -0.77      0.00
    3   -6   10      8.51      0.00
    4   -6   10     -0.76      0.00
    5   -6   10     -6.30      0.00
    6   -6   10      7.83      0.00
    7   -6   10     -5.58      0.00
    8   -6   10      7.94      0.00
    9   -6   10      2.08      0.00
   10   -6   10     -0.73      0.00
   11   -6   10      7.44      0.00
   12   -6   10      0.07      0.00
   13   -6   10      0.13      0.00
   14   -6   10     -0.91      0.00
   15   -6   10      4.83      0.00
  -15   -5   10      1.79      0.00
  -14   -5   10     -3.84      0.00
  -13   -5   10     -1.50      0.00
  -12   -5   10      2.64      0.00
  -11   -5   10     -7.80      0.00
  -10   -5   10      2.22      0.00
   -9   -5   10     -6.30      0.00
   -8   -5   10     -2.98      0.00
   -7   -5   10     -4.50      0.00
   -6   -5   10      2.85      0.00
   -5   -5   10     -6.74      0.00
   -4   -5   10      9.47      0.00
   -3   -5   10     -6.47      0.00
   -2   -5   10     -8.40      0.00
   -1   -5   10     -9.49      0.00
    0   -5   10     10.83      0.00
    1   -5   10     -7.94      0.00
    2   -5   10     12.08      0.00
    3   -5   10    -11.06      0.00
    4   -5   10     -5.52      0.00
    5   -5   10      6.53      0.00
    6   -5   10    -12.72      0.00
    7   -5   10      7.82      0.00
    8   -5   10     -9.52      0.00
    9   -5   10     -6.96      0.00
   10   -5   10      0.07      0.00
   11   -5   10     -0.18      0.00
   12   -5   10     -1.26      0.00
   13   -5   10      0.27      0.00
   14   -5   10     -6.56      0.00
   15   -5   10     -1.20      0.00
   16   -5   10     -0.44      0.00
  -15   -4   10     -0.37      0.00
  -14   -4   10     -1.18      0.00
  -13   -4   10      0.64      0.00
  -12   -4   10      4.69      0.00
  -11   -4   10     -8.53      0.00
  -10   -4   10      4.10      0.00
   -9   -4   10     -6.33      0.00
   -8   -4   10     -1.45      0.00
   -7   -4   10     -2.66      0.00
   -6   -4   10      4.97      0.00
   -5   -4   10     -8.74      0.00
   -4   -4   10     -7.11      0.00
   -3   -4   10     -3.91      0.00
   -2   -4   10      6.59      0.00
   -1   -4   10     -2.24      0.00
    0   -4   10      0.80      0.00
    1   -4   10     15.37      0.00
    2   -4   10     -9.27      0.00
    3   -4   10     21.48      0.00
    4   -4   10    -16.44      0.00
    5   -4   10    -12.81      0.00
    6   -4   10     -3.30      0.00
    7   -4   10      5.16      0.00
    8   -4   10      2.19      0.00
    9   -4   10     -0.30      0.00
   10   -4   10      2.42      0.00
   11   -4   10     -5.10      0.00
   12   -4   10      5.85      0.00
   13   -4   10      1.92      0.00
   14   -4   10     -1.28      0.00
   15   -4   10     -2.11      0.00
   16   -4   10     -3.26      0.00
   17   -4   10     -2.06      0.00
  -14   -3   10     -1.17      0.00
  -13   -3   10      2.92      0.00
  -12   -3   10      1.04      0.00
  -11   -3   10      2.89      0.00
  -10   -3   10      3.06      0.00
   -9   -3   10     -3.77      0.00
   -8   -3   10     -0.73      0.00
   -7   -3   10      0.56      0.00
   -6   -3   10      1.65      0.00
   -5   -3   10     -6.89      0.00
   -4   -3   10     -2.20      0.00
   -3   -3   10    -14.57      0.00
   -2   -3   10     -1.45      0.00
   -1   -3   10     -2.20      0.00
    0   -3   10      8.67      0.00
    1   -3   10    -18.60      0.00
    2   -3   10     10.79      0.00
    3   -3   10     -5.34      0.00
    4   -3   10     11.45      0.00
    5   -3   10     25.67      0.00
    6   -3   10      4.24      0.00
    7   -3   10    -16.89      0.00
    8   -3   10     -9.17      0.00
    9   -3   10     -7.36      0.00
   10   -3   10     -4.05      0.00
   11   -3   10      8.48      0.00
   12   -3   10     -4.17      0.00
   13   -3   10      0.90      0.00
   14   -3   10      3.63      0.00
   15   -3   10     -2.41      0.00
   16   -3   10      1.27      0.00
   17   -3   10      1.17      0.00
  -14   -2   10      3.81      0.00
  -13   -2   10      6.28      0.00
  -12   -2   10     -1.58      0.00
  -11   -2   10     -0.76      0.00
  -10   -2   10     -0.44      0.00
   -9   -2   10     -1.26      0.00
   -8   -2   10     -0.34      0.00
   -7   -2   10      3.82      0.00
   -6   -2   10     -3.98      0.00
   -5   -2   10     -1.35      0.00
   -4   -2   10     12.05      0.00
   -3   -2   10    -20.02      0.00
   -2   -2   10      1.88      0.00
   -1   -2   10    -14.33      0.00
    0   -2   10     -7.54      0.00
    1   -2   10      4.90      0.00
    2   -2   10     11.32      0.00
    3   -2   10     -0.29      0.00
    4   -2   10    -19.84      0.00
    5   -2   10    -14.48      0.00
    6   -2   10     -8.55      0.00
    7   -2   10     26.40      0.00
    8   -2   10     -6.93      0.00
    9   -2   10     -8.27      0.00
   10   -2   10      2.90      0.00
   11   -2   10     -8.84      0.00
   12   -2   10      0.00      0.00
   13   -2   10      1.16      0.00
   14   -2   10     -3.54      0.00
   15   -2   10      3.02      0.00
   16   -2   10      1.11      0.00
   17   -2   10     -4.01      0.00
   18   -2   10     -2.49      0.00
  -14   -1   10      4.02      0.00
  -13   -1   10      2.09      0.00
  -12   -1   10     -2.87      0.00
  -11   -1   10     -0.15      0.00
  -10   -1   10     -8.03      0.00
   -9   -1   10     -2.62      0.00
   -8   -1   10      0.77      0.00
   -7   -1   10      4.47      0.00
   -6   -1   10     -1.71      0.00
   -5   -1   10    -19.68      0.00
   -4   -1   10      4.41      0.00
   -3   -1   10    -25.00      0.00
   -2   -1   10      7.29      0.00
   -1   -1   10    -11.76      0.00
    0   -1   10      7.47      0.00
    1   -1   10    -52.23      0.00
    2   -1   10     -6.86      0.00
    3   -1   10      0.19      0.00
    4   -1   10      7.14      0.00
    5   -1   10      4.63      0.00
    6   -1   10     10.63      0.00
    7   -1   10    -35.89      0.00
    8   -1   10     -8.82      0.00
    9   -1   10      3.21      0.00
   10   -1   10     -6.46      0.00
   11   -1   10      4.75      0.00
   12   -1   10     -7.60      0.00
   13   -1   10      2.57      0.00
   14   -1   10      3.04      0.00
   15   -1   10      3.07      0.00
   16   -1   10      3.22      0.00
   17   -1   10      3.89      0.00
   18   -1   10      0.79      0.00
  -13    0   10     -1.51      0.00
  -12    0   10     -7.29      0.00
  -11    0   10     -3.12      0.00
  -10    0   10     -2.07      0.00
   -9    0   10     -7.30      0.00
   -8    0   10      0.54      0.00
   -7    0   10      0.60      0.00
   -6    0   10      4.01      0.00
   -5    0   10     -5.40      0.00
   -4    0   10     12.78      0.00
   -3    0   10    -33.45      0.00
   -2    0   10     -3.95      0.00
   -1    0   10     -6.97      0.00
    0    0   10      0.31      0.00
    1    0   10    -22.47      0.00
    2    0   10     19.80      0.00
    3    0   10    -23.85      0.00
    4    0   10    -29.65      0.00
    5    0   10     -7.85      0.00
    6    0   10    -12.34      0.00
    7    0   10     26.58      0.00
    8    0   10     -5.46      0.00
    9    0   10     -5.32      0.00
   10    0   10     -1.89      0.00
   11    0   10      2.89      0.00
   12    0   10     -4.81      0.00
   13    0   10      7.80      0.00
   14    0   10     -1.57      0.00
   15    0   10     -0.22      0.00
   16    0   10      4.40      0.00
   17    0   10     -0.61      0.00
   18    0   10      2.42      0.00
   19    0   10      5.82      0.00
  -13    1   10     -3.81      0.00
  -12    1   10      2.78      0.00
  -11    1   10     -3.60      0.00
  -10    1   10     -2.96      0.00
   -9    1   10     -5.28      0.00
   -8    1   10      8.78      0.00
   -7    1   10     -2.09      0.00
   -6    1   10     -3.87      0.00
   -5    1   10    -12.76      0.00
   -4    1   10      9.53      0.00
   -3    1   10    -23.68      0.00
   -2    1   10     17.24      0.00
   -1    1   10    -19.59      0.00
    0    1   10      9.59      0.00
    1    1   10    -16.80      0.00
    2    1   10     -5.69      0.00
    3    1   10     -4.21      0.00
    4    1   10     -1.44      0.00
    5    1   10    -12.81      0.00
    6    1   10      5.60      0.00
    7    1   10     -6.93      0.00
    8    1   10     -3.75      0.00
    9    1   10     13.64      0.00
   10    1   10      5.58      0.00
   11    1   10      0.16      0.00
   12    1   10     -5.21      0.00
   13    1   10     -0.62      0.00
   14    1   10     -2.64      0.00
   15    1   10      7.88      0.00
   16    1   10     -0.50      0.00
   17    1   10     -0.59      0.00
   18    1   10      5.08      0.00
   19    1   10      6.11      0.00
  -12    2   10      3.96      0.00
  -11    2   10     -6.04      0.00
  -10    2   10      2.40      0.00
   -9    2   10     -5.18      0.00
   -8    2   10      4.03      0.00
   -7    2   10     -7.05      0.00
   -6    2   10     10.09      0.00
   -5    2   10     -0.77      0.00
   -4    2   10      8.85      0.00
   -3    2   10    -15.69      0.00
   -2    2   10      2.13      0.00
   -1    2   10     10.18      0.00
    0    2   10     -0.23      0.00
    1    2   10    -11.66      0.00
    2    2   10     14.73      0.00
    3    2   10    -26.67      0.00
    4    2   10    -14.64      0.00
    5    2   10     10.62      0.00
    6    2   10     -3.38      0.00
    7    2   10     -4.68      0.00
    8    2   10      9.09      0.00
    9    2   10     -3.49      0.00
   10    2   10      2.22      0.00
   11    2   10     15.78      0.00
   12    2   10     -8.39      0.00
   13    2   10      1.45      0.00
   14    2   10     -5.47      0.00
   15    2   10    -10.85      0.00
   16    2   10      4.54      0.00
   17    2   10      1.55      0.00
   18    2   10      1.00      0.00
   19    2   10      3.43      0.00
   20    2   10     -0.50      0.00
  -12    3   10      4.44      0.00
  -11    3   10     -9.52      0.00
  -10    3   10     -4.64      0.00
   -9    3   10     -8.92      0.00
   -8    3   10      2.99      0.00
   -7    3   10     -1.49      0.00
   -6    3   10     -5.74      0.00
   -5    3   10      4.54      0.00
   -4    3   10      7.50      0.00
   -3    3   10     -9.02      0.00
   -2    3   10     18.21      0.00
   -1    3   10     -9.21      0.00
    0    3   10    -16.28      0.00
    1    3   10     14.89      0.00
    2    3   10      9.08      0.00
    3    3   10    -29.48      0.00
    4    3   10     10.02      0.00
    5    3   10    -14.56      0.00
    6    3   10     -9.45      0.00
    7    3   10     -8.24      0.00
    8    3   10      0.89      0.00
    9    3   10     -6.72      0.00
   10    3   10     11.38      0.00
   11    3   10    -16.11      0.00
   12    3   10      2.78      0.00
   13    3   10      2.90      0.00
   14    3   10      3.62      0.00
   15    3   10      2.34      0.00
   16    3   10     -0.27      0.00
   17    3   10     -3.43      0.00
   18    3   10      0.93      0.00
   19    3   10     -1.03      0.00
   20    3   10     -1.47      0.00
  -11    4   10     -2.40      0.00
  -10    4   10     11.83      0.00
   -9    4   10     -4.35      0.00
   -8    4   10      4.29      0.00
   -7    4   10     -2.15      0.00
   -6    4   10     -0.51      0.00
   -5    4   10      2.43      0.00
   -4    4   10     -0.99      0.00
   -3    4   10      8.03      0.00
   -2    4   10     13.26      0.00
   -1    4   10     13.32      0.00
    0    4   10     -6.25      0.00
    1    4   10     -6.37      0.00
    2    4   10    -11.41      0.00
    3    4   10    -17.29      0.00
    4    4   10     11.15      0.00
    5    4   10     -0.35      0.00
    6    4   10     13.61      0.00
    7    4   10    -41.11      0.00
    8    4   10      4.85      0.00
    9    4   10    -11.63      0.00
   10    4   10      2.80      0.00
   11    4   10      7.24      0.00
   12    4   10      1.13      0.00
   13    4   10     -3.78      0.00
   14    4   10      0.84      0.00
   15    4   10     -0.02      0.00
   16    4   10      2.02      0.00
   17    4   10      0.84      0.00
   18    4   10     -4.90      0.00
   19    4   10     -1.83      0.00
   20    4   10      2.94      0.00
  -11    5   10     -5.02      0.00
  -10    5   10      4.86      0.00
   -9    5   10     -1.15      0.00
   -8    5   10      1.69      0.00
   -7    5   10      1.90      0.00
   -6    5   10    -10.27      0.00
   -5    5   10      2.98      0.00
   -4    5   10      5.64      0.00
   -3    5   10      1.34      0.00
   -2    5   10      6.71      0.00
   -1    5   10     -2.33      0.00
    0    5   10     -0.01      0.00
    1    5   10     16.69      0.00
    2    5   10     30.57      0.00
    3    5   10    -40.40      0.00
    4    5   10      5.21      0.00
    5    5   10    -12.57      0.00
    6    5   10      3.84      0.00
    7    5   10      9.29      0.00
    8    5   10      9.49      0.00
    9    5   10    -10.01      0.00
   10    5   10      5.03      0.00
   11    5   10     -5.72      0.00
   12    5   10      5.67      0.00
   13    5   10      7.92      0.00
   14    5   10     -0.61      0.00
   15    5   10     -3.28      0.00
   16    5   10     -1.22      0.00
   17    5   10      0.60      0.00
   18    5   10     -1.92      0.00
   19    5   10      0.49      0.00
   20    5   10      1.58      0.00
   21    5   10     -0.80      0.00
  -10    6   10      5.94      0.00
   -9    6   10     -6.40      0.00
   -8    6   10      5.99      0.00
   -7    6   10      2.19      0.00
   -6    6   10      2.10      0.00
   -5    6   10      2.36      0.00
   -4    6   10     -2.04      0.00
   -3    6   10     -2.25      0.00
   -2    6   10     17.63      0.00
   -1    6   10      0.70      0.00
    0    6   10      4.53      0.00
    1    6   10     -1.28      0.00
    2    6   10     -2.93      0.00
    3    6   10      8.65      0.00
    4    6   10     25.06      0.00
    5    6   10    -11.58      0.00
    6    6   10      9.91      0.00
    7    6   10    -10.21      0.00
    8    6   10      9.11      0.00
    9    6   10      4.10      0.00
   10    6   10      9.57      0.00
   11    6   10     -7.55      0.00
   12    6   10      1.32      0.00
   13    6   10     -6.86      0.00
   14    6   10     -4.31      0.00
   15    6   10      2.06      0.00
   16    6   10     -4.01      0.00
   17    6   10      3.32      0.00
   18    6   10     -7.14      0.00
   19    6   10     -4.31      0.00
   20    6   10      0.83      0.00
   21    6   10     -0.49      0.00
   -9    7   10     -6.15      0.00
   -8    7   10      1.08      0.00
   -7    7   10     -5.26      0.00
   -6    7   10      3.34      0.00
   -5    7   10     -3.43      0.00
   -4    7   10      5.71      0.00
   -3    7   10     -2.10      0.00
   -2    7   10      1.86      0.00
   -1    7   10     -0.75      0.00
    0    7   10      9.69      0.00
    1    7   10      5.15      0.00
    2    7   10     26.42      0.00
    3    7   10     -9.91      0.00
    4    7   10      9.79      0.00
    5    7   10      2.42      0.00
    6    7   10      6.10      0.00
    7    7   10      2.68      0.00
    8    7   10     -2.33      0.00
    9    7   10     -6.23      0.00
   10    7   10      2.43      0.00
   11    7   10      2.79      0.00
   12    7   10     -5.84      0.00
   13    7   10      0.42      0.00
   14    7   10     -4.79      0.00
   15    7   10     -3.92      0.00
   16    7   10      0.42      0.00
   17    7   10      4.63      0.00
   18    7   10     -1.82      0.00
   19    7   10      1.10      0.00
   20    7   10     -2.16      0.00
   21    7   10     -0.22      0.00
   -9    8   10     -2.25      0.00
   -8    8   10      1.80      0.00
   -7    8   10     -3.75      0.00
   -6    8   10     -2.53      0.00
   -5    8   10     -5.67      0.00
   -4    8   10      5.23      0.00
   -3    8   10     -4.16      0.00
   -2    8   10      6.37      0.00
   -1    8   10     -7.17      0.00
    0    8   10     -3.97      0.00
    1    8   10      1.62      0.00
    2    8   10     -2.17      0.00
    3    8   10     11.87      0.00
    4    8   10     21.04      0.00
    5    8   10      9.05      0.00
    6    8   10     -3.58      0.00
    7    8   10      4.49      0.00
    8    8   10    -15.99      0.00
    9    8   10     -9.41      0.00
   10    8   10      1.90      0.00
   11    8   10     -8.38      0.00
   12    8   10     -1.20      0.00
   13    8   10     -2.31      0.00
   14    8   10      0.24      0.00
   15    8   10     -3.62      0.00
   16    8   10      0.70      0.00
   17    8   10     -3.39      0.00
   18    8   10     -0.07      0.00
   19    8   10     -0.86      0.00
   20    8   10      2.56      0.00
   21    8   10     -2.13      0.00
   -8    9   10     -0.37      0.00
   -7    9   10     -7.11      0.00
   -6    9   10      2.22      0.00
   -5    9   10     -9.92      0.00
   -4    9   10      1.93      0.00
   -3    9   10     -1.48      0.00
   -2    9   10      4.11      0.00
   -1    9   10      0.89      0.00
    0    9   10      1.91      0.00
    1    9   10     -4.23      0.00
    2    9   10     -4.37      0.00
    3    9   10      0.78      0.00
    4    9   10      4.65      0.00
    5    9   10      7.38      0.00
    6    9   10      6.96      0.00
    7    9   10     -0.36      0.00
    8    9   10      1.13      0.00
    9    9   10     -2.14      0.00
   10    9   10     -2.21      0.00
   11    9   10      2.22      0.00
   12    9   10     -9.95      0.00
   13    9   10     -0.97      0.00
   14    9   10      5.99      0.00
   15    9   10      0.70      0.00
   16    9   10     -2.64      0.00
   17    9   10      2.12      0.00
   18    9   10     -3.92      0.00
   19    9   10     -1.29      0.00
   20    9   10     -6.95      0.00
   21    9   10      4.27      0.00
   -7   10   10     -5.82      0.00
   -6   10   10     -2.33      0.00
   -5   10   10     -3.74      0.00
   -4   10   10      7.70      0.00
   -3   10   10     -6.88      0.00
   -2   10   10     -1.66      0.00
   -1   10   10     -6.34      0.00
    0   10   10     -8.05      0.00
    1   10   10     -0.77      0.00
    2   10   10      0.38      0.00
    3   10   10     -0.13      0.00
    4   10   10     -2.28      0.00
    5   10   10      1.49      0.00
    6   10   10    -10.48      0.00
    7   10   10     14.05      0.00
    8   10   10      4.30      0.00
    9   10   10      1.93      0.00
   10   10   10     -4.05      0.00
   11   10   10     -6.53      0.00
   12   10   10      0.31      0.00
   13   10   10     -5.21      0.00
   14   10   10      1.07      0.00
   15   10   10      1.58      0.00
   16   10   10     -0.36      0.00
   17   10   10     -4.44      0.00
   18   10   10      1.57      0.00
   19   10   10     -6.10      0.00
   20   10   10     -4.41      0.00
   21   10   10      2.81      0.00
   -6   11   10      4.55      0.00
   -5   11   10     -5.13      0.00
   -4   11   10     -2.24      0.00
   -3   11   10     -1.12      0.00
   -2   11   10     -0.30      0.00
   -1   11   10     -1.82      0.00
    0   11   10      1.82      0.00
    1   11   10      0.44      0.00
    2   11   10    -10.35      0.00
    3   11   10     -0.84      0.00
    4   11   10     -2.19      0.00
    5   11   10     -5.14      0.00
    6   11   10     -1.92      0.00
    7   11   10     -8.72      0.00
    8   11   10      0.70      0.00
    9   11   10      2.70      0.00
   10   11   10      9.87      0.00
   11   11   10      3.65      0.00
   12   11   10      1.03      0.00
   13   11   10     -8.93      0.00
   14   11   10     -6.72      0.00
   15   11   10      3.09      0.00
   16   11   10     -7.23      0.00
   17   11   10     -3.92      0.00
   18   11   10     -8.95      0.00
   19   11   10      0.34      0.00
   20   11   10     -9.73      0.00
   21   11   10      2.57      0.00
   -5   12   10     -4.34      0.00
   -4   12   10      3.19      0.00
   -3   12   10     -2.06      0.00
   -2   12   10     -1.22      0.00
   -1   12   10     -5.09      0.00
    0   12   10      1.09      0.00
    1   12   10     -2.33      0.00
    2   12   10      2.51      0.00
    3   12   10     -4.61      0.00
    4   12   10     -3.67      0.00
    5   12   10     -0.05      0.00
    6   12   10     -6.29      0.00
    7   12   10     -3.45      0.00
    8   12   10     -1.93      0.00
    9   12   10      1.24      0.00
   10   12   10     -4.37      0.00
   11   12   10     -1.92      0.00
   12   12   10      2.30      0.00
   13   12   10      3.52      0.00
   14   12   10     -0.60      0.00
   15   12   10     -0.87      0.00
   16   12   10      0.33      0.00
   17   12   10     -5.34      0.00
   18   12   10     -0.76      0.00
   19   12   10     -1.70      0.00
   20   12   10      1.30      0.00
   21   12   10      5.49      0.00
   -4   13   10     -1.06      0.00
   -3   13   10      1.83      0.00
   -2   13   10      4.37      0.00
   -1   13   10      4.20      0.00
    0   13   10      1.79      0.00
    1   13   10     -0.39      0.00
    2   13   10      1.02      0.00
    3   13   10      2.41      0.00
    4   13   10      3.45      0.00
    5   13   10     -3.20      0.00
    6   13   10      2.44      0.00
    7   13   10     -6.41      0.00
    8   13   10     -2.31      0.00
    9   13   10     -5.52      0.00
   10   13   10      4.11      0.00
   11   13   10     -0.70      0.00
   12   13   10     -0.40      0.00
   13   13   10     -0.29      0.00
   14   13   10     -3.25      0.00
   15   13   10     -1.04      0.00
   16   13   10     -9.19      0.00
   17   13   10     -5.34      0.00
   18   13   10      0.20      0.00
   19   13   10     -6.06      0.00
   20   13   10     -6.88      0.00
   21   13   10     -0.39      0.00
   -3   14   10      4.02      0.00
   -2   14   10     -7.32      0.00
   -1   14   10      2.00      0.00
    0   14   10      5.64      0.00
    1   14   10      4.19      0.00
    2   14   10      6.05      0.00
    3   14   10     -4.77      0.00
    4   14   10      2.10      0.00
    5   14   10     -3.97      0.00
    6   14   10      1.85      0.00
    7   14   10     -5.37      0.00
    8   14   10      4.57      0.00
    9   14   10      0.97      0.00
   10   14   10     -0.78      0.00
   11   14   10      1.80      0.00
   12   14   10     -3.56      0.00
   13   14   10      3.18      0.00
   14   14   10      0.22      0.00
   15   14   10      4.71      0.00
   16   14   10      1.28      0.00
   17   14   10      1.46      0.00
   18   14   10      2.92      0.00
   19   14   10     -0.67      0.00
   20   14   10      2.28      0.00
   21   14   10     -4.76      0.00
   -2   15   10      1.42      0.00
   -1   15   10     -0.75      0.00
    0   15   10     -2.61      0.00
    1   15   10      5.51      0.00
    2   15   10      7.05      0.00
    3   15   10      1.01      0.00
    4   15   10      4.46      0.00
    5   15   10     -2.85      0.00
    6   15   10      0.53      0.00
    7   15   10     -1.41      0.00
    8   15   10      3.26      0.00
    9   15   10      5.05      0.00
   10   15   10     -0.42      0.00
   11   15   10      1.05      0.00
   12   15   10     -0.67      0.00
   13   15   10      1.81      0.00
   14   15   10     -2.27      0.00
   15   15   10     -7.56      0.00
   16   15   10      1.12      0.00
   17   15   10     -2.38      0.00
   18   15   10      7.37      0.00
   19   15   10     -4.47      0.00
   20   15   10      2.37      0.00
   -1   16   10      0.34      0.00
    0   16   10     -1.25      0.00
    1   16   10      9.03      0.00
    2   16   10     -1.34      0.00
    3   16   10     11.06      0.00
    4   16   10      3.49      0.00
    5   16   10      2.06      0.00
    6   16   10      2.25      0.00
    7   16   10     -2.02      0.00
    8   16   10      2.95      0.00
    9   16   10      3.09      0.00
   10   16   10     -0.87      0.00
   11   16   10      6.43      0.00
   12   16   10      1.59      0.00
   13   16   10     -3.18      0.00
   14   16   10     -1.22      0.00
   15   16   10      6.66      0.00
   16   16   10      2.04      0.00
   17   16   10      6.28      0.00
   18   16   10      4.12      0.00
   19   16   10      1.82      0.00
   20   16   10     10.90      0.00
    1   17   10      5.98      0.00
    2   17   10     -0.44      0.00
    3   17   10      2.01      0.00
    4   17   10      9.30      0.00
    5   17   10      1.20      0.00
    6   17   10      2.06      0.00
    7   17   10      3.39      0.00
    8   17   10      1.38      0.00
    9   17   10     -2.10      0.00
   10   17   10     -7.36      0.00
   11   17   10      6.83      0.00
   12   17   10      8.86      0.00
   13   17   10      0.67      0.00
   14   17   10      5.25      0.00
   15   17   10      0.54      0.00
   16   17   10      3.43      0.00
   17   17   10     -1.10      0.00
   18   17   10      4.62      0.00
   19   17   10      5.38      0.00
   20   17   10      6.13      0.00
    2   18   10      0.63      0.00
    3   18   10     10.00      0.00
    4   18   10      6.85      0.00
    5   18   10     -3.27      0.00
    6   18   10      1.36      0.00
    7   18   10     -1.15      0.00
    8   18   10     -0.88      0.00
    9   18   10      5.36      0.00
   10   18   10      2.03      0.00
   11   18   10     -0.55      0.00
   12   18   10      7.88      0.00
   13   18   10     -5.42      0.00
   14   18   10      5.98      0.00
   15   18   10     10.84      0.00
   16   18   10      4.74      0.00
   17   18   10      0.83      0.00
   18   18   10      0.87      0.00
   19   18   10     -0.15      0.00
    4   19   10      0.43      0.00
    5   19   10     -2.97      0.00
    6   19   10      3.03      0.00
    7   19   10      3.18      0.00
    8   19   10      3.76      0.00
    9   19   10      0.63      0.00
   10   19   10      1.73      0.00
   11   19   10      5.91      0.00
   12   19   10      2.99      0.00
   13   19   10     -3.33      0.00
   14   19   10      9.72      0.00
   15   19   10     -1.13      0.00
   16   19   10      2.39      0.00
   17   19   10     -1.34      0.00
   18   19   10      3.33      0.00
    7   20   10      5.11      0.00
    8   20   10     -0.77      0.00
    9   20   10     -0.48      0.00
   10   20   10     -1.86      0.00
   11   20   10      6.47      0.00
   12   20   10      0.04      0.00
   13   20   10     -2.45      0.00
   14   20   10      2.44      0.00
   15   20   10      7.52      0.00
   16   20   10      0.65      0.00
   11   21   10      4.74      0.00
   12   21   10     -4.02      0.00
   13   21   10     -4.62      0.00
   -7  -20   11      2.30      0.00
   -6  -20   11     -0.35      0.00
   -5  -20   11      3.49      0.00
   -4  -20   11      2.00      0.00
  -10  -19   11     -1.19      0.00
   -9  -19   11      4.27      0.00
   -8  -19   11      2.26      0.00
   -7  -19   11     -1.73      0.00
   -6  -19   11     -2.03      0.00
   -5  -19   11     -3.94      0.00
   -4  -19   11      2.05      0.00
   -3  -19   11     -2.45      0.00
   -2  -19   11      4.29      0.00
   -1  -19   11      0.84      0.00
    0  -19   11      2.67      0.00
  -11  -18   11      2.27      0.00
  -10  -18   11     -1.31      0.00
   -9  -18   11      3.06      0.00
   -8  -18   11     -2.62      0.00
   -7  -18   11      0.76      0.00
   -6  -18   11      0.64      0.00
   -5  -18   11      1.58      0.00
   -4  -18   11      1.85      0.00
   -3  -18   11     -2.93      0.00
   -2  -18   11      4.08      0.00
   -1  -18   11      1.86      0.00
    0  -18   11      2.10      0.00
    1  -18   11      0.65      0.00
    2  -18   11     -2.91      0.00
  -12  -17   11      0.16      0.00
  -11  -17   11     -1.09      0.00
  -10  -17   11      0.68      0.00
   -9  -17   11     -0.23      0.00
   -8  -17   11      0.03      0.00
   -7  -17   11     -3.61      0.00
   -6  -17   11     -2.87      0.00
   -5  -17   11     -3.95      0.00
   -4  -17   11      0.76      0.00
   -3  -17   11     -2.29      0.00
   -2  -17   11     -4.48      0.00
   -1  -17   11     -4.05      0.00
    0  -17   11      1.07      0.00
    1  -17   11      3.38      0.00
    2  -17   11      3.40      0.00
    3  -17   11      5.49      0.00
    4  -17   11     -0.76      0.00
  -13  -16   11     -0.91      0.00
  -12  -16   11      0.58      0.00
  -11  -16   11      0.42      0.00
  -10  -16   11     -3.34      0.00
   -9  -16   11     -3.46      0.00
   -8  -16   11     -5.16      0.00
   -7  -16   11      0.94      0.00
   -6  -16   11      1.01      0.00
   -5  -16   11     -0.26      0.00
   -4  -16   11     -0.32      0.00
   -3  -16   11      3.35      0.00
   -2  -16   11      3.08      0.00
   -1  -16   11      0.14      0.00
    0  -16   11     -3.25      0.00
    1  -16   11     -2.86      0.00
    2  -16   11      2.04      0.00
    3  -16   11     -3.12      0.00
    4  -16   11     -4.58      0.00
    5  -16   11      0.02      0.00
  -14  -15   11      5.22      0.00
  -13  -15   11     -1.00      0.00
  -12  -15   11      3.76      0.00
  -11  -15   11      1.27      0.00
  -10  -15   11     -2.33      0.00
   -9  -15   11     -5.21      0.00
   -8  -15   11      3.20      0.00
   -7  -15   11     -1.61      0.00
   -6  -15   11      2.75      0.00
   -5  -15   11      0.02      0.00
   -4  -15   11      0.70      0.00
   -3  -15   11     -1.87      0.00
   -2  -15   11     -4.92      0.00
   -1  -15   11      2.98      0.00
    0  -15   11      2.33      0.00
    1  -15   11      1.80      0.00
    2  -15   11      0.46      0.00
    3  -15   11      1.34      0.00
    4  -15   11     -0.34      0.00
    5  -15   11     -4.17      0.00
    6  -15   11     -4.85      0.00
    7  -15   11     -1.91      0.00
  -14  -14   11      4.82      0.00
  -13  -14   11     -0.57      0.00
  -12  -14   11      2.62      0.00
  -11  -14   11     -4.89      0.00
  -10  -14   11     -3.02      0.00
   -9  -14   11     -4.64      0.00
   -8  -14   11      2.04      0.00
   -7  -14   11      0.87      0.00
   -6  -14   11     -2.36      0.00
   -5  -14   11     -1.93      0.00
   -4  -14   11      2.44      0.00
   -3  -14   11      7.75      0.00
   -2  -14   11     -1.26      0.00
   -1  -14   11     -1.36      0.00
    0  -14   11     -8.35      0.00
    1  -14   11     -5.09      0.00
    2  -14   11     -0.73      0.00
    3  -14   11     -2.98      0.00
    4  -14   11     -5.75      0.00
    5  -14   11     -3.87      0.00
    6  -14   11     -0.25      0.00
    7  -14   11     -1.64      0.00
    8  -14   11     -0.79      0.00
  -14  -13   11      1.91      0.00
  -13  -13   11      3.63      0.00
  -12  -13   11      7.79      0.00
  -11  -13   11     -1.13      0.00
  -10  -13   11      2.72      0.00
   -9  -13   11     -2.67      0.00
   -8  -13   11     -1.79      0.00
   -7  -13   11     -2.93      0.00
   -6  -13   11      3.12      0.00
   -5  -13   11      0.74      0.00
   -4  -13   11     -0.06      0.00
   -3  -13   11     -1.23      0.00
   -2  -13   11     -4.51      0.00
   -1  -13   11      1.32      0.00
    0  -13   11      1.68      0.00
    1  -13   11      4.89      0.00
    2  -13   11      2.49      0.00
    3  -13   11      1.33      0.00
    4  -13   11     -6.15      0.00
    5  -13   11      3.42      0.00
    6  -13   11     -1.92      0.00
    7  -13   11      0.05      0.00
    8  -13   11     -4.15      0.00
    9  -13   11      3.16      0.00
  -15  -12   11      0.20      0.00
  -14  -12   11     -0.67      0.00
  -13  -12   11      2.54      0.00
  -12  -12   11      0.34      0.00
  -11  -12   11     -2.06      0.00
  -10  -12   11      1.81      0.00
   -9  -12   11      3.75      0.00
   -8  -12   11      0.54      0.00
   -7  -12   11     -0.66      0.00
   -6  -12   11     -0.14      0.00
   -5  -12   11     -1.36      0.00
   -4  -12   11     -3.10      0.00
   -3  -12   11      4.65      0.00
   -2  -12   11      0.60      0.00
   -1  -12   11      2.70      0.00
    0  -12   11     -1.71      0.00
    1  -12   11     -3.31      0.00
    2  -12   11     -0.79      0.00
    3  -12   11      4.47      0.00
    4  -12   11      1.60      0.00
    5  -12   11      3.20      0.00
    6  -12   11      3.55      0.00
    7  -12   11     -4.51      0.00
    8  -12   11      1.84      0.00
    9  -12   11     -0.06      0.00
   10  -12   11     -2.47      0.00
  -15  -11   11     -1.44      0.00
  -14  -11   11     -0.65      0.00
  -13  -11   11      5.99      0.00
  -12  -11   11      2.71      0.00
  -11  -11   11      1.56      0.00
  -10  -11   11      1.00      0.00
   -9  -11   11      4.59      0.00
   -8  -11   11     -3.19      0.00
   -7  -11   11     -2.01      0.00
   -6  -11   11      1.14      0.00
   -5  -11   11      4.78      0.00
   -4  -11   11      2.49      0.00
   -3  -11   11      0.74      0.00
   -2  -11   11     -0.84      0.00
   -1  -11   11     -0.77      0.00
    0  -11   11      8.66      0.00
    1  -11   11      2.44      0.00
    2  -11   11      4.12      0.00
    3  -11   11     -4.91      0.00
    4  -11   11      4.90      0.00
    5  -11   11      1.35      0.00
    6  -11   11      0.25      0.00
    7  -11   11      0.64      0.00
    8  -11   11     -2.80      0.00
    9  -11   11      3.55      0.00
   10  -11   11     -1.04      0.00
   11  -11   11      0.22      0.00
  -15  -10   11     -2.26      0.00
  -14  -10   11     -3.73      0.00
  -13  -10   11     -1.00      0.00
  -12  -10   11     -2.57      0.00
  -11  -10   11      0.91      0.00
  -10  -10   11     -1.38      0.00
   -9  -10   11      3.53      0.00
   -8  -10   11      0.94      0.00
   -7  -10   11     -1.85      0.00
   -6  -10   11      1.65      0.00
   -5  -10   11     -1.50      0.00
   -4  -10   11      2.07      0.00
   -3  -10   11     -5.66      0.00
   -2  -10   11      2.38      0.00
   -1  -10   11     -1.38      0.00
    0  -10   11      3.37      0.00
    1  -10   11      0.82      0.00
    2  -10   11      1.57      0.00
    3  -10   11     -3.49      0.00
    4  -10   11     -0.61      0.00
    5  -10   11     -4.29      0.00
    6  -10   11      5.44      0.00
    7  -10   11      0.15      0.00
    8  -10   11      1.65      0.00
    9  -10   11     -5.34      0.00
   10  -10   11     -6.22      0.00
   11  -10   11     -2.22      0.00
   12  -10   11      1.10      0.00
  -15   -9   11      4.63      0.00
  -14   -9   11      0.40      0.00
  -13   -9   11      6.82      0.00
  -12   -9   11     -6.88      0.00
  -11   -9   11      0.35      0.00
  -10   -9   11     -6.03      0.00
   -9   -9   11      1.51      0.00
   -8   -9   11      0.64      0.00
   -7   -9   11      3.07      0.00
   -6   -9   11     -3.69      0.00
   -5   -9   11     -4.08      0.00
   -4   -9   11      3.79      0.00
   -3   -9   11     -1.92      0.00
   -2   -9   11     -1.96      0.00
   -1   -9   11     -6.85      0.00
    0   -9   11     -3.39      0.00
    1   -9   11     -6.25      0.00
    2   -9   11     12.43      0.00
    3   -9   11     -7.03      0.00
    4   -9   11     12.20      0.00
    5   -9   11     -2.82      0.00
    6   -9   11     -7.50      0.00
    7   -9   11     -2.57      0.00
    8   -9   11     -2.28      0.00
    9   -9   11      2.08      0.00
   10   -9   11     -2.66      0.00
   11   -9   11      4.51      0.00
   12   -9   11     -2.49      0.00
   13   -9   11     -4.71      0.00
  -15   -8   11      2.45      0.00
  -14   -8   11     -4.04      0.00
  -13   -8   11      5.24      0.00
  -12   -8   11     -3.98      0.00
  -11   -8   11      1.58      0.00
  -10   -8   11      4.07      0.00
   -9   -8   11      2.03      0.00
   -8   -8   11     -1.05      0.00
   -7   -8   11      6.52      0.00
   -6   -8   11      7.96      0.00
   -5   -8   11      1.30      0.00
   -4   -8   11      8.32      0.00
   -3   -8   11    -12.17      0.00
   -2   -8   11     -3.99      0.00
   -1   -8   11     -6.31      0.00
    0   -8   11     13.97      0.00
    1   -8   11     -7.17      0.00
    2   -8   11      4.33      0.00
    3   -8   11     -4.90      0.00
    4   -8   11     -3.25      0.00
    5   -8   11      2.59      0.00
    6   -8   11      6.22      0.00
    7   -8   11      3.73      0.00
    8   -8   11     -2.01      0.00
    9   -8   11     -2.94      0.00
   10   -8   11     -6.02      0.00
   11   -8   11      0.17      0.00
   12   -8   11      1.88      0.00
   13   -8   11     -3.51      0.00
   14   -8   11     -1.59      0.00
  -15   -7   11      3.50      0.00
  -14   -7   11      0.61      0.00
  -13   -7   11      4.98      0.00
  -12   -7   11     -7.99      0.00
  -11   -7   11     -2.97      0.00
  -10   -7   11      1.35      0.00
   -9   -7   11     -1.12      0.00
   -8   -7   11      0.75      0.00
   -7   -7   11      6.33      0.00
   -6   -7   11     -1.57      0.00
   -5   -7   11     -6.96      0.00
   -4   -7   11      8.43      0.00
   -3   -7   11     13.51      0.00
   -2   -7   11     -1.53      0.00
   -1   -7   11     -2.67      0.00
    0   -7   11     -1.29      0.00
    1   -7   11    -13.07      0.00
    2   -7   11     11.23      0.00
    3   -7   11     -3.65      0.00
    4   -7   11      7.65      0.00
    5   -7   11     -4.82      0.00
    6   -7   11      9.90      0.00
    7   -7   11     -6.88      0.00
    8   -7   11      9.78      0.00
    9   -7   11      2.85      0.00
   10   -7   11      1.90      0.00
   11   -7   11      3.61      0.00
   12   -7   11     -6.39      0.00
   13   -7   11     -1.91      0.00
   14   -7   11      0.02      0.00
   15   -7   11      0.88      0.00
  -15   -6   11     -2.80      0.00
  -14   -6   11      2.60      0.00
  -13   -6   11     -0.60      0.00
  -12   -6   11      0.99      0.00
  -11   -6   11     -4.76      0.00
  -10   -6   11      6.89      0.00
   -9   -6   11      1.52      0.00
   -8   -6   11      3.08      0.00
   -7   -6   11      6.45      0.00
   -6   -6   11      0.63      0.00
   -5   -6   11      5.12      0.00
   -4   -6   11      2.22      0.00
   -3   -6   11     -4.92      0.00
   -2   -6   11     -3.73      0.00
   -1   -6   11      0.10      0.00
    0   -6   11     16.50      0.00
    1   -6   11    -12.43      0.00
    2   -6   11     -1.50      0.00
    3   -6   11    -15.31      0.00
    4   -6   11      6.05      0.00
    5   -6   11     -8.93      0.00
    6   -6   11      1.19      0.00
    7   -6   11      2.71      0.00
    8   -6   11     -2.88      0.00
    9   -6   11      2.96      0.00
   10   -6   11     -0.56      0.00
   11   -6   11     -1.71      0.00
   12   -6   11      0.57      0.00
   13   -6   11     -0.13      0.00
   14   -6   11     -0.79      0.00
   15   -6   11      3.27      0.00
  -14   -5   11      5.73      0.00
  -13   -5   11     -1.53      0.00
  -12   -5   11     -5.90      0.00
  -11   -5   11     -9.52      0.00
  -10   -5   11      5.05      0.00
   -9   -5   11     -6.21      0.00
   -8   -5   11     -0.55      0.00
   -7   -5   11      2.50      0.00
   -6   -5   11     -8.77      0.00
   -5   -5   11     -2.12      0.00
   -4   -5   11     -4.51      0.00
   -3   -5   11     12.71      0.00
   -2   -5   11      3.67      0.00
   -1   -5   11      2.29      0.00
    0   -5   11      3.16      0.00
    1   -5   11     -7.62      0.00
    2   -5   11      1.27      0.00
    3   -5   11     -1.45      0.00
    4   -5   11     -7.74      0.00
    5   -5   11    -18.59      0.00
    6   -5   11     10.10      0.00
    7   -5   11    -12.47      0.00
    8   -5   11     12.28      0.00
    9   -5   11     -2.08      0.00
   10   -5   11      1.17      0.00
   11   -5   11      1.39      0.00
   12   -5   11      2.94      0.00
   13   -5   11     -2.52      0.00
   14   -5   11      1.97      0.00
   15   -5   11     -3.13      0.00
   16   -5   11     -5.59      0.00
  -14   -4   11      0.48      0.00
  -13   -4   11     -3.17      0.00
  -12   -4   11     -3.16      0.00
  -11   -4   11      1.06      0.00
  -10   -4   11      0.15      0.00
   -9   -4   11     -1.47      0.00
   -8   -4   11      0.03      0.00
   -7   -4   11      5.45      0.00
   -6   -4   11     -9.72      0.00
   -5   -4   11      8.68      0.00
   -4   -4   11     -8.02      0.00
   -3   -4   11     -7.55      0.00
   -2   -4   11      2.09      0.00
   -1   -4   11      6.27      0.00
    0   -4   11      7.91      0.00
    1   -4   11     -8.39      0.00
    2   -4   11     18.58      0.00
    3   -4   11    -14.10      0.00
    4   -4   11     29.45      0.00
    5   -4   11    -13.43      0.00
    6   -4   11     -9.21      0.00
    7   -4   11     -9.71      0.00
    8   -4   11     -5.88      0.00
    9   -4   11     -2.61      0.00
   10   -4   11      6.35      0.00
   11   -4   11      1.69      0.00
   12   -4   11     -2.89      0.00
   13   -4   11      3.11      0.00
   14   -4   11      2.69      0.00
   15   -4   11      0.19      0.00
   16   -4   11     -3.74      0.00
   17   -4   11      2.45      0.00
  -14   -3   11      0.48      0.00
  -13   -3   11     -0.17      0.00
  -12   -3   11     -2.93      0.00
  -11   -3   11      4.71      0.00
  -10   -3   11     -1.01      0.00
   -9   -3   11      3.43      0.00
   -8   -3   11     -1.82      0.00
   -7   -3   11      2.45      0.00
   -6   -3   11     -6.85      0.00
   -5   -3   11     11.69      0.00
   -4   -3   11      2.98      0.00
   -3   -3   11     -6.66      0.00
   -2   -3   11     18.04      0.00
   -1   -3   11     -4.41      0.00
    0   -3   11     12.40      0.00
    1   -3   11      4.60      0.00
    2   -3   11     12.92      0.00
    3   -3   11      0.94      0.00
    4   -3   11     -3.77      0.00
    5   -3   11     -9.20      0.00
    6   -3   11     21.40      0.00
    7   -3   11     12.05      0.00
    8   -3   11     -1.93      0.00
    9   -3   11     -1.01      0.00
   10   -3   11     -0.20      0.00
   11   -3   11     -5.77      0.00
   12   -3   11      7.17      0.00
   13   -3   11     -3.51      0.00
   14   -3   11      2.62      0.00
   15   -3   11      2.13      0.00
   16   -3   11     -6.75      0.00
   17   -3   11      0.42      0.00
  -14   -2   11     -0.78      0.00
  -13   -2   11      6.00      0.00
  -12   -2   11     -1.94      0.00
  -11   -2   11     14.00      0.00
  -10   -2   11     -2.32      0.00
   -9   -2   11      7.13      0.00
   -8   -2   11      2.78      0.00
   -7   -2   11      1.57      0.00
   -6   -2   11     -7.19      0.00
   -5   -2   11      0.25      0.00
   -4   -2   11     10.09      0.00
   -3   -2   11     -3.08      0.00
   -2   -2   11     17.11      0.00
   -1   -2   11      5.83      0.00
    0   -2   11     -0.05      0.00
    1   -2   11    -20.21      0.00
    2   -2   11     27.27      0.00
    3   -2   11     11.98      0.00
    4   -2   11     26.77      0.00
    5   -2   11      6.02      0.00
    6   -2   11     -4.49      0.00
    7   -2   11    -16.18      0.00
    8   -2   11     10.95      0.00
    9   -2   11     -0.31      0.00
   10   -2   11      2.87      0.00
   11   -2   11      2.97      0.00
   12   -2   11     -9.26      0.00
   13   -2   11      2.87      0.00
   14   -2   11      1.29      0.00
   15   -2   11     -1.15      0.00
   16   -2   11     -2.32      0.00
   17   -2   11      2.27      0.00
   18   -2   11     -1.59      0.00
  -13   -1   11      4.73      0.00
  -12   -1   11     -5.17      0.00
  -11   -1   11      2.58      0.00
  -10   -1   11     -2.44      0.00
   -9   -1   11      3.34      0.00
   -8   -1   11      1.73      0.00
   -7   -1   11      1.27      0.00
   -6   -1   11      2.19      0.00
   -5   -1   11      6.82      0.00
   -4   -1   11     11.89      0.00
   -3   -1   11    -12.89      0.00
   -2   -1   11     19.79      0.00
   -1   -1   11     -1.63      0.00
    0   -1   11     10.18      0.00
    1   -1   11      1.99      0.00
    2   -1   11      0.65      0.00
    3   -1   11     -5.86      0.00
    4   -1   11     -2.31      0.00
    5   -1   11      8.42      0.00
    6   -1   11     14.80      0.00
    7   -1   11     37.12      0.00
    8   -1   11    -21.46      0.00
    9   -1   11      3.05      0.00
   10   -1   11      1.70      0.00
   11   -1   11     -4.14      0.00
   12   -1   11      3.89      0.00
   13   -1   11     -1.49      0.00
   14   -1   11     -1.86      0.00
   15   -1   11     -3.15      0.00
   16   -1   11     -2.92      0.00
   17   -1   11      0.82      0.00
   18   -1   11      4.79      0.00
  -13    0   11      1.83      0.00
  -12    0   11     -2.75      0.00
  -11    0   11     -1.61      0.00
  -10    0   11     -2.69      0.00
   -9    0   11      3.73      0.00
   -8    0   11      5.11      0.00
   -7    0   11    -11.33      0.00
   -6    0   11      1.63      0.00
   -5    0   11     -1.99      0.00
   -4    0   11     10.53      0.00
   -3    0   11     -0.40      0.00
   -2    0   11     12.27      0.00
   -1    0   11     -8.40      0.00
    0    0   11      6.27      0.00
    1    0   11     -9.96      0.00
    2    0   11     -1.94      0.00
    3    0   11     36.69      0.00
    4    0   11     -1.07      0.00
    5    0   11      7.36      0.00
    6    0   11     -2.51      0.00
    7    0   11      1.75      0.00
    8    0   11     15.52      0.00
    9    0   11     14.03      0.00
   10    0   11     -1.11      0.00
   11    0   11     -0.73      0.00
   12    0   11     -3.11      0.00
   13    0   11      5.11      0.00
   14    0   11      6.68      0.00
   15    0   11      4.71      0.00
   16    0   11      1.82      0.00
   17    0   11      2.62      0.00
   18    0   11     -0.56      0.00
   19    0   11     -4.19      0.00
  -12    1   11     -2.91      0.00
  -11    1   11      1.20      0.00
  -10    1   11      4.56      0.00
   -9    1   11     -5.18      0.00
   -8    1   11     -0.76      0.00
   -7    1   11     -5.42      0.00
   -6    1   11      7.85      0.00
   -5    1   11      3.06      0.00
   -4    1   11      1.16      0.00
   -3    1   11     -9.90      0.00
   -2    1   11     10.56      0.00
   -1    1   11      3.58      0.00
    0    1   11      1.05      0.00
    1    1   11      7.98      0.00
    2    1   11     -0.14      0.00
    3    1   11     -7.78      0.00
    4    1   11      8.85      0.00
    5    1   11     20.07      0.00
    6    1   11     -1.03      0.00
    7    1   11     36.43      0.00
    8    1   11     -3.31      0.00
    9    1   11      4.09      0.00
   10    1   11      9.00      0.00
   11    1   11      7.17      0.00
   12    1   11     -0.81      0.00
   13    1   11      2.48      0.00
   14    1   11     -2.94      0.00
   15    1   11     -4.51      0.00
   16    1   11     11.26      0.00
   17    1   11     -2.73      0.00
   18    1   11     -0.53      0.00
   19    1   11      1.07      0.00
  -12    2   11     -0.45      0.00
  -11    2   11     -2.63      0.00
  -10    2   11     -0.70      0.00
   -9    2   11     -1.10      0.00
   -8    2   11      3.88      0.00
   -7    2   11    -12.35      0.00
   -6    2   11      0.60      0.00
   -5    2   11      4.76      0.00
   -4    2   11      1.46      0.00
   -3    2   11     -0.42      0.00
   -2    2   11      4.13      0.00
   -1    2   11    -17.02      0.00
    0    2   11      3.53      0.00
    1    2   11     20.45      0.00
    2    2   11     -5.80      0.00
    3    2   11     15.82      0.00
    4    2   11     -3.78      0.00
    5    2   11     -1.88      0.00
    6    2   11     10.93      0.00
    7    2   11     12.00      0.00
    8    2   11      9.41      0.00
    9    2   11      7.59      0.00
   10    2   11      3.98      0.00
   11    2   11     -6.79      0.00
   12    2   11      9.35      0.00
   13    2   11      1.34      0.00
   14    2   11      5.60      0.00
   15    2   11      4.40      0.00
   16    2   11     -5.59      0.00
   17    2   11     -2.75      0.00
   18    2   11     -3.57      0.00
   19    2   11     -2.68      0.00
   20    2   11     -1.71      0.00
  -11    3   11     -1.89      0.00
  -10    3   11     -2.53      0.00
   -9    3   11    -10.55      0.00
   -8    3   11     -6.89      0.00
   -7    3   11     -8.50      0.00
   -6    3   11      2.45      0.00
   -5    3   11      2.12      0.00
   -4    3   11     -3.33      0.00
   -3    3   11      2.88      0.00
   -2    3   11      2.59      0.00
   -1    3   11     -0.10      0.00
    0    3   11    -10.21      0.00
    1    3   11    -10.05      0.00
    2    3   11      8.73      0.00
    3    3   11    -11.20      0.00
    4    3   11      7.16      0.00
    5    3   11      6.58      0.00
    6    3   11     -0.95      0.00
    7    3   11    -12.05      0.00
    8    3   11      3.72      0.00
    9    3   11     -8.08      0.00
   10    3   11      4.05      0.00
   11    3   11      6.56      0.00
   12    3   11    -14.53      0.00
   13    3   11      0.93      0.00
   14    3   11     -2.90      0.00
   15    3   11      2.19      0.00
   16    3   11      6.49      0.00
   17    3   11     -2.01      0.00
   18    3   11     -3.82      0.00
   19    3   11     -0.05      0.00
   20    3   11      1.70      0.00
  -11    4   11      0.09      0.00
  -10    4   11      1.28      0.00
   -9    4   11      3.94      0.00
   -8    4   11     -3.73      0.00
   -7    4   11     -4.34      0.00
   -6    4   11     -6.77      0.00
   -5    4   11      4.78      0.00
   -4    4   11     -1.22      0.00
   -3    4   11     -5.08      0.00
   -2    4   11      8.07      0.00
   -1    4   11    -12.52      0.00
    0    4   11     12.48      0.00
    1    4   11     10.71      0.00
    2    4   11     -3.96      0.00
    3    4   11    -29.67      0.00
    4    4   11      2.69      0.00
    5    4   11    -14.25      0.00
    6    4   11      8.67      0.00
    7    4   11      4.65      0.00
    8    4   11    -18.94      0.00
    9    4   11     -8.27      0.00
   10    4   11      1.05      0.00
   11    4   11     -6.76      0.00
   12    4   11      9.60      0.00
   13    4   11      5.45      0.00
   14    4   11     -5.00      0.00
   15    4   11      6.61      0.00
   16    4   11     -1.28      0.00
   17    4   11      3.74      0.00
   18    4   11      0.25      0.00
   19    4   11     -2.35      0.00
   20    4   11      0.10      0.00
  -10    5   11      7.68      0.00
   -9    5   11     -3.06      0.00
   -8    5   11      7.09      0.00
   -7    5   11     -0.17      0.00
   -6    5   11      2.01      0.00
   -5    5   11     -3.20      0.00
   -4    5   11     -6.11      0.00
   -3    5   11      1.72      0.00
   -2    5   11      4.86      0.00
   -1    5   11    -15.55      0.00
    0    5   11      1.08      0.00
    1    5   11    -19.22      0.00
    2    5   11     10.38      0.00
    3    5   11      4.97      0.00
    4    5   11     -3.02      0.00
    5    5   11    -23.18      0.00
    6    5   11      5.22      0.00
    7    5   11    -25.87      0.00
    8    5   11      7.18      0.00
    9    5   11     -0.39      0.00
   10    5   11      1.35      0.00
   11    5   11      1.99      0.00
   12    5   11     -4.42      0.00
   13    5   11      7.84      0.00
   14    5   11      0.62      0.00
   15    5   11     10.08      0.00
   16    5   11     -3.05      0.00
   17    5   11      4.99      0.00
   18    5   11     -5.64      0.00
   19    5   11     -1.05      0.00
   20    5   11      4.95      0.00
   21    5   11      1.13      0.00
   -9    6   11      0.49      0.00
   -8    6   11      1.44      0.00
   -7    6   11     -1.19      0.00
   -6    6   11      3.24      0.00
   -5    6   11      2.23      0.00
   -4    6   11      2.51      0.00
   -3    6   11    -11.43      0.00
   -2    6   11     -1.78      0.00
   -1    6   11     -9.50      0.00
    0    6   11     12.49      0.00
    1    6   11     -2.86      0.00
    2    6   11      5.22      0.00
    3    6   11    -21.35      0.00
    4    6   11      8.45      0.00
    5    6   11    -11.84      0.00
    6    6   11      0.57      0.00
    7    6   11     -0.88      0.00
    8    6   11    -11.49      0.00
    9    6   11      1.58      0.00
   10    6   11     10.64      0.00
   11    6   11      1.48      0.00
   12    6   11      5.26      0.00
   13    6   11      5.59      0.00
   14    6   11     -2.56      0.00
   15    6   11      3.44      0.00
   16    6   11      2.40      0.00
   17    6   11      2.03      0.00
   18    6   11      2.66      0.00
   19    6   11     -3.90      0.00
   20    6   11     -0.43      0.00
   21    6   11     -1.44      0.00
   -9    7   11     -3.46      0.00
   -8    7   11      6.81      0.00
   -7    7   11     -1.33      0.00
   -6    7   11      3.94      0.00
   -5    7   11      0.01      0.00
   -4    7   11     -4.71      0.00
   -3    7   11     -5.96      0.00
   -2    7   11     -3.89      0.00
   -1    7   11    -11.56      0.00
    0    7   11      2.98      0.00
    1    7   11    -11.06      0.00
    2    7   11      2.56      0.00
    3    7   11     20.78      0.00
    4    7   11      7.12      0.00
    5    7   11    -21.10      0.00
    6    7   11      1.91      0.00
    7    7   11    -13.90      0.00
    8    7   11     -0.36      0.00
    9    7   11     -1.27      0.00
   10    7   11      0.71      0.00
   11    7   11     -3.95      0.00
   12    7   11      3.91      0.00
   13    7   11      1.54      0.00
   14    7   11     -1.18      0.00
   15    7   11      1.93      0.00
   16    7   11     -2.01      0.00
   17    7   11      2.85      0.00
   18    7   11     -1.07      0.00
   19    7   11     -1.14      0.00
   20    7   11      2.52      0.00
   21    7   11     -3.53      0.00
   -8    8   11      4.11      0.00
   -7    8   11      1.96      0.00
   -6    8   11      3.07      0.00
   -5    8   11     -7.34      0.00
   -4    8   11     -2.02      0.00
   -3    8   11     -6.32      0.00
   -2    8   11     -0.67      0.00
   -1    8   11      0.22      0.00
    0    8   11      0.37      0.00
    1    8   11     -8.87      0.00
    2    8   11      1.77      0.00
    3    8   11     -8.86      0.00
    4    8   11      1.85      0.00
    5    8   11      1.62      0.00
    6    8   11      8.17      0.00
    7    8   11     -6.95      0.00
    8    8   11     -2.94      0.00
    9    8   11    -10.52      0.00
   10    8   11     -2.01      0.00
   11    8   11     -2.21      0.00
   12    8   11     -4.97      0.00
   13    8   11      2.65      0.00
   14    8   11      6.68      0.00
   15    8   11      1.77      0.00
   16    8   11      5.15      0.00
   17    8   11     -0.16      0.00
   18    8   11     -1.97      0.00
   19    8   11     -3.60      0.00
   20    8   11      4.43      0.00
   21    8   11      0.57      0.00
   -7    9   11      1.60      0.00
   -6    9   11      5.26      0.00
   -5    9   11      5.21      0.00
   -4    9   11     -1.79      0.00
   -3    9   11     -4.39      0.00
   -2    9   11     -5.36      0.00
   -1    9   11      3.64      0.00
    0    9   11      1.38      0.00
    1    9   11      2.79      0.00
    2    9   11     -1.36      0.00
    3    9   11     -0.68      0.00
    4    9   11      3.52      0.00
    5    9   11     -4.99      0.00
    6    9   11     12.41      0.00
    7    9   11      5.60      0.00
    8    9   11      0.24      0.00
    9    9   11     -3.51      0.00
   10    9   11     -3.49      0.00
   11    9   11     -3.64      0.00
   12    9   11      0.12      0.00
   13    9   11     -5.45      0.00
   14    9   11      2.29      0.00
   15    9   11     12.95      0.00
   16    9   11     -1.14      0.00
   17    9   11      0.92      0.00
   18    9   11      1.61      0.00
   19    9   11      0.83      0.00
   20    9   11     -1.71      0.00
   21    9   11     -2.00      0.00
   -7   10   11      5.12      0.00
   -6   10   11      5.27      0.00
   -5   10   11      0.41      0.00
   -4   10   11      6.00      0.00
   -3   10   11      1.90      0.00
   -2   10   11      1.13      0.00
   -1   10   11      5.38      0.00
    0   10   11      2.32      0.00
    1   10   11     -9.66      0.00
    2   10   11     -3.52      0.00
    3   10   11      0.25      0.00
    4   10   11     -0.72      0.00
    5   10   11     -0.80      0.00
    6   10   11      4.44      0.00
    7   10   11     -4.89      0.00
    8   10   11     15.21      0.00
    9   10   11      8.73      0.00
   10   10   11      6.91      0.00
   11   10   11     -3.83      0.00
   12   10   11     -2.74      0.00
   13   10   11     -7.84      0.00
   14   10   11      1.46      0.00
   15   10   11      5.36      0.00
   16   10   11     -0.45      0.00
   17   10   11     -1.54      0.00
   18   10   11      0.61      0.00
   19   10   11      5.54      0.00
   20   10   11     -4.25      0.00
   21   10   11      2.03      0.00
   -6   11   11      3.72      0.00
   -5   11   11      5.95      0.00
   -4   11   11      4.18      0.00
   -3   11   11     -2.65      0.00
   -2   11   11      0.45      0.00
   -1   11   11      0.17      0.00
    0   11   11     -0.27      0.00
    1   11   11      4.54      0.00
    2   11   11      2.48      0.00
    3   11   11     -2.53      0.00
    4   11   11     -0.83      0.00
    5   11   11     -0.51      0.00
    6   11   11     -1.75      0.00
    7   11   11     -0.89      0.00
    8   11   11      4.77      0.00
    9   11   11      3.54      0.00
   10   11   11     -2.62      0.00
   11   11   11     -0.17      0.00
   12   11   11      9.58      0.00
   13   11   11      0.77      0.00
   14   11   11     -4.40      0.00
   15   11   11      3.56      0.00
   16   11   11     -2.85      0.00
   17   11   11     -1.15      0.00
   18   11   11      1.13      0.00
   19   11   11     -0.49      0.00
   20   11   11      0.14      0.00
   21   11   11      2.77      0.00
   -4   12   11      1.07      0.00
   -3   12   11     -0.24      0.00
   -2   12   11      5.85      0.00
   -1   12   11      0.13      0.00
    0   12   11      1.20      0.00
    1   12   11     -8.33      0.00
    2   12   11     -0.98      0.00
    3   12   11      3.11      0.00
    4   12   11     -1.69      0.00
    5   12   11     -1.55      0.00
    6   12   11      5.13      0.00
    7   12   11     -8.95      0.00
    8   12   11      6.82      0.00
    9   12   11      4.60      0.00
   10   12   11      4.74      0.00
   11   12   11     -4.83      0.00
   12   12   11      0.77      0.00
   13   12   11     -6.35      0.00
   14   12   11     -1.65      0.00
   15   12   11      1.04      0.00
   16   12   11     -7.25      0.00
   17   12   11      2.02      0.00
   18   12   11     -4.49      0.00
   19   12   11     -0.90      0.00
   20   12   11     -2.27      0.00
   21   12   11      5.84      0.00
   -4   13   11      2.54      0.00
   -3   13   11     -2.53      0.00
   -2   13   11      5.48      0.00
   -1   13   11      5.34      0.00
    0   13   11      4.83      0.00
    1   13   11     -5.16      0.00
    2   13   11     -3.27      0.00
    3   13   11     -5.43      0.00
    4   13   11     -1.10      0.00
    5   13   11     -2.74      0.00
    6   13   11      2.17      0.00
    7   13   11     -1.57      0.00
    8   13   11      6.13      0.00
    9   13   11     -2.44      0.00
   10   13   11     -9.51      0.00
   11   13   11      2.09      0.00
   12   13   11      0.97      0.00
   13   13   11      2.29      0.00
   14   13   11      0.24      0.00
   15   13   11      3.06      0.00
   16   13   11     -2.28      0.00
   17   13   11      0.04      0.00
   18   13   11     -2.23      0.00
   19   13   11     -4.50      0.00
   20   13   11     -1.84      0.00
   21   13   11      0.02      0.00
   -3   14   11      1.62      0.00
   -2   14   11      7.87      0.00
   -1   14   11     -3.06      0.00
    0   14   11      3.27      0.00
    1   14   11      0.42      0.00
    2   14   11      6.00      0.00
    3   14   11      2.75      0.00
    4   14   11     -3.28      0.00
    5   14   11     -7.94      0.00
    6   14   11     -1.41      0.00
    7   14   11     -2.25      0.00
    8   14   11      4.18      0.00
    9   14   11     -2.79      0.00
   10   14   11     -6.76      0.00
   11   14   11     -0.47      0.00
   12   14   11      1.73      0.00
   13   14   11     -1.13      0.00
   14   14   11     -3.22      0.00
   15   14   11     -0.51      0.00
   16   14   11     -4.55      0.00
   17   14   11      2.56      0.00
   18   14   11     -3.43      0.00
   19   14   11     -4.22      0.00
   20   14   11      0.59      0.00
   21   14   11      0.61      0.00
   -1   15   11      2.06      0.00
    0   15   11     -2.35      0.00
    1   15   11      1.56      0.00
    2   15   11     -1.94      0.00
    3   15   11      4.73      0.00
    4   15   11     -8.91      0.00
    5   15   11     -0.67      0.00
    6   15   11     -5.18      0.00
    7   15   11     -7.56      0.00
    8   15   11     -2.55      0.00
    9   15   11      1.22      0.00
   10   15   11     -0.29      0.00
   11   15   11      3.31      0.00
   12   15   11     -6.70      0.00
   13   15   11     -1.70      0.00
   14   15   11      2.32      0.00
   15   15   11      6.29      0.00
   16   15   11     -6.05      0.00
   17   15   11     -0.83      0.00
   18   15   11     -4.15      0.00
   19   15   11     -1.39      0.00
   20   15   11      2.68      0.00
    0   16   11     -1.12      0.00
    1   16   11      0.65      0.00
    2   16   11     -1.61      0.00
    3   16   11      0.16      0.00
    4   16   11      1.62      0.00
    5   16   11     -8.32      0.00
    6   16   11      4.51      0.00
    7   16   11     -1.07      0.00
    8   16   11     -5.54      0.00
    9   16   11     -2.75      0.00
   10   16   11     -2.81      0.00
   11   16   11      5.28      0.00
   12   16   11      2.07      0.00
   13   16   11     -3.56      0.00
   14   16   11     -6.80      0.00
   15   16   11     -4.07      0.00
   16   16   11     -5.18      0.00
   17   16   11     -0.04      0.00
   18   16   11      3.98      0.00
   19   16   11     -0.72      0.00
   20   16   11      2.51      0.00
    2   17   11     -5.69      0.00
    3   17   11     -0.72      0.00
    4   17   11     -9.04      0.00
    5   17   11     -2.76      0.00
    6   17   11      0.91      0.00
    7   17   11     -3.46      0.00
    8   17   11     -0.93      0.00
    9   17   11     -0.82      0.00
   10   17   11     -7.14      0.00
   11   17   11     -2.97      0.00
   12   17   11      7.38      0.00
   13   17   11     -4.90      0.00
   14   17   11      1.54      0.00
   15   17   11     -1.44      0.00
   16   17   11     -2.30      0.00
   17   17   11     -2.91      0.00
   18   17   11     -1.18      0.00
   19   17   11     -2.14      0.00
    3   18   11     -7.30      0.00
    4   18   11      1.60      0.00
    5   18   11      1.38      0.00
    6   18   11      8.65      0.00
    7   18   11     -2.63      0.00
    8   18   11     -4.87      0.00
    9   18   11     -6.37      0.00
   10   18   11     -0.34      0.00
   11   18   11      0.15      0.00
   12   18   11     -0.42      0.00
   13   18   11     -5.41      0.00
   14   18   11     -1.21      0.00
   15   18   11     -4.14      0.00
   16   18   11      2.18      0.00
   17   18   11     -2.09      0.00
   18   18   11      0.79      0.00
    5   19   11     -3.06      0.00
    6   19   11     -0.33      0.00
    7   19   11      0.56      0.00
    8   19   11     -5.10      0.00
    9   19   11      0.35      0.00
   10   19   11     -1.82      0.00
   11   19   11      2.56      0.00
   12   19   11      0.64      0.00
   13   19   11     -3.62      0.00
   14   19   11      2.95      0.00
   15   19   11      3.02      0.00
   16   19   11     -0.39      0.00
   17   19   11     -7.18      0.00
    8   20   11      0.74      0.00
    9   20   11     -5.29      0.00
   10   20   11     -6.41      0.00
   11   20   11      2.21      0.00
   12   20   11     -5.71      0.00
   13   20   11     -0.80      0.00
   14   20   11      1.08      0.00
   15   20   11      2.16      0.00
   16   20   11      2.42      0.00
   -8  -19   12      0.43      0.00
   -7  -19   12      1.35      0.00
   -6  -19   12      5.87      0.00
   -5  -19   12     -0.07      0.00
   -4  -19   12      4.60      0.00
   -3  -19   12     -1.65      0.00
   -2  -19   12      3.87      0.00
  -10  -18   12      0.16      0.00
   -9  -18   12      1.90      0.00
   -8  -18   12      0.74      0.00
   -7  -18   12     -3.89      0.00
   -6  -18   12      3.42      0.00
   -5  -18   12     -1.90      0.00
   -4  -18   12      7.20      0.00
   -3  -18   12     -1.76      0.00
   -2  -18   12     -0.93      0.00
   -1  -18   12     -0.19      0.00
    0  -18   12      4.27      0.00
    1  -18   12      2.19      0.00
  -11  -17   12      2.37      0.00
  -10  -17   12      1.52      0.00
   -9  -17   12     -0.27      0.00
   -8  -17   12     -0.75      0.00
   -7  -17   12      1.56      0.00
   -6  -17   12      2.79      0.00
   -5  -17   12     -0.73      0.00
   -4  -17   12      2.45      0.00
   -3  -17   12      2.75      0.00
   -2  -17   12      1.31      0.00
   -1  -17   12     -5.17      0.00
    0  -17   12     -6.02      0.00
    1  -17   12      1.86      0.00
    2  -17   12     -2.02      0.00
    3  -17   12      0.18      0.00
  -12  -16   12      2.48      0.00
  -11  -16   12      2.81      0.00
  -10  -16   12      0.75      0.00
   -9  -16   12      2.83      0.00
   -8  -16   12     -2.35      0.00
   -7  -16   12     -4.89      0.00
   -6  -16   12      0.07      0.00
   -5  -16   12     -1.66      0.00
   -4  -16   12     -1.91      0.00
   -3  -16   12      0.44      0.00
   -2  -16   12     -2.41      0.00
   -1  -16   12      4.63      0.00
    0  -16   12      4.06      0.00
    1  -16   12      0.41      0.00
    2  -16   12      3.25      0.00
    3  -16   12      0.41      0.00
    4  -16   12     -1.12      0.00
    5  -16   12     -6.74      0.00
  -13  -15   12     -4.78      0.00
  -12  -15   12      1.58      0.00
  -11  -15   12     -0.48      0.00
  -10  -15   12      0.80      0.00
   -9  -15   12     -1.81      0.00
   -8  -15   12      1.36      0.00
   -7  -15   12      1.86      0.00
   -6  -15   12      0.53      0.00
   -5  -15   12      3.15      0.00
   -4  -15   12      0.17      0.00
   -3  -15   12      4.58      0.00
   -2  -15   12     -2.59      0.00
   -1  -15   12     -4.45      0.00
    0  -15   12      1.06      0.00
    1  -15   12      1.07      0.00
    2  -15   12     -0.42      0.00
    3  -15   12     -0.67      0.00
    4  -15   12     -1.97      0.00
    5  -15   12      1.19      0.00
    6  -15   12      0.32      0.00
    7  -15   12      1.81      0.00
  -13  -14   12     -4.79      0.00
  -12  -14   12      2.06      0.00
  -11  -14   12     -2.85      0.00
  -10  -14   12     -4.31      0.00
   -9  -14   12     -1.11      0.00
   -8  -14   12     -4.35      0.00
   -7  -14   12      4.98      0.00
   -6  -14   12     -0.64      0.00
   -5  -14   12      0.75      0.00
   -4  -14   12     -5.13      0.00
   -3  -14   12      2.51      0.00
   -2  -14   12     -2.27      0.00
   -1  -14   12      5.34      0.00
    0  -14   12      1.37      0.00
    1  -14   12      3.29      0.00
    2  -14   12     -2.70      0.00
    3  -14   12     -0.47      0.00
    4  -14   12      0.61      0.00
    5  -14   12     -4.53      0.00
    6  -14   12     -6.04      0.00
    7  -14   12     -2.29      0.00
    8  -14   12      0.71      0.00
  -14  -13   12     -3.33      0.00
  -13  -13   12     -4.41      0.00
  -12  -13   12     -1.53      0.00
  -11  -13   12     -1.71      0.00
  -10  -13   12     -2.47      0.00
   -9  -13   12      1.37      0.00
   -8  -13   12     -5.87      0.00
   -7  -13   12      0.89      0.00
   -6  -13   12     -6.08      0.00
   -5  -13   12      0.06      0.00
   -4  -13   12     -4.00      0.00
   -3  -13   12      6.36      0.00
   -2  -13   12     -4.80      0.00
   -1  -13   12     -3.32      0.00
    0  -13   12     -5.59      0.00
    1  -13   12     -7.43      0.00
    2  -13   12      5.45      0.00
    3  -13   12      7.12      0.00
    4  -13   12      1.52      0.00
    5  -13   12     -0.94      0.00
    6  -13   12      1.06      0.00
    7  -13   12      0.92      0.00
    8  -13   12     -2.56      0.00
    9  -13   12      2.81      0.00
  -14  -12   12      3.17      0.00
  -13  -12   12     -3.20      0.00
  -12  -12   12      5.77      0.00
  -11  -12   12     -1.54      0.00
  -10  -12   12     -2.68      0.00
   -9  -12   12      2.70      0.00
   -8  -12   12     -3.70      0.00
   -7  -12   12      4.57      0.00
   -6  -12   12     -3.06      0.00
   -5  -12   12      1.44      0.00
   -4  -12   12     -3.96      0.00
   -3  -12   12     -0.66      0.00
   -2  -12   12     -0.31      0.00
   -1  -12   12      2.05      0.00
    0  -12   12      2.88      0.00
    1  -12   12      0.04      0.00
    2  -12   12     -4.80      0.00
    3  -12   12     -2.40      0.00
    4  -12   12      2.21      0.00
    5  -12   12      1.38      0.00
    6  -12   12      4.15      0.00
    7  -12   12      3.59      0.00
    8  -12   12     -4.76      0.00
    9  -12   12      3.02      0.00
   10  -12   12     -1.03      0.00
  -14  -11   12     -4.07      0.00
  -13  -11   12      0.18      0.00
  -12  -11   12      1.52      0.00
  -11  -11   12      3.20      0.00
  -10  -11   12     -1.31      0.00
   -9  -11   12      4.59      0.00
   -8  -11   12     -1.13      0.00
   -7  -11   12     -0.58      0.00
   -6  -11   12     -4.09      0.00
   -5  -11   12     -1.84      0.00
   -4  -11   12      2.66      0.00
   -3  -11   12      2.33      0.00
   -2  -11   12      2.59      0.00
   -1  -11   12     -0.56      0.00
    0  -11   12     -2.74      0.00
    1  -11   12     -0.02      0.00
    2  -11   12      1.59      0.00
    3  -11   12     -4.27      0.00
    4  -11   12      0.60      0.00
    5  -11   12      0.49      0.00
    6  -11   12      3.44      0.00
    7  -11   12      1.55      0.00
    8  -11   12     -0.73      0.00
    9  -11   12      0.91      0.00
   10  -11   12     -3.98      0.00
   11  -11   12      2.46      0.00
  -14  -10   12     -2.52      0.00
  -13  -10   12     -0.90      0.00
  -12  -10   12     -1.03      0.00
  -11  -10   12      6.06      0.00
  -10  -10   12      2.13      0.00
   -9  -10   12     -0.93      0.00
   -8  -10   12      3.65      0.00
   -7  -10   12     -1.39      0.00
   -6  -10   12     -2.09      0.00
   -5  -10   12     -3.06      0.00
   -4  -10   12      4.01      0.00
   -3  -10   12     -0.72      0.00
   -2  -10   12     -1.36      0.00
   -1  -10   12     -0.56      0.00
    0  -10   12      1.42      0.00
    1  -10   12      4.01      0.00
    2  -10   12      0.23      0.00
    3  -10   12     -4.44      0.00
    4  -10   12     -3.03      0.00
    5  -10   12     -3.12      0.00
    6  -10   12     -9.83      0.00
    7  -10   12      5.11      0.00
    8  -10   12     -0.42      0.00
    9  -10   12      5.20      0.00
   10  -10   12     -2.42      0.00
   11  -10   12     -0.08      0.00
   12  -10   12     -2.28      0.00
  -14   -9   12     -3.12      0.00
  -13   -9   12      3.50      0.00
  -12   -9   12     -6.76      0.00
  -11   -9   12      4.00      0.00
  -10   -9   12      0.10      0.00
   -9   -9   12     -1.62      0.00
   -8   -9   12      4.85      0.00
   -7   -9   12      1.76      0.00
   -6   -9   12      2.25      0.00
   -5   -9   12     -3.41      0.00
   -4   -9   12      3.51      0.00
   -3   -9   12     -1.68      0.00
   -2   -9   12      0.61      0.00
   -1   -9   12      6.17      0.00
    0   -9   12     -0.18      0.00
    1   -9   12     -2.19      0.00
    2   -9   12     -4.23      0.00
    3   -9   12     -2.00      0.00
    4   -9   12     -5.25      0.00
    5   -9   12     10.42      0.00
    6   -9   12     -0.55      0.00
    7   -9   12     -3.11      0.00
    8   -9   12      1.12      0.00
    9   -9   12     -4.50      0.00
   10   -9   12     -2.34      0.00
   11   -9   12      2.57      0.00
   12   -9   12      1.96      0.00
   13   -9   12     -0.82      0.00
  -14   -8   12      0.72      0.00
  -13   -8   12      1.39      0.00
  -12   -8   12     -8.51      0.00
  -11   -8   12      0.69      0.00
  -10   -8   12      1.69      0.00
   -9   -8   12     -1.65      0.00
   -8   -8   12      2.19      0.00
   -7   -8   12     -2.14      0.00
   -6   -8   12      2.34      0.00
   -5   -8   12     -3.45      0.00
   -4   -8   12     11.08      0.00
   -3   -8   12      6.59      0.00
   -2   -8   12     -6.15      0.00
   -1   -8   12     -0.25      0.00
    0   -8   12     -1.21      0.00
    1   -8   12      1.25      0.00
    2   -8   12      5.49      0.00
    3   -8   12      0.74      0.00
    4   -8   12     -1.68      0.00
    5   -8   12     -1.95      0.00
    6   -8   12     -2.99      0.00
    7   -8   12     -1.00      0.00
    8   -8   12      7.15      0.00
    9   -8   12      2.65      0.00
   10   -8   12     -0.79      0.00
   11   -8   12     -1.48      0.00
   12   -8   12     -2.81      0.00
   13   -8   12      0.80      0.00
   14   -8   12     -4.37      0.00
  -14   -7   12      1.93      0.00
  -13   -7   12     -3.14      0.00
  -12   -7   12      0.97      0.00
  -11   -7   12      1.56      0.00
  -10   -7   12      5.51      0.00
   -9   -7   12     -1.65      0.00
   -8   -7   12     -0.61      0.00
   -7   -7   12      0.30      0.00
   -6   -7   12      5.86      0.00
   -5   -7   12      2.56      0.00
   -4   -7   12     -3.03      0.00
   -3   -7   12      4.62      0.00
   -2   -7   12      2.64      0.00
   -1   -7   12      7.73      0.00
    0   -7   12      7.81      0.00
    1   -7   12     -5.06      0.00
    2   -7   12     -8.50      0.00
    3   -7   12     10.27      0.00
    4   -7   12      0.68      0.00
    5   -7   12      3.84      0.00
    6   -7   12      5.46      0.00
    7   -7   12      1.60      0.00
    8   -7   12      4.64      0.00
    9   -7   12      1.86      0.00
   10   -7   12      2.74      0.00
   11   -7   12      0.19      0.00
   12   -7   12      3.30      0.00
   13   -7   12      1.84      0.00
   14   -7   12     -1.26      0.00
   15   -7   12      1.77      0.00
  -14   -6   12      1.77      0.00
  -13   -6   12     -5.96      0.00
  -12   -6   12     -5.55      0.00
  -11   -6   12      2.76      0.00
  -10   -6   12      1.93      0.00
   -9   -6   12     -3.83      0.00
   -8   -6   12     -0.50      0.00
   -7   -6   12     -1.43      0.00
   -6   -6   12     -6.73      0.00
   -5   -6   12      0.02      0.00
   -4   -6   12      5.92      0.00
   -3   -6   12     15.91      0.00
   -2   -6   12     -3.53      0.00
   -1   -6   12     -2.70      0.00
    0   -6   12     -3.65      0.00
    1   -6   12      2.99      0.00
    2   -6   12      2.85      0.00
    3   -6   12     -1.73      0.00
    4   -6   12      2.53      0.00
    5   -6   12     -8.03      0.00
    6   -6   12     10.51      0.00
    7   -6   12     -9.69      0.00
    8   -6   12     14.95      0.00
    9   -6   12     -1.04      0.00
   10   -6   12      2.23      0.00
   11   -6   12     -3.53      0.00
   12   -6   12     -4.43      0.00
   13   -6   12      0.90      0.00
   14   -6   12      0.14      0.00
   15   -6   12     -2.75      0.00
  -14   -5   12      1.79      0.00
  -13   -5   12     -0.18      0.00
  -12   -5   12      2.89      0.00
  -11   -5   12     -0.57      0.00
  -10   -5   12     -5.37      0.00
   -9   -5   12      1.99      0.00
   -8   -5   12     -0.68      0.00
   -7   -5   12      1.53      0.00
   -6   -5   12     -7.04      0.00
   -5   -5   12      5.66      0.00
   -4   -5   12    -13.08      0.00
   -3   -5   12      0.89      0.00
   -2   -5   12      6.66      0.00
   -1   -5   12      1.26      0.00
    0   -5   12      6.84      0.00
    1   -5   12     -7.08      0.00
    2   -5   12      4.48      0.00
    3   -5   12     -1.42      0.00
    4   -5   12     17.76      0.00
    5   -5   12    -19.72      0.00
    6   -5   12      0.48      0.00
    7   -5   12     -0.42      0.00
    8   -5   12     -6.58      0.00
    9   -5   12      7.54      0.00
   10   -5   12     -1.09      0.00
   11   -5   12     -5.76      0.00
   12   -5   12      0.27      0.00
   13   -5   12      2.11      0.00
   14   -5   12     -1.30      0.00
   15   -5   12      0.70      0.00
   16   -5   12     -2.19      0.00
  -13   -4   12     -1.56      0.00
  -12   -4   12     -3.20      0.00
  -11   -4   12      2.91      0.00
  -10   -4   12     -8.84      0.00
   -9   -4   12     -0.53      0.00
   -8   -4   12     -7.56      0.00
   -7   -4   12     -2.41      0.00
   -6   -4   12     -6.25      0.00
   -5   -4   12      6.78      0.00
   -4   -4   12     -3.66      0.00
   -3   -4   12     -0.66      0.00
   -2   -4   12     -0.38      0.00
   -1   -4   12    -11.98      0.00
    0   -4   12      6.15      0.00
    1   -4   12     -0.37      0.00
    2   -4   12      9.30      0.00
    3   -4   12     -8.60      0.00
    4   -4   12      3.50      0.00
    5   -4   12     -8.50      0.00
    6   -4   12     16.85      0.00
    7   -4   12    -14.89      0.00
    8   -4   12     10.61      0.00
    9   -4   12    -12.09      0.00
   10   -4   12     -3.21      0.00
   11   -4   12      1.96      0.00
   12   -4   12      1.55      0.00
   13   -4   12     -1.94      0.00
   14   -4   12      0.25      0.00
   15   -4   12     -4.34      0.00
   16   -4   12     -5.62      0.00
  -13   -3   12      2.19      0.00
  -12   -3   12     -0.56      0.00
  -11   -3   12     11.84      0.00
  -10   -3   12     -4.81      0.00
   -9   -3   12      6.31      0.00
   -8   -3   12     -1.40      0.00
   -7   -3   12     -0.67      0.00
   -6   -3   12     -5.95      0.00
   -5   -3   12      6.17      0.00
   -4   -3   12     -0.54      0.00
   -3   -3   12     -6.18      0.00
   -2   -3   12      1.30      0.00
   -1   -3   12     -1.99      0.00
    0   -3   12     -1.90      0.00
    1   -3   12     -5.43      0.00
    2   -3   12     26.67      0.00
    3   -3   12    -10.04      0.00
    4   -3   12     26.72      0.00
    5   -3   12    -25.51      0.00
    6   -3   12     -8.52      0.00
    7   -3   12     -8.60      0.00
    8   -3   12      5.44      0.00
    9   -3   12      2.29      0.00
   10   -3   12     -1.40      0.00
   11   -3   12     -1.71      0.00
   12   -3   12     -5.69      0.00
   13   -3   12      6.93      0.00
   14   -3   12      1.30      0.00
   15   -3   12      2.83      0.00
   16   -3   12     -1.66      0.00
   17   -3   12      1.74      0.00
  -13   -2   12      2.08      0.00
  -12   -2   12      2.69      0.00
  -11   -2   12      4.24      0.00
  -10   -2   12      3.77      0.00
   -9   -2   12      4.86      0.00
   -8   -2   12     -2.72      0.00
   -7   -2   12      0.92      0.00
   -6   -2   12      0.79      0.00
   -5   -2   12      3.01      0.00
   -4   -2   12     -8.85      0.00
   -3   -2   12     -5.89      0.00
   -2   -2   12     -2.19      0.00
   -1   -2   12     -5.74      0.00
    0   -2   12      3.30      0.00
    1   -2   12     -9.98      0.00
    2   -2   12    -11.62      0.00
    3   -2   12     -8.42      0.00
    4   -2   12      1.18      0.00
    5   -2   12      3.25      0.00
    6   -2   12     22.42      0.00
    7   -2   12     -9.14      0.00
    8   -2   12    -15.39      0.00
    9   -2   12     -3.10      0.00
   10   -2   12     -3.94      0.00
   11   -2   12     -1.39      0.00
   12   -2   12      3.67      0.00
   13   -2   12     -7.52      0.00
   14   -2   12     -0.32      0.00
   15   -2   12      1.06      0.00
   16   -2   12     -1.77      0.00
   17   -2   12      4.17      0.00
   18   -2   12      0.81      0.00
  -13   -1   12      6.24      0.00
  -12   -1   12      2.23      0.00
  -11   -1   12      2.33      0.00
  -10   -1   12     -2.88      0.00
   -9   -1   12      3.75      0.00
   -8   -1   12     -4.32      0.00
   -7   -1   12     -2.94      0.00
   -6   -1   12      2.59      0.00
   -5   -1   12      0.70      0.00
   -4   -1   12     -0.96      0.00
   -3   -1   12      2.86      0.00
   -2   -1   12    -12.12      0.00
   -1   -1   12     -6.27      0.00
    0   -1   12     -5.80      0.00
    1   -1   12    -13.25      0.00
    2   -1   12      7.81      0.00
    3   -1   12     -4.61      0.00
    4   -1   12     -0.64      0.00
    5   -1   12    -20.43      0.00
    6   -1   12    -15.51      0.00
    7   -1   12     -4.81      0.00
    8   -1   12     13.76      0.00
    9   -1   12    -10.55      0.00
   10   -1   12    -11.09      0.00
   11   -1   12     -1.75      0.00
   12   -1   12     -7.59      0.00
   13   -1   12      4.60      0.00
   14   -1   12      3.76      0.00
   15   -1   12     -2.26      0.00
   16   -1   12     -0.70      0.00
   17   -1   12     -1.66      0.00
   18   -1   12     -2.08      0.00
  -12    0   12     -1.66      0.00
  -11    0   12     -4.78      0.00
  -10    0   12     -4.27      0.00
   -9    0   12    -10.31      0.00
   -8    0   12     -0.28      0.00
   -7    0   12      2.53      0.00
   -6    0   12      4.28      0.00
   -5    0   12      1.61      0.00
   -4    0   12    -13.85      0.00
   -3    0   12      0.56      0.00
   -2    0   12     -6.83      0.00
   -1    0   12     -8.17      0.00
    0    0   12     -8.54      0.00
    1    0   12     -4.36      0.00
    2    0   12    -30.41      0.00
    3    0   12     -8.89      0.00
    4    0   12     15.21      0.00
    5    0   12     -5.48      0.00
    6    0   12     -5.21      0.00
    7    0   12     -0.57      0.00
    8    0   12    -24.12      0.00
    9    0   12      1.20      0.00
   10    0   12      3.31      0.00
   11    0   12     -7.65      0.00
   12    0   12      0.07      0.00
   13    0   12    -10.47      0.00
   14    0   12      0.44      0.00
   15    0   12     -0.55      0.00
   16    0   12      5.06      0.00
   17    0   12      2.74      0.00
   18    0   12      5.56      0.00
   19    0   12      1.50      0.00
  -12    1   12     -3.92      0.00
  -11    1   12     -4.01      0.00
  -10    1   12      2.15      0.00
   -9    1   12      5.59      0.00
   -8    1   12     -3.21      0.00
   -7    1   12     -4.20      0.00
   -6    1   12      6.72      0.00
   -5    1   12      4.61      0.00
   -4    1   12     -3.28      0.00
   -3    1   12      4.11      0.00
   -2    1   12    -15.96      0.00
   -1    1   12    -11.41      0.00
    0    1   12      8.61      0.00
    1    1   12      5.88      0.00
    2    1   12     -5.62      0.00
    3    1   12      3.17      0.00
    4    1   12    -11.06      0.00
    5    1   12     -8.79      0.00
    6    1   12     -0.56      0.00
    7    1   12     -3.45      0.00
    8    1   12     19.11      0.00
    9    1   12     -8.88      0.00
   10    1   12     -2.59      0.00
   11    1   12     -1.60      0.00
   12    1   12      5.76      0.00
   13    1   12     -0.60      0.00
   14    1   12      6.12      0.00
   15    1   12     -5.78      0.00
   16    1   12     -4.45      0.00
   17    1   12      1.42      0.00
   18    1   12     -1.55      0.00
   19    1   12      1.45      0.00
  -11    2   12     -1.79      0.00
  -10    2   12     -6.68      0.00
   -9    2   12     -4.29      0.00
   -8    2   12     -0.91      0.00
   -7    2   12      3.06      0.00
   -6    2   12      6.81      0.00
   -5    2   12     -1.38      0.00
   -4    2   12     -1.08      0.00
   -3    2   12      5.63      0.00
   -2    2   12     -1.04      0.00
   -1    2   12     -5.55      0.00
    0    2   12     -8.51      0.00
    1    2   12     -1.94      0.00
    2    2   12      1.09      0.00
    3    2   12     -4.48      0.00
    4    2   12     13.57      0.00
    5    2   12     -1.75      0.00
    6    2   12    -12.41      0.00
    7    2   12     10.83      0.00
    8    2   12     -0.56      0.00
    9    2   12      0.89      0.00
   10    2   12      7.60      0.00
   11    2   12     -0.56      0.00
   12    2   12     -5.07      0.00
   13    2   12     -0.74      0.00
   14    2   12      0.47      0.00
   15    2   12     -0.25      0.00
   16    2   12      4.30      0.00
   17    2   12     -3.62      0.00
   18    2   12      0.59      0.00
   19    2   12      3.50      0.00
   20    2   12      3.28      0.00
  -11    3   12      6.55      0.00
  -10    3   12     -3.22      0.00
   -9    3   12     -0.32      0.00
   -8    3   12     -5.32      0.00
   -7    3   12     -4.60      0.00
   -6    3   12      1.44      0.00
   -5    3   12      4.20      0.00
   -4    3   12      0.00      0.00
   -3    3   12      5.38      0.00
   -2    3   12      3.48      0.00
   -1    3   12     -1.93      0.00
    0    3   12     21.50      0.00
    1    3   12     -9.27      0.00
    2    3   12    -12.11      0.00
    3    3   12      2.55      0.00
    4    3   12     -9.85      0.00
    5    3   12      1.68      0.00
    6    3   12     13.34      0.00
    7    3   12     -2.06      0.00
    8    3   12     -3.92      0.00
    9    3   12      2.17      0.00
   10    3   12     -0.05      0.00
   11    3   12      2.71      0.00
   12    3   12      9.51      0.00
   13    3   12     -6.27      0.00
   14    3   12      0.30      0.00
   15    3   12      0.51      0.00
   16    3   12     -7.29      0.00
   17    3   12      4.41      0.00
   18    3   12     -3.31      0.00
   19    3   12     -3.79      0.00
   20    3   12     -1.28      0.00
  -10    4   12     -6.90      0.00
   -9    4   12     -2.24      0.00
   -8    4   12      2.96      0.00
   -7    4   12     -3.96      0.00
   -6    4   12      4.65      0.00
   -5    4   12     -9.67      0.00
   -4    4   12      5.61      0.00
   -3    4   12      4.76      0.00
   -2    4   12      4.63      0.00
   -1    4   12      0.46      0.00
    0    4   12      5.66      0.00
    1    4   12    -11.19      0.00
    2    4   12     19.91      0.00
    3    4   12     -3.67      0.00
    4    4   12    -19.90      0.00
    5    4   12     -2.12      0.00
    6    4   12     -5.66      0.00
    7    4   12      0.77      0.00
    8    4   12      7.09      0.00
    9    4   12      0.48      0.00
   10    4   12     -3.55      0.00
   11    4   12      4.24      0.00
   12    4   12    -10.92      0.00
   13    4   12      8.68      0.00
   14    4   12     -0.80      0.00
   15    4   12      2.44      0.00
   16    4   12      2.65      0.00
   17    4   12      2.35      0.00
   18    4   12     -0.61      0.00
   19    4   12      0.77      0.00
   20    4   12      0.47      0.00
  -10    5   12     -1.94      0.00
   -9    5   12      5.87      0.00
   -8    5   12     -1.62      0.00
   -7    5   12      0.16      0.00
   -6    5   12      3.65      0.00
   -5    5   12     -0.22      0.00
   -4    5   12      2.65      0.00
   -3    5   12     -0.47      0.00
   -2    5   12      9.23      0.00
   -1    5   12      8.15      0.00
    0    5   12     15.88      0.00
    1    5   12     -9.19      0.00
    2    5   12     -3.64      0.00
    3    5   12      0.01      0.00
    4    5   12     -4.45      0.00
    5    5   12     -8.13      0.00
    6    5   12      3.49      0.00
    7    5   12      5.80      0.00
    8    5   12    -15.49      0.00
    9    5   12     14.47      0.00
   10    5   12      4.24      0.00
   11    5   12      3.99      0.00
   12    5   12      5.99      0.00
   13    5   12     -0.59      0.00
   14    5   12     -2.79      0.00
   15    5   12      1.08      0.00
   16    5   12     -1.29      0.00
   17    5   12      1.21      0.00
   18    5   12     -1.98      0.00
   19    5   12     -6.44      0.00
   20    5   12     -2.05      0.00
   -9    6   12     -0.40      0.00
   -8    6   12      1.37      0.00
   -7    6   12     -1.20      0.00
   -6    6   12      0.24      0.00
   -5    6   12     -4.54      0.00
   -4    6   12      3.26      0.00
   -3    6   12      1.60      0.00
   -2    6   12      3.30      0.00
   -1    6   12     -1.18      0.00
    0    6   12      8.53      0.00
    1    6   12     -1.62      0.00
    2    6   12     22.97      0.00
    3    6   12     19.62      0.00
    4    6   12    -17.25      0.00
    5    6   12     -4.81      0.00
    6    6   12      5.06      0.00
    7    6   12     -2.41      0.00
    8    6   12      8.97      0.00
    9    6   12      0.61      0.00
   10    6   12      0.73      0.00
   11    6   12      7.97      0.00
   12    6   12      3.16      0.00
   13    6   12      6.10      0.00
   14    6   12     -2.45      0.00
   15    6   12     -2.38      0.00
   16    6   12     -3.61      0.00
   17    6   12     -1.31      0.00
   18    6   12      0.45      0.00
   19    6   12      0.25      0.00
   20    6   12      3.99      0.00
   21    6   12     -2.74      0.00
   -8    7   12     -4.30      0.00
   -7    7   12     -2.66      0.00
   -6    7   12     -4.60      0.00
   -5    7   12      0.12      0.00
   -4    7   12      0.95      0.00
   -3    7   12     -0.24      0.00
   -2    7   12      3.76      0.00
   -1    7   12      2.69      0.00
    0    7   12      2.84      0.00
    1    7   12      3.28      0.00
    2    7   12      1.34      0.00
    3    7   12     -1.49      0.00
    4    7   12     18.00      0.00
    5    7   12      8.93      0.00
    6    7   12      6.06      0.00
    7    7   12     -5.17      0.00
    8    7   12     -9.90      0.00
    9    7   12      0.92      0.00
   10    7   12      3.48      0.00
   11    7   12      1.43      0.00
   12    7   12      2.24      0.00
   13    7   12      5.20      0.00
   14    7   12     -4.53      0.00
   15    7   12     -1.82      0.00
   16    7   12     -5.35      0.00
   17    7   12     -6.34      0.00
   18    7   12     -0.03      0.00
   19    7   12     -3.05      0.00
   20    7   12      2.25      0.00
   21    7   12     -1.95      0.00
   -7    8   12      1.79      0.00
   -6    8   12     -3.32      0.00
   -5    8   12     -0.24      0.00
   -4    8   12    -11.68      0.00
   -3    8   12     -0.66      0.00
   -2    8   12     -2.21      0.00
   -1    8   12     -0.57      0.00
    0    8   12      6.90      0.00
    1    8   12     -1.45      0.00
    2    8   12      6.40      0.00
    3    8   12     10.56      0.00
    4    8   12      2.80      0.00
    5    8   12      0.28      0.00
    6    8   12     16.87      0.00
    7    8   12     -4.98      0.00
    8    8   12     -3.17      0.00
    9    8   12    -11.04      0.00
   10    8   12     -2.79      0.00
   11    8   12     -2.41      0.00
   12    8   12      1.89      0.00
   13    8   12     -4.81      0.00
   14    8   12      1.94      0.00
   15    8   12      4.58      0.00
   16    8   12     -2.49      0.00
   17    8   12      3.14      0.00
   18    8   12      0.59      0.00
   19    8   12     -5.53      0.00
   20    8   12     -2.40      0.00
   21    8   12     -2.43      0.00
   -7    9   12     -0.11      0.00
   -6    9   12     -7.15      0.00
   -5    9   12     -3.70      0.00
   -4    9   12     -1.21      0.00
   -3    9   12      0.59      0.00
   -2    9   12     -2.17      0.00
   -1    9   12     -3.40      0.00
    0    9   12     -5.25      0.00
    1    9   12     -5.47      0.00
    2    9   12      1.33      0.00
    3    9   12     -3.16      0.00
    4    9   12      6.31      0.00
    5    9   12      1.91      0.00
    6    9   12      8.40      0.00
    7    9   12     -2.27      0.00
    8    9   12     10.39      0.00
    9    9   12     -5.89      0.00
   10    9   12     -0.92      0.00
   11    9   12     -4.27      0.00
   12    9   12     -2.41      0.00
   13    9   12     -2.63      0.00
   14    9   12     -0.56      0.00
   15    9   12      4.96      0.00
   16    9   12      3.70      0.00
   17    9   12     -0.61      0.00
   18    9   12      0.51      0.00
   19    9   12     -1.25      0.00
   20    9   12     -0.61      0.00
   21    9   12     -0.66      0.00
   -6   10   12     -6.20      0.00
   -5   10   12     -1.25      0.00
   -4   10   12     -6.05      0.00
   -3   10   12      3.56      0.00
   -2   10   12     -2.60      0.00
   -1   10   12     -2.44      0.00
    0   10   12      3.47      0.00
    1   10   12     -0.89      0.00
    2   10   12     -2.21      0.00
    3   10   12     -5.70      0.00
    4   10   12      0.76      0.00
    5   10   12     -1.90      0.00
    6   10   12      5.04      0.00
    7   10   12     -3.76      0.00
    8   10   12      1.49      0.00
    9   10   12      0.67      0.00
   10   10   12      3.69      0.00
   11   10   12      0.53      0.00
   12   10   12      9.89      0.00
   13   10   12     -9.62      0.00
   14   10   12     -2.30      0.00
   15   10   12      3.36      0.00
   16   10   12      1.48      0.00
   17   10   12     -1.95      0.00
   18   10   12     -1.32      0.00
   19   10   12     -2.87      0.00
   20   10   12     -0.36      0.00
   21   10   12     -3.23      0.00
   -5   11   12     -4.95      0.00
   -4   11   12      2.54      0.00
   -3   11   12     -0.65      0.00
   -2   11   12     -1.76      0.00
   -1   11   12     -6.24      0.00
    0   11   12     -7.57      0.00
    1   11   12     -8.12      0.00
    2   11   12      3.82      0.00
    3   11   12      1.04      0.00
    4   11   12     -1.08      0.00
    5   11   12     -3.89      0.00
    6   11   12      5.35      0.00
    7   11   12    -13.93      0.00
    8   11   12     10.70      0.00
    9   11   12     -0.21      0.00
   10   11   12      3.67      0.00
   11   11   12     -5.90      0.00
   12   11   12     -0.99      0.00
   13   11   12      0.46      0.00
   14   11   12     -2.92      0.00
   15   11   12      0.22      0.00
   16   11   12      2.41      0.00
   17   11   12      1.11      0.00
   18   11   12     -1.13      0.00
   19   11   12      1.00      0.00
   20   11   12      0.84      0.00
   21   11   12      2.89      0.00
   -4   12   12     -2.81      0.00
   -3   12   12     -4.66      0.00
   -2   12   12      3.47      0.00
   -1   12   12     -2.83      0.00
    0   12   12     -1.65      0.00
    1   12   12     -3.42      0.00
    2   12   12      1.70      0.00
    3   12   12     -6.18      0.00
    4   12   12      7.94      0.00
    5   12   12     -2.23      0.00
    6   12   12      6.47      0.00
    7   12   12     -2.45      0.00
    8   12   12     -3.54      0.00
    9   12   12     -4.25      0.00
   10   12   12      0.80      0.00
   11   12   12      5.91      0.00
   12   12   12      5.15      0.00
   13   12   12     -3.98      0.00
   14   12   12     -2.72      0.00
   15   12   12     -1.86      0.00
   16   12   12      1.43      0.00
   17   12   12     -1.46      0.00
   18   12   12     -3.64      0.00
   19   12   12     -6.56      0.00
   20   12   12     -1.60      0.00
   21   12   12      0.64      0.00
   -3   13   12     -7.35      0.00
   -2   13   12      2.73      0.00
   -1   13   12     -4.29      0.00
    0   13   12      2.09      0.00
    1   13   12      0.37      0.00
    2   13   12      3.05      0.00
    3   13   12      0.05      0.00
    4   13   12     -3.80      0.00
    5   13   12     -1.75      0.00
    6   13   12      4.84      0.00
    7   13   12      1.13      0.00
    8   13   12      5.77      0.00
    9   13   12     -4.76      0.00
   10   13   12      1.20      0.00
   11   13   12     -2.85      0.00
   12   13   12      3.67      0.00
   13   13   12     -3.60      0.00
   14   13   12     -0.84      0.00
   15   13   12      4.42      0.00
   16   13   12     -0.86      0.00
   17   13   12      6.29      0.00
   18   13   12     -1.66      0.00
   19   13   12      2.28      0.00
   20   13   12      0.70      0.00
   21   13   12      2.34      0.00
   -2   14   12      7.55      0.00
   -1   14   12     -0.92      0.00
    0   14   12      0.24      0.00
    1   14   12      0.71      0.00
    2   14   12      0.84      0.00
    3   14   12      1.69      0.00
    4   14   12      4.00      0.00
    5   14   12      0.65      0.00
    6   14   12     -5.75      0.00
    7   14   12      3.38      0.00
    8   14   12      3.58      0.00
    9   14   12      5.11      0.00
   10   14   12     -2.63      0.00
   11   14   12     -0.68      0.00
   12   14   12     -3.72      0.00
   13   14   12      4.40      0.00
   14   14   12      6.31      0.00
   15   14   12      2.10      0.00
   16   14   12     -4.67      0.00
   17   14   12     -1.02      0.00
   18   14   12     -1.24      0.00
   19   14   12     -1.22      0.00
   20   14   12     -5.72      0.00
   -1   15   12     -8.75      0.00
    0   15   12      1.28      0.00
    1   15   12     -3.42      0.00
    2   15   12      4.68      0.00
    3   15   12      5.82      0.00
    4   15   12     -2.63      0.00
    5   15   12      0.26      0.00
    6   15   12      6.39      0.00
    7   15   12      5.80      0.00
    8   15   12     -4.25      0.00
    9   15   12      0.79      0.00
   10   15   12      8.84      0.00
   11   15   12      6.22      0.00
   12   15   12      0.69      0.00
   13   15   12     -6.08      0.00
   14   15   12     -1.88      0.00
   15   15   12      3.51      0.00
   16   15   12      0.79      0.00
   17   15   12      5.78      0.00
   18   15   12     -0.22      0.00
   19   15   12      0.28      0.00
   20   15   12      0.74      0.00
    1   16   12     -2.31      0.00
    2   16   12     -1.61      0.00
    3   16   12      2.51      0.00
    4   16   12     -1.22      0.00
    5   16   12      6.48      0.00
    6   16   12     -1.69      0.00
    7   16   12      4.15      0.00
    8   16   12     -0.31      0.00
    9   16   12      1.25      0.00
   10   16   12      5.34      0.00
   11   16   12      8.17      0.00
   12   16   12      3.21      0.00
   13   16   12      4.37      0.00
   14   16   12      3.04      0.00
   15   16   12      1.48      0.00
   16   16   12     -4.47      0.00
   17   16   12     -0.09      0.00
   18   16   12     -1.88      0.00
   19   16   12      3.21      0.00
   20   16   12     -5.70      0.00
    2   17   12      4.78      0.00
    3   17   12      1.68      0.00
    4   17   12      8.55      0.00
    5   17   12      6.79      0.00
    6   17   12      2.95      0.00
    7   17   12     -0.69      0.00
    8   17   12     -3.41      0.00
    9   17   12      5.78      0.00
   10   17   12      4.78      0.00
   11   17   12     -2.49      0.00
   12   17   12      3.10      0.00
   13   17   12      6.46      0.00
   14   17   12      3.72      0.00
   15   17   12      2.76      0.00
   16   17   12      2.96      0.00
   17   17   12      4.06      0.00
   18   17   12      3.06      0.00
   19   17   12     -0.15      0.00
    4   18   12     -3.57      0.00
    5   18   12      6.62      0.00
    6   18   12      1.50      0.00
    7   18   12      2.07      0.00
    8   18   12      1.60      0.00
    9   18   12      3.92      0.00
   10   18   12      3.88      0.00
   11   18   12      4.20      0.00
   12   18   12      2.84      0.00
   13   18   12      9.12      0.00
   14   18   12      0.79      0.00
   15   18   12      6.64      0.00
   16   18   12      0.90      0.00
   17   18   12      3.91      0.00
   18   18   12     -0.23      0.00
    6   19   12     -4.33      0.00
    7   19   12     -0.89      0.00
    8   19   12      2.63      0.00
    9   19   12     -3.55      0.00
   10   19   12      4.77      0.00
   11   19   12      2.77      0.00
   12   19   12     -0.79      0.00
   13   19   12      4.78      0.00
   14   19   12      0.63      0.00
   15   19   12      4.56      0.00
   16   19   12      6.68      0.00
   17   19   12      0.69      0.00
   10   20   12     -0.04      0.00
   11   20   12     -1.07      0.00
   12   20   12      1.07      0.00
   13   20   12      2.87      0.00
   14   20   12     -0.26      0.00
   -6  -19   13      2.65      0.00
   -5  -19   13     -2.33      0.00
   -4  -19   13      1.57      0.00
   -3  -19   13     -2.09      0.00
   -9  -18   13     -2.73      0.00
   -8  -18   13      3.86      0.00
   -7  -18   13      2.94      0.00
   -6  -18   13      1.84      0.00
   -5  -18   13     -3.39      0.00
   -4  -18   13     -1.41      0.00
   -3  -18   13     -0.45      0.00
   -2  -18   13     -3.83      0.00
   -1  -18   13     -4.09      0.00
    0  -18   13     -4.01      0.00
  -10  -17   13      1.97      0.00
   -9  -17   13     -3.36      0.00
   -8  -17   13      2.02      0.00
   -7  -17   13     -3.86      0.00
   -6  -17   13      3.84      0.00
   -5  -17   13     -3.36      0.00
   -4  -17   13      0.37      0.00
   -3  -17   13     -2.48      0.00
   -2  -17   13     -0.17      0.00
   -1  -17   13      2.33      0.00
    0  -17   13     -3.39      0.00
    1  -17   13     -0.16      0.00
    2  -17   13     -0.67      0.00
    3  -17   13      0.89      0.00
  -11  -16   13      1.93      0.00
  -10  -16   13     -0.88      0.00
   -9  -16   13      0.63      0.00
   -8  -16   13      2.09      0.00
   -7  -16   13      0.09      0.00
   -6  -16   13      0.04      0.00
   -5  -16   13     -1.01      0.00
   -4  -16   13     -0.90      0.00
   -3  -16   13     -1.92      0.00
   -2  -16   13      0.24      0.00
   -1  -16   13     -6.03      0.00
    0  -16   13     -0.54      0.00
    1  -16   13      2.16      0.00
    2  -16   13     -0.57      0.00
    3  -16   13      3.39      0.00
    4  -16   13      3.00      0.00
    5  -16   13      0.36      0.00
  -12  -15   13      0.93      0.00
  -11  -15   13      0.60      0.00
  -10  -15   13     -0.20      0.00
   -9  -15   13     -2.32      0.00
   -8  -15   13     -2.72      0.00
   -7  -15   13     -2.51      0.00
   -6  -15   13      0.42      0.00
   -5  -15   13     -0.93      0.00
   -4  -15   13      0.66      0.00
   -3  -15   13      0.81      0.00
   -2  -15   13      5.31      0.00
   -1  -15   13      3.43      0.00
    0  -15   13      3.18      0.00
    1  -15   13      2.16      0.00
    2  -15   13     -4.45      0.00
    3  -15   13      2.29      0.00
    4  -15   13     -4.39      0.00
    5  -15   13     -8.15      0.00
    6  -15   13     -5.42      0.00
  -12  -14   13      1.65      0.00
  -11  -14   13      2.92      0.00
  -10  -14   13     -2.63      0.00
   -9  -14   13      2.12      0.00
   -8  -14   13     -7.06      0.00
   -7  -14   13      5.42      0.00
   -6  -14   13     -3.77      0.00
   -5  -14   13      6.37      0.00
   -4  -14   13     -1.07      0.00
   -3  -14   13      4.78      0.00
   -2  -14   13     -1.75      0.00
   -1  -14   13     -4.57      0.00
    0  -14   13      2.16      0.00
    1  -14   13      1.33      0.00
    2  -14   13      6.82      0.00
    3  -14   13     -0.76      0.00
    4  -14   13      1.03      0.00
    5  -14   13     -3.17      0.00
    6  -14   13     -0.09      0.00
    7  -14   13     -7.75      0.00
    8  -14   13     -1.96      0.00
  -13  -13   13     -0.21      0.00
  -12  -13   13      1.51      0.00
  -11  -13   13     -3.80      0.00
  -10  -13   13     -5.31      0.00
   -9  -13   13      2.60      0.00
   -8  -13   13     -6.36      0.00
   -7  -13   13      1.90      0.00
   -6  -13   13     -4.65      0.00
   -5  -13   13     -1.75      0.00
   -4  -13   13     -2.09      0.00
   -3  -13   13      1.21      0.00
   -2  -13   13      6.97      0.00
   -1  -13   13     -0.79      0.00
    0  -13   13      3.82      0.00
    1  -13   13     -7.32      0.00
    2  -13   13     -5.04      0.00
    3  -13   13     -0.86      0.00
    4  -13   13      6.38      0.00
    5  -13   13     -5.43      0.00
    6  -13   13     -1.83      0.00
    7  -13   13     -1.42      0.00
    8  -13   13     -2.79      0.00
    9  -13   13     -0.11      0.00
  -13  -12   13      0.46      0.00
  -12  -12   13      3.06      0.00
  -11  -12   13      3.44      0.00
  -10  -12   13     -1.57      0.00
   -9  -12   13      4.83      0.00
   -8  -12   13     -7.26      0.00
   -7  -12   13      3.40      0.00
   -6  -12   13     -4.85      0.00
   -5  -12   13      5.48      0.00
   -4  -12   13     -0.68      0.00
   -3  -12   13      0.70      0.00
   -2  -12   13     -0.70      0.00
   -1  -12   13     -3.09      0.00
    0  -12   13      2.30      0.00
    1  -12   13      1.30      0.00
    2  -12   13      6.06      0.00
    3  -12   13     -2.58      0.00
    4  -12   13      3.93      0.00
    5  -12   13     -6.09      0.00
    6  -12   13      4.68      0.00
    7  -12   13      1.94      0.00
    8  -12   13     -0.54      0.00
    9  -12   13     -1.56      0.00
   10  -12   13     -0.51      0.00
  -13  -11   13     -1.65      0.00
  -12  -11   13      3.72      0.00
  -11  -11   13      3.31      0.00
  -10  -11   13     -1.86      0.00
   -9  -11   13      0.58      0.00
   -8  -11   13     -0.05      0.00
   -7  -11   13     -2.36      0.00
   -6  -11   13     -4.46      0.00
   -5  -11   13     -0.19      0.00
   -4  -11   13      0.51      0.00
   -3  -11   13     -0.49      0.00
   -2  -11   13      2.21      0.00
   -1  -11   13      0.52      0.00
    0  -11   13      4.61      0.00
    1  -11   13     -0.16      0.00
    2  -11   13      0.06      0.00
    3  -11   13     -2.81      0.00
    4  -11   13     -0.59      0.00
    5  -11   13     -1.70      0.00
    6  -11   13     -0.57      0.00
    7  -11   13      5.11      0.00
    8  -11   13     -3.58      0.00
    9  -11   13      3.02      0.00
   10  -11   13      0.05      0.00
   11  -11   13     -1.95      0.00
  -13  -10   13     -3.16      0.00
  -12  -10   13     -2.87      0.00
  -11  -10   13      2.16      0.00
  -10  -10   13      3.26      0.00
   -9  -10   13      2.97      0.00
   -8  -10   13     -0.17      0.00
   -7  -10   13     -1.18      0.00
   -6  -10   13     -3.13      0.00
   -5  -10   13      0.19      0.00
   -4  -10   13     -3.27      0.00
   -3  -10   13      0.22      0.00
   -2  -10   13      0.55      0.00
   -1  -10   13     -1.41      0.00
    0  -10   13     -5.08      0.00
    1  -10   13     -0.70      0.00
    2  -10   13      1.49      0.00
    3  -10   13      2.20      0.00
    4  -10   13      0.48      0.00
    5  -10   13      6.10      0.00
    6  -10   13     -4.20      0.00
    7  -10   13     -3.64      0.00
    8  -10   13     -1.05      0.00
    9  -10   13      0.57      0.00
   10  -10   13      1.44      0.00
   11  -10   13     -2.00      0.00
   12  -10   13     -1.30      0.00
  -13   -9   13     -0.89      0.00
  -12   -9   13     -1.31      0.00
  -11   -9   13      0.75      0.00
  -10   -9   13      0.33      0.00
   -9   -9   13     -3.70      0.00
   -8   -9   13      2.35      0.00
   -7   -9   13      1.58      0.00
   -6   -9   13      3.25      0.00
   -5   -9   13      0.10      0.00
   -4   -9   13     -1.17      0.00
   -3   -9   13      3.53      0.00
   -2   -9   13     -5.91      0.00
   -1   -9   13      3.88      0.00
    0   -9   13     -2.11      0.00
    1   -9   13      0.08      0.00
    2   -9   13     -0.21      0.00
    3   -9   13     -3.56      0.00
    4   -9   13     -7.65      0.00
    5   -9   13      1.16      0.00
    6   -9   13     -0.93      0.00
    7   -9   13      3.13      0.00
    8   -9   13      1.39      0.00
    9   -9   13     -0.51      0.00
   10   -9   13     -5.31      0.00
   11   -9   13     -5.51      0.00
   12   -9   13     -0.13      0.00
   13   -9   13     -0.22      0.00
  -13   -8   13     -0.23      0.00
  -12   -8   13      7.10      0.00
  -11   -8   13     -6.58      0.00
  -10   -8   13     -2.02      0.00
   -9   -8   13     -1.32      0.00
   -8   -8   13      1.92      0.00
   -7   -8   13      1.28      0.00
   -6   -8   13      6.03      0.00
   -5   -8   13     -2.02      0.00
   -4   -8   13     -5.22      0.00
   -3   -8   13      6.70      0.00
   -2   -8   13     -2.06      0.00
   -1   -8   13      2.24      0.00
    0   -8   13     -6.40      0.00
    1   -8   13     -7.15      0.00
    2   -8   13     -5.05      0.00
    3   -8   13     10.76      0.00
    4   -8   13     -6.34      0.00
    5   -8   13      8.12      0.00
    6   -8   13      1.27      0.00
    7   -8   13     -5.59      0.00
    8   -8   13     -0.48      0.00
    9   -8   13     -5.54      0.00
   10   -8   13      2.04      0.00
   11   -8   13     -2.88      0.00
   12   -8   13      4.25      0.00
   13   -8   13      0.28      0.00
   14   -8   13     -5.63      0.00
  -13   -7   13     -4.46      0.00
  -12   -7   13      4.59      0.00
  -11   -7   13      2.27      0.00
  -10   -7   13      1.60      0.00
   -9   -7   13      4.87      0.00
   -8   -7   13      1.78      0.00
   -7   -7   13      0.11      0.00
   -6   -7   13      3.97      0.00
   -5   -7   13      9.47      0.00
   -4   -7   13      3.72      0.00
   -3   -7   13      9.49      0.00
   -2   -7   13    -12.47      0.00
   -1   -7   13      1.28      0.00
    0   -7   13     -7.07      0.00
    1   -7   13     12.04      0.00
    2   -7   13     -9.97      0.00
    3   -7   13     -3.83      0.00
    4   -7   13     -3.67      0.00
    5   -7   13     -2.55      0.00
    6   -7   13      1.02      0.00
    7   -7   13     -1.36      0.00
    8   -7   13      1.59      0.00
    9   -7   13     -1.08      0.00
   10   -7   13      3.07      0.00
   11   -7   13     -3.77      0.00
   12   -7   13      0.30      0.00
   13   -7   13      3.86      0.00
   14   -7   13     -5.20      0.00
  -13   -6   13      1.48      0.00
  -12   -6   13      1.87      0.00
  -11   -6   13     -5.99      0.00
  -10   -6   13     -3.74      0.00
   -9   -6   13      6.10      0.00
   -8   -6   13     -2.25      0.00
   -7   -6   13      1.46      0.00
   -6   -6   13      2.93      0.00
   -5   -6   13     -2.39      0.00
   -4   -6   13    -11.84      0.00
   -3   -6   13      7.78      0.00
   -2   -6   13      8.75      0.00
   -1   -6   13     -0.02      0.00
    0   -6   13     -2.50      0.00
    1   -6   13     -3.60      0.00
    2   -6   13     -3.01      0.00
    3   -6   13      4.67      0.00
    4   -6   13     -1.85      0.00
    5   -6   13     -1.85      0.00
    6   -6   13     -0.64      0.00
    7   -6   13     -0.32      0.00
    8   -6   13     -7.09      0.00
    9   -6   13      8.02      0.00
   10   -6   13      5.71      0.00
   11   -6   13     -1.15      0.00
   12   -6   13      1.70      0.00
   13   -6   13     -2.57      0.00
   14   -6   13     -2.46      0.00
   15   -6   13      2.63      0.00
  -13   -5   13      3.74      0.00
  -12   -5   13     -0.34      0.00
  -11   -5   13      3.15      0.00
  -10   -5   13    -12.57      0.00
   -9   -5   13      0.46      0.00
   -8   -5   13     -1.82      0.00
   -7   -5   13      2.59      0.00
   -6   -5   13      4.64      0.00
   -5   -5   13      4.05      0.00
   -4   -5   13     -1.65      0.00
   -3   -5   13     -1.38      0.00
   -2   -5   13     -6.82      0.00
   -1   -5   13      0.10      0.00
    0   -5   13     -1.81      0.00
    1   -5   13      9.33      0.00
    2   -5   13    -10.54      0.00
    3   -5   13     -6.70      0.00
    4   -5   13     -0.53      0.00
    5   -5   13      2.51      0.00
    6   -5   13      0.42      0.00
    7   -5   13     -2.69      0.00
    8   -5   13      5.17      0.00
    9   -5   13     -5.97      0.00
   10   -5   13      7.40      0.00
   11   -5   13      1.91      0.00
   12   -5   13     -7.40      0.00
   13   -5   13      0.88      0.00
   14   -5   13     -5.89      0.00
   15   -5   13     -0.56      0.00
   16   -5   13      2.24      0.00
  -13   -4   13      2.10      0.00
  -12   -4   13     -1.28      0.00
  -11   -4   13     -2.09      0.00
  -10   -4   13     -9.37      0.00
   -9   -4   13      1.21      0.00
   -8   -4   13     -4.33      0.00
   -7   -4   13     -5.65      0.00
   -6   -4   13     -2.50      0.00
   -5   -4   13     -1.65      0.00
   -4   -4   13     -3.11      0.00
   -3   -4   13     -0.61      0.00
   -2   -4   13      6.52      0.00
   -1   -4   13     -0.60      0.00
    0   -4   13     -0.35      0.00
    1   -4   13      5.90      0.00
    2   -4   13      8.73      0.00
    3   -4   13     -1.68      0.00
    4   -4   13      9.40      0.00
    5   -4   13    -16.17      0.00
    6   -4   13     -2.90      0.00
    7   -4   13      2.52      0.00
    8   -4   13      2.70      0.00
    9   -4   13      9.59      0.00
   10   -4   13     -3.69      0.00
   11   -4   13     -0.97      0.00
   12   -4   13      3.43      0.00
   13   -4   13      6.03      0.00
   14   -4   13      0.34      0.00
   15   -4   13      3.74      0.00
   16   -4   13     -2.64      0.00
  -13   -3   13     -3.59      0.00
  -12   -3   13     -4.11      0.00
  -11   -3   13     -2.09      0.00
  -10   -3   13      1.93      0.00
   -9   -3   13      4.19      0.00
   -8   -3   13     -1.19      0.00
   -7   -3   13      0.32      0.00
   -6   -3   13      4.18      0.00
   -5   -3   13     -5.69      0.00
   -4   -3   13     -1.58      0.00
   -3   -3   13      5.23      0.00
   -2   -3   13     -3.87      0.00
   -1   -3   13      5.02      0.00
    0   -3   13      3.99      0.00
    1   -3   13      2.28      0.00
    2   -3   13      0.33      0.00
    3   -3   13      9.44      0.00
    4   -3   13      3.52      0.00
    5   -3   13     22.64      0.00
    6   -3   13      1.83      0.00
    7   -3   13    -12.93      0.00
    8   -3   13      2.77      0.00
    9   -3   13      1.01      0.00
   10   -3   13      2.36      0.00
   11   -3   13     10.32      0.00
   12   -3   13     -4.28      0.00
   13   -3   13     -3.04      0.00
   14   -3   13     -1.93      0.00
   15   -3   13      5.42      0.00
   16   -3   13      1.71      0.00
   17   -3   13      1.18      0.00
  -12   -2   13      2.48      0.00
  -11   -2   13     -0.71      0.00
  -10   -2   13      7.04      0.00
   -9   -2   13      6.79      0.00
   -8   -2   13      2.43      0.00
   -7   -2   13      0.25      0.00
   -6   -2   13      3.76      0.00
   -5   -2   13     -0.28      0.00
   -4   -2   13      2.86      0.00
   -3   -2   13      7.00      0.00
   -2   -2   13     -5.62      0.00
   -1   -2   13     12.96      0.00
    0   -2   13      8.43      0.00
    1   -2   13      8.58      0.00
    2   -2   13     11.37      0.00
    3   -2   13     -5.94      0.00
    4   -2   13      8.02      0.00
    5   -2   13    -16.63      0.00
    6   -2   13      9.00      0.00
    7   -2   13     15.03      0.00
    8   -2   13     11.06      0.00
    9   -2   13     -4.84      0.00
   10   -2   13      0.54      0.00
   11   -2   13      3.96      0.00
   12   -2   13      1.59      0.00
   13   -2   13      7.16      0.00
   14   -2   13      0.32      0.00
   15   -2   13      0.16      0.00
   16   -2   13      0.47      0.00
   17   -2   13     -3.14      0.00
   18   -2   13     -1.67      0.00
  -12   -1   13      3.43      0.00
  -11   -1   13     -2.48      0.00
  -10   -1   13      5.98      0.00
   -9   -1   13      3.74      0.00
   -8   -1   13      4.11      0.00
   -7   -1   13      4.74      0.00
   -6   -1   13     -0.55      0.00
   -5   -1   13     -4.40      0.00
   -4   -1   13     -7.17      0.00
   -3   -1   13     16.94      0.00
   -2   -1   13     -4.78      0.00
   -1   -1   13      9.23      0.00
    0   -1   13      9.86      0.00
    1   -1   13     -2.65      0.00
    2   -1   13    -10.18      0.00
    3   -1   13     11.37      0.00
    4   -1   13     18.25      0.00
    5   -1   13      1.27      0.00
    6   -1   13      7.53      0.00
    7   -1   13    -13.51      0.00
    8   -1   13     -0.27      0.00
    9   -1   13     11.15      0.00
   10   -1   13      0.82      0.00
   11   -1   13      0.96      0.00
   12   -1   13     -1.74      0.00
   13   -1   13     -6.28      0.00
   14   -1   13      5.38      0.00
   15   -1   13      5.53      0.00
   16   -1   13     -0.27      0.00
   17   -1   13      0.50      0.00
   18   -1   13     -1.16      0.00
  -11    0   13     -4.75      0.00
  -10    0   13      6.72      0.00
   -9    0   13      0.65      0.00
   -8    0   13     -9.66      0.00
   -7    0   13      1.35      0.00
   -6    0   13      1.61      0.00
   -5    0   13     -0.25      0.00
   -4    0   13      1.82      0.00
   -3    0   13      5.47      0.00
   -2    0   13     -7.16      0.00
   -1    0   13     10.61      0.00
    0    0   13     12.70      0.00
    1    0   13     -0.11      0.00
    2    0   13      2.68      0.00
    3    0   13    -19.75      0.00
    4    0   13      9.52      0.00
    5    0   13     -4.87      0.00
    6    0   13     11.77      0.00
    7    0   13      2.37      0.00
    8    0   13     15.99      0.00
    9    0   13    -21.74      0.00
   10    0   13      8.03      0.00
   11    0   13      3.79      0.00
   12    0   13      2.38      0.00
   13    0   13      2.55      0.00
   14    0   13      2.12      0.00
   15    0   13     -4.15      0.00
   16    0   13      1.95      0.00
   17    0   13     -1.16      0.00
   18    0   13      0.63      0.00
   19    0   13      3.25      0.00
  -11    1   13     -4.72      0.00
  -10    1   13     -4.95      0.00
   -9    1   13      7.47      0.00
   -8    1   13     -1.30      0.00
   -7    1   13      7.65      0.00
   -6    1   13    -10.01      0.00
   -5    1   13      1.97      0.00
   -4    1   13     -1.11      0.00
   -3    1   13      7.88      0.00
   -2    1   13     -5.27      0.00
   -1    1   13     -3.67      0.00
    0    1   13     -7.29      0.00
    1    1   13      0.47      0.00
    2    1   13      5.22      0.00
    3    1   13      0.07      0.00
    4    1   13     28.18      0.00
    5    1   13    -12.97      0.00
    6    1   13      8.52      0.00
    7    1   13     -1.39      0.00
    8    1   13      5.13      0.00
    9    1   13      6.73      0.00
   10    1   13      6.44      0.00
   11    1   13     -4.92      0.00
   12    1   13     -0.41      0.00
   13    1   13     -1.76      0.00
   14    1   13      5.03      0.00
   15    1   13      4.91      0.00
   16    1   13      2.95      0.00
   17    1   13      2.37      0.00
   18    1   13      0.79      0.00
   19    1   13     -2.26      0.00
  -11    2   13      2.45      0.00
  -10    2   13      1.04      0.00
   -9    2   13      1.46      0.00
   -8    2   13     -7.05      0.00
   -7    2   13     -2.47      0.00
   -6    2   13     -4.29      0.00
   -5    2   13      0.07      0.00
   -4    2   13     -0.28      0.00
   -3    2   13     -0.63      0.00
   -2    2   13     -3.25      0.00
   -1    2   13      0.70      0.00
    0    2   13      5.31      0.00
    1    2   13    -18.05      0.00
    2    2   13      7.26      0.00
    3    2   13     -3.70      0.00
    4    2   13      3.40      0.00
    5    2   13     10.16      0.00
    6    2   13     10.16      0.00
    7    2   13     -8.75      0.00
    8    2   13     20.73      0.00
    9    2   13     -5.41      0.00
   10    2   13      5.21      0.00
   11    2   13      3.51      0.00
   12    2   13      2.67      0.00
   13    2   13     -8.12      0.00
   14    2   13      4.01      0.00
   15    2   13     -4.07      0.00
   16    2   13     -2.09      0.00
   17    2   13      0.99      0.00
   18    2   13     -8.63      0.00
   19    2   13     -3.22      0.00
  -10    3   13     -1.18      0.00
   -9    3   13      3.85      0.00
   -8    3   13     -4.62      0.00
   -7    3   13      0.07      0.00
   -6    3   13     -8.02      0.00
   -5    3   13     -3.29      0.00
   -4    3   13      3.36      0.00
   -3    3   13     -0.66      0.00
   -2    3   13     -6.90      0.00
   -1    3   13     -1.33      0.00
    0    3   13     -8.40      0.00
    1    3   13      0.33      0.00
    2    3   13     11.28      0.00
    3    3   13    -12.68      0.00
    4    3   13      2.90      0.00
    5    3   13     -6.43      0.00
    6    3   13      6.39      0.00
    7    3   13      7.02      0.00
    8    3   13      4.83      0.00
    9    3   13     -1.96      0.00
   10    3   13      0.74      0.00
   11    3   13     -3.87      0.00
   12    3   13     -2.61      0.00
   13    3   13      1.07      0.00
   14    3   13      1.32      0.00
   15    3   13      3.01      0.00
   16    3   13      4.87      0.00
   17    3   13     -5.33      0.00
   18    3   13     -2.15      0.00
   19    3   13     -1.21      0.00
   20    3   13     -0.82      0.00
   -9    4   13     -0.13      0.00
   -8    4   13     -5.37      0.00
   -7    4   13     -3.24      0.00
   -6    4   13     -2.29      0.00
   -5    4   13     -2.58      0.00
   -4    4   13      1.63      0.00
   -3    4   13     -3.17      0.00
   -2    4   13     -0.95      0.00
   -1    4   13      1.38      0.00
    0    4   13      1.44      0.00
    1    4   13    -20.62      0.00
    2    4   13     -0.53      0.00
    3    4   13      2.06      0.00
    4    4   13    -16.12      0.00
    5    4   13     -3.22      0.00
    6    4   13      0.33      0.00
    7    4   13     -8.15      0.00
    8    4   13     -6.92      0.00
    9    4   13     10.19      0.00
   10    4   13     -3.04      0.00
   11    4   13      2.04      0.00
   12    4   13      0.81      0.00
   13    4   13    -13.09      0.00
   14    4   13      3.73      0.00
   15    4   13     -5.38      0.00
   16    4   13      1.78      0.00
   17    4   13      0.62      0.00
   18    4   13     -1.75      0.00
   19    4   13     -0.71      0.00
   20    4   13     -0.46      0.00
   -9    5   13      4.80      0.00
   -8    5   13      3.12      0.00
   -7    5   13      0.30      0.00
   -6    5   13      1.15      0.00
   -5    5   13     -5.85      0.00
   -4    5   13      8.15      0.00
   -3    5   13     -0.89      0.00
   -2    5   13     -5.25      0.00
   -1    5   13      4.48      0.00
    0    5   13     -5.51      0.00
    1    5   13      2.66      0.00
    2    5   13      4.01      0.00
    3    5   13     -8.59      0.00
    4    5   13    -23.36      0.00
    5    5   13     -4.53      0.00
    6    5   13    -11.10      0.00
    7    5   13     -1.35      0.00
    8    5   13     -0.70      0.00
    9    5   13     -8.56      0.00
   10    5   13      3.14      0.00
   11    5   13      3.14      0.00
   12    5   13     -0.53      0.00
   13    5   13      3.03      0.00
   14    5   13      1.73      0.00
   15    5   13     -2.78      0.00
   16    5   13      6.96      0.00
   17    5   13     -0.11      0.00
   18    5   13      7.33      0.00
   19    5   13      1.16      0.00
   20    5   13     -1.50      0.00
   -8    6   13     -4.58      0.00
   -7    6   13      8.05      0.00
   -6    6   13      4.55      0.00
   -5    6   13      2.90      0.00
   -4    6   13      2.86      0.00
   -3    6   13     -2.44      0.00
   -2    6   13     -0.77      0.00
   -1    6   13     -1.58      0.00
    0    6   13     -5.34      0.00
    1    6   13    -10.10      0.00
    2    6   13     -9.37      0.00
    3    6   13      4.11      0.00
    4    6   13      9.34      0.00
    5    6   13     -8.17      0.00
    6    6   13    -13.36      0.00
    7    6   13     -4.47      0.00
    8    6   13    -13.77      0.00
    9    6   13     12.30      0.00
   10    6   13     -0.70      0.00
   11    6   13      1.56      0.00
   12    6   13      2.11      0.00
   13    6   13      0.74      0.00
   14    6   13      0.48      0.00
   15    6   13     -0.11      0.00
   16    6   13     -0.57      0.00
   17    6   13     -3.86      0.00
   18    6   13      2.98      0.00
   19    6   13     -2.25      0.00
   20    6   13     -0.20      0.00
   21    6   13     -0.73      0.00
   -8    7   13     -1.63      0.00
   -7    7   13      6.63      0.00
   -6    7   13     -1.80      0.00
   -5    7   13     -2.50      0.00
   -4    7   13     -1.64      0.00
   -3    7   13     -2.60      0.00
   -2    7   13     -2.43      0.00
   -1    7   13      1.95      0.00
    0    7   13     -2.99      0.00
    1    7   13      2.32      0.00
    2    7   13      1.53      0.00
    3    7   13     -3.02      0.00
    4    7   13    -13.41      0.00
    5    7   13      4.31      0.00
    6    7   13     -3.36      0.00
    7    7   13     -6.14      0.00
    8    7   13     -5.45      0.00
    9    7   13    -11.92      0.00
   10    7   13      3.55      0.00
   11    7   13     -1.32      0.00
   12    7   13     -0.46      0.00
   13    7   13      2.45      0.00
   14    7   13      2.78      0.00
   15    7   13     -1.05      0.00
   16    7   13      4.15      0.00
   17    7   13     -0.91      0.00
   18    7   13      1.03      0.00
   19    7   13     -1.75      0.00
   20    7   13     -0.56      0.00
   21    7   13     -1.92      0.00
   -7    8   13      4.03      0.00
   -6    8   13     -2.92      0.00
   -5    8   13      5.53      0.00
   -4    8   13     -5.43      0.00
   -3    8   13     -2.39      0.00
   -2    8   13     -1.19      0.00
   -1    8   13     -4.51      0.00
    0    8   13     -0.90      0.00
    1    8   13      4.33      0.00
    2    8   13     -3.97      0.00
    3    8   13     -3.79      0.00
    4    8   13     12.28      0.00
    5    8   13      1.45      0.00
    6    8   13     -5.19      0.00
    7    8   13      5.72      0.00
    8    8   13     -2.99      0.00
    9    8   13     -5.08      0.00
   10    8   13     -2.69      0.00
   11    8   13     -7.82      0.00
   12    8   13     -1.54      0.00
   13    8   13     -2.94      0.00
   14    8   13     -1.49      0.00
   15    8   13      1.67      0.00
   16    8   13      0.63      0.00
   17    8   13      1.50      0.00
   18    8   13      2.26      0.00
   19    8   13     -1.35      0.00
   20    8   13     -3.76      0.00
   21    8   13     -3.03      0.00
   -6    9   13      0.28      0.00
   -5    9   13      0.99      0.00
   -4    9   13     -4.78      0.00
   -3    9   13      5.04      0.00
   -2    9   13     -1.60      0.00
   -1    9   13     -2.22      0.00
    0    9   13      4.70      0.00
    1    9   13     -0.22      0.00
    2    9   13     -6.35      0.00
    3    9   13      0.28      0.00
    4    9   13     -2.67      0.00
    5    9   13      6.58      0.00
    6    9   13      0.67      0.00
    7    9   13      1.13      0.00
    8    9   13      2.86      0.00
    9    9   13     -2.87      0.00
   10    9   13      1.19      0.00
   11    9   13     -5.05      0.00
   12    9   13     -0.03      0.00
   13    9   13    -10.97      0.00
   14    9   13      1.20      0.00
   15    9   13      4.28      0.00
   16    9   13      6.92      0.00
   17    9   13      2.84      0.00
   18    9   13      0.28      0.00
   19    9   13     -4.71      0.00
   20    9   13     -2.62      0.00
   21    9   13     -1.09      0.00
   -5   10   13      6.69      0.00
   -4   10   13      0.62      0.00
   -3   10   13      7.39      0.00
   -2   10   13     -1.95      0.00
   -1   10   13     -2.97      0.00
    0   10   13      2.92      0.00
    1   10   13      4.76      0.00
    2   10   13      5.20      0.00
    3   10   13     -1.37      0.00
    4   10   13      1.55      0.00
    5   10   13     -0.18      0.00
    6   10   13      2.77      0.00
    7   10   13      1.59      0.00
    8   10   13      9.31      0.00
    9   10   13     -2.31      0.00
   10   10   13      4.25      0.00
   11   10   13     -6.34      0.00
   12   10   13      0.13      0.00
   13   10   13      1.60      0.00
   14   10   13     -2.85      0.00
   15   10   13      2.16      0.00
   16   10   13      9.82      0.00
   17   10   13      3.12      0.00
   18   10   13     -4.10      0.00
   19   10   13      0.07      0.00
   20   10   13      0.38      0.00
   21   10   13      0.65      0.00
   -4   11   13      1.88      0.00
   -3   11   13      9.00      0.00
   -2   11   13      6.61      0.00
   -1   11   13     -3.72      0.00
    0   11   13      4.53      0.00
    1   11   13     -2.80      0.00
    2   11   13     -3.00      0.00
    3   11   13     -1.53      0.00
    4   11   13      3.44      0.00
    5   11   13     -2.17      0.00
    6   11   13      2.79      0.00
    7   11   13     -4.76      0.00
    8   11   13     -3.92      0.00
    9   11   13      0.84      0.00
   10   11   13     10.85      0.00
   11   11   13      1.40      0.00
   12   11   13     -2.97      0.00
   13   11   13     -3.79      0.00
   14   11   13     -2.27      0.00
   15   11   13     -0.59      0.00
   16   11   13      0.38      0.00
   17   11   13     -1.70      0.00
   18   11   13     -4.27      0.00
   19   11   13     -4.35      0.00
   20   11   13      4.45      0.00
   21   11   13     -1.06      0.00
   -3   12   13     -1.67      0.00
   -2   12   13     -1.57      0.00
   -1   12   13      2.82      0.00
    0   12   13      0.09      0.00
    1   12   13      1.19      0.00
    2   12   13      0.83      0.00
    3   12   13     -4.50      0.00
    4   12   13     -4.76      0.00
    5   12   13     -0.39      0.00
    6   12   13      3.97      0.00
    7   12   13     -0.92      0.00
    8   12   13      0.30      0.00
    9   12   13     -5.95      0.00
   10   12   13      6.42      0.00
   11   12   13     -2.63      0.00
   12   12   13      1.46      0.00
   13   12   13      0.61      0.00
   14   12   13     -0.30      0.00
   15   12   13     -2.01      0.00
   16   12   13      2.43      0.00
   17   12   13      1.60      0.00
   18   12   13      0.27      0.00
   19   12   13      1.00      0.00
   20   12   13     -2.30      0.00
   21   12   13      1.43      0.00
   -2   13   13      2.79      0.00
   -1   13   13     -1.97      0.00
    0   13   13      7.47      0.00
    1   13   13     -0.33      0.00
    2   13   13     -3.62      0.00
    3   13   13     -1.29      0.00
    4   13   13      5.53      0.00
    5   13   13     -5.55      0.00
    6   13   13     -4.80      0.00
    7   13   13      4.65      0.00
    8   13   13      0.12      0.00
    9   13   13     -0.96      0.00
   10   13   13      1.52      0.00
   11   13   13     -2.17      0.00
   12   13   13     -2.77      0.00
   13   13   13      3.03      0.00
   14   13   13     -4.71      0.00
   15   13   13     -4.30      0.00
   16   13   13     -1.47      0.00
   17   13   13     -0.83      0.00
   18   13   13      5.26      0.00
   19   13   13     -6.12      0.00
   20   13   13      0.55      0.00
   -1   14   13      1.25      0.00
    0   14   13      5.79      0.00
    1   14   13      3.35      0.00
    2   14   13      1.29      0.00
    3   14   13     -3.29      0.00
    4   14   13     -3.78      0.00
    5   14   13      3.56      0.00
    6   14   13     -6.13      0.00
    7   14   13     -5.65      0.00
    8   14   13     -5.95      0.00
    9   14   13      1.63      0.00
   10   14   13      5.24      0.00
   11   14   13     -6.20      0.00
   12   14   13     -5.37      0.00
   13   14   13     -9.30      0.00
   14   14   13      5.13      0.00
   15   14   13      0.10      0.00
   16   14   13      6.50      0.00
   17   14   13     -2.29      0.00
   18   14   13      2.71      0.00
   19   14   13      1.33      0.00
   20   14   13     -3.00      0.00
    0   15   13      4.36      0.00
    1   15   13     -3.42      0.00
    2   15   13     -1.37      0.00
    3   15   13      5.68      0.00
    4   15   13      4.66      0.00
    5   15   13     -1.87      0.00
    6   15   13    -10.28      0.00
    7   15   13      3.76      0.00
    8   15   13     -3.31      0.00
    9   15   13     -4.07      0.00
   10   15   13      2.15      0.00
   11   15   13      1.21      0.00
   12   15   13     -2.27      0.00
   13   15   13     -1.52      0.00
   14   15   13     -2.46      0.00
   15   15   13     -4.79      0.00
   16   15   13     -3.41      0.00
   17   15   13     -0.75      0.00
   18   15   13      0.85      0.00
   19   15   13     -0.04      0.00
   20   15   13     -1.64      0.00
    2   16   13      0.04      0.00
    3   16   13      0.36      0.00
    4   16   13      1.26      0.00
    5   16   13     -4.51      0.00
    6   16   13     -4.90      0.00
    7   16   13     -2.81      0.00
    8   16   13     -7.24      0.00
    9   16   13     -3.73      0.00
   10   16   13     -4.75      0.00
   11   16   13      1.22      0.00
   12   16   13     -0.90      0.00
   13   16   13     -3.39      0.00
   14   16   13     -1.23      0.00
   15   16   13     -4.06      0.00
   16   16   13      2.39      0.00
   17   16   13     -5.71      0.00
   18   16   13     -1.74      0.00
   19   16   13     -0.54      0.00
    3   17   13     -2.31      0.00
    4   17   13     -6.31      0.00
    5   17   13      5.49      0.00
    6   17   13     -6.32      0.00
    7   17   13      3.42      0.00
    8   17   13     -3.42      0.00
    9   17   13     -0.91      0.00
   10   17   13      3.71      0.00
   11   17   13     -4.26      0.00
   12   17   13     -6.35      0.00
   13   17   13      3.77      0.00
   14   17   13     -4.16      0.00
   15   17   13      1.80      0.00
   16   17   13     -7.07      0.00
   17   17   13      0.30      0.00
   18   17   13     -1.34      0.00
   19   17   13      6.84      0.00
    5   18   13     -4.90      0.00
    6   18   13     -0.73      0.00
    7   18   13      2.42      0.00
    8   18   13     -1.92      0.00
    9   18   13     -2.64      0.00
   10   18   13      0.69      0.00
   11   18   13     -4.38      0.00
   12   18   13     -5.12      0.00
   13   18   13      6.60      0.00
   14   18   13     -2.76      0.00
   15   18   13      3.48      0.00
   16   18   13     -2.65      0.00
   17   18   13      0.55      0.00
   18   18   13      2.83      0.00
    8   19   13      4.22      0.00
    9   19   13     -5.64      0.00
   10   19   13     -5.02      0.00
   11   19   13     -2.43      0.00
   12   19   13      2.37      0.00
   13   19   13      1.88      0.00
   14   19   13     -6.60      0.00
   15   19   13      1.76      0.00
   16   19   13     -5.17      0.00
   -7  -18   14     -2.22      0.00
   -6  -18   14      0.44      0.00
   -5  -18   14      1.63      0.00
   -4  -18   14     -0.35      0.00
   -3  -18   14      2.93      0.00
   -2  -18   14      1.92      0.00
   -1  -18   14      4.64      0.00
   -9  -17   14      0.20      0.00
   -8  -17   14      3.34      0.00
   -7  -17   14     -2.50      0.00
   -6  -17   14     -0.94      0.00
   -5  -17   14     -0.01      0.00
   -4  -17   14     -0.50      0.00
   -3  -17   14      0.05      0.00
   -2  -17   14     -0.92      0.00
   -1  -17   14     -0.92      0.00
    0  -17   14     -2.93      0.00
    1  -17   14      0.19      0.00
    2  -17   14     -3.68      0.00
  -10  -16   14      6.21      0.00
   -9  -16   14      0.68      0.00
   -8  -16   14      0.47      0.00
   -7  -16   14     -1.35      0.00
   -6  -16   14     -0.25      0.00
   -5  -16   14      2.65      0.00
   -4  -16   14      0.02      0.00
   -3  -16   14      1.52      0.00
   -2  -16   14      2.52      0.00
   -1  -16   14      4.31      0.00
    0  -16   14     -4.64      0.00
    1  -16   14     -6.31      0.00
    2  -16   14     -3.16      0.00
    3  -16   14      1.54      0.00
    4  -16   14     -3.42      0.00
  -11  -15   14      0.27      0.00
  -10  -15   14      3.87      0.00
   -9  -15   14      3.15      0.00
   -8  -15   14      1.51      0.00
   -7  -15   14      0.28      0.00
   -6  -15   14     -0.19      0.00
   -5  -15   14      4.46      0.00
   -4  -15   14      0.63      0.00
   -3  -15   14     -2.27      0.00
   -2  -15   14     -1.11      0.00
   -1  -15   14     -3.77      0.00
    0  -15   14      4.46      0.00
    1  -15   14      4.66      0.00
    2  -15   14      2.76      0.00
    3  -15   14      1.90      0.00
    4  -15   14      1.43      0.00
    5  -15   14      0.05      0.00
    6  -15   14     -6.91      0.00
  -12  -14   14     -3.64      0.00
  -11  -14   14     -4.14      0.00
  -10  -14   14     -2.05      0.00
   -9  -14   14      2.26      0.00
   -8  -14   14     -6.26      0.00
   -7  -14   14      3.40      0.00
   -6  -14   14      0.45      0.00
   -5  -14   14      4.12      0.00
   -4  -14   14      2.44      0.00
   -3  -14   14      0.42      0.00
   -2  -14   14      3.83      0.00
   -1  -14   14     -4.95      0.00
    0  -14   14     -2.96      0.00
    1  -14   14     -5.58      0.00
    2  -14   14      2.62      0.00
    3  -14   14      2.64      0.00
    4  -14   14      3.42      0.00
    5  -14   14     -2.72      0.00
    6  -14   14      0.87      0.00
    7  -14   14      0.85      0.00
  -12  -13   14     -2.29      0.00
  -11  -13   14     -0.85      0.00
  -10  -13   14     -6.93      0.00
   -9  -13   14     -1.68      0.00
   -8  -13   14     -4.19      0.00
   -7  -13   14      1.03      0.00
   -6  -13   14      7.19      0.00
   -5  -13   14      2.15      0.00
   -4  -13   14     -1.78      0.00
   -3  -13   14     -4.34      0.00
   -2  -13   14      1.92      0.00
   -1  -13   14     -4.07      0.00
    0  -13   14      6.48      0.00
    1  -13   14     -1.86      0.00
    2  -13   14      2.83      0.00
    3  -13   14     -3.42      0.00
    4  -13   14      4.49      0.00
    5  -13   14      3.09      0.00
    6  -13   14      3.78      0.00
    7  -13   14     -3.20      0.00
    8  -13   14      0.06      0.00
  -12  -12   14      0.42      0.00
  -11  -12   14     -2.76      0.00
  -10  -12   14     -4.46      0.00
   -9  -12   14      0.33      0.00
   -8  -12   14     -6.46      0.00
   -7  -12   14     -2.08      0.00
   -6  -12   14     -0.89      0.00
   -5  -12   14      4.61      0.00
   -4  -12   14     -1.17      0.00
   -3  -12   14     -0.55      0.00
   -2  -12   14      4.04      0.00
   -1  -12   14     -3.42      0.00
    0  -12   14      1.82      0.00
    1  -12   14     -5.41      0.00
    2  -12   14     -2.74      0.00
    3  -12   14      1.91      0.00
    4  -12   14      5.56      0.00
    5  -12   14     -0.30      0.00
    6  -12   14      0.17      0.00
    7  -12   14      4.26      0.00
    8  -12   14      2.83      0.00
    9  -12   14     -2.28      0.00
   10  -12   14      0.12      0.00
  -13  -11   14     -0.45      0.00
  -12  -11   14      0.21      0.00
  -11  -11   14      7.95      0.00
  -10  -11   14      1.74      0.00
   -9  -11   14      1.29      0.00
   -8  -11   14     -2.24      0.00
   -7  -11   14      1.76      0.00
   -6  -11   14      2.95      0.00
   -5  -11   14     -0.56      0.00
   -4  -11   14     -4.02      0.00
   -3  -11   14     -0.48      0.00
   -2  -11   14      1.83      0.00
   -1  -11   14     -3.75      0.00
    0  -11   14      0.39      0.00
    1  -11   14     -0.78      0.00
    2  -11   14      2.94      0.00
    3  -11   14     -0.24      0.00
    4  -11   14     -0.42      0.00
    5  -11   14     -1.41      0.00
    6  -11   14     -0.33      0.00
    7  -11   14      0.54      0.00
    8  -11   14      2.85      0.00
    9  -11   14     -4.17      0.00
   10  -11   14     -0.14      0.00
   11  -11   14     -0.62      0.00
  -13  -10   14     -2.72      0.00
  -12  -10   14      0.66      0.00
  -11  -10   14     -1.76      0.00
  -10  -10   14     -0.76      0.00
   -9  -10   14     -0.70      0.00
   -8  -10   14      2.50      0.00
   -7  -10   14      0.91      0.00
   -6  -10   14     -3.02      0.00
   -5  -10   14      2.90      0.00
   -4  -10   14     -6.62      0.00
   -3  -10   14      4.28      0.00
   -2  -10   14      0.58      0.00
   -1  -10   14      4.66      0.00
    0  -10   14      0.56      0.00
    1  -10   14     -4.77      0.00
    2  -10   14     -3.72      0.00
    3  -10   14     -3.89      0.00
    4  -10   14     -4.42      0.00
    5  -10   14     -1.28      0.00
    6  -10   14      3.13      0.00
    7  -10   14     -2.25      0.00
    8  -10   14     -1.22      0.00
    9  -10   14     -3.27      0.00
   10  -10   14      2.89      0.00
   11  -10   14     -1.35      0.00
   12  -10   14     -1.10      0.00
  -13   -9   14     -2.69      0.00
  -12   -9   14      3.20      0.00
  -11   -9   14     -7.99      0.00
  -10   -9   14      4.12      0.00
   -9   -9   14      3.40      0.00
   -8   -9   14     -1.90      0.00
   -7   -9   14      1.43      0.00
   -6   -9   14     -1.56      0.00
   -5   -9   14     -1.22      0.00
   -4   -9   14     -8.36      0.00
   -3   -9   14      1.63      0.00
   -2   -9   14      0.08      0.00
   -1   -9   14      2.21      0.00
    0   -9   14     -0.62      0.00
    1   -9   14      0.93      0.00
    2   -9   14      4.29      0.00
    3   -9   14      5.06      0.00
    4   -9   14     -6.33      0.00
    5   -9   14     -0.94      0.00
    6   -9   14     -1.41      0.00
    7   -9   14    -10.82      0.00
    8   -9   14      3.05      0.00
    9   -9   14      1.23      0.00
   10   -9   14      5.86      0.00
   11   -9   14     -2.98      0.00
   12   -9   14      3.16      0.00
   13   -9   14     -2.67      0.00
  -13   -8   14     -0.32      0.00
  -12   -8   14      7.71      0.00
  -11   -8   14     -3.26      0.00
  -10   -8   14     -2.60      0.00
   -9   -8   14      0.66      0.00
   -8   -8   14     -0.77      0.00
   -7   -8   14      3.18      0.00
   -6   -8   14      0.88      0.00
   -5   -8   14      8.34      0.00
   -4   -8   14     -8.22      0.00
   -3   -8   14      6.19      0.00
   -2   -8   14     -4.92      0.00
   -1   -8   14      6.17      0.00
    0   -8   14      3.92      0.00
    1   -8   14      3.93      0.00
    2   -8   14     -7.41      0.00
    3   -8   14     -4.54      0.00
    4   -8   14      0.93      0.00
    5   -8   14     -4.44      0.00
    6   -8   14      6.92      0.00
    7   -8   14     -1.08      0.00
    8   -8   14      1.92      0.00
    9   -8   14      2.41      0.00
   10   -8   14      0.45      0.00
   11   -8   14     -4.70      0.00
   12   -8   14      5.20      0.00
   13   -8   14      1.66      0.00
  -13   -7   14     -3.18      0.00
  -12   -7   14     -2.35      0.00
  -11   -7   14     -6.17      0.00
  -10   -7   14      0.41      0.00
   -9   -7   14     10.57      0.00
   -8   -7   14     -0.75      0.00
   -7   -7   14      1.00      0.00
   -6   -7   14     -4.29      0.00
   -5   -7   14     -4.22      0.00
   -4   -7   14     -6.49      0.00
   -3   -7   14     10.99      0.00
   -2   -7   14      5.82      0.00
   -1   -7   14     -0.68      0.00
    0   -7   14     -3.22      0.00
    1   -7   14      5.66      0.00
    2   -7   14      4.16      0.00
    3   -7   14      7.12      0.00
    4   -7   14     -1.37      0.00
    5   -7   14      2.02      0.00
    6   -7   14     -5.04      0.00
    7   -7   14     -2.83      0.00
    8   -7   14      0.16      0.00
    9   -7   14      3.78      0.00
   10   -7   14      3.98      0.00
   11   -7   14     -0.64      0.00
   12   -7   14      1.82      0.00
   13   -7   14     -1.21      0.00
   14   -7   14      4.64      0.00
  -12   -6   14     -1.14      0.00
  -11   -6   14      2.48      0.00
  -10   -6   14     -3.13      0.00
   -9   -6   14     10.27      0.00
   -8   -6   14      2.65      0.00
   -7   -6   14      5.87      0.00
   -6   -6   14      2.54      0.00
   -5   -6   14      5.85      0.00
   -4   -6   14     -7.17      0.00
   -3   -6   14     -4.91      0.00
   -2   -6   14     -1.26      0.00
   -1   -6   14      9.83      0.00
    0   -6   14     -3.19      0.00
    1   -6   14      8.95      0.00
    2   -6   14     -8.12      0.00
    3   -6   14     -4.05      0.00
    4   -6   14     10.08      0.00
    5   -6   14      0.29      0.00
    6   -6   14      4.29      0.00
    7   -6   14     -1.19      0.00
    8   -6   14      0.16      0.00
    9   -6   14     -3.63      0.00
   10   -6   14      8.05      0.00
   11   -6   14     -2.63      0.00
   12   -6   14     -2.05      0.00
   13   -6   14     -0.43      0.00
   14   -6   14     -2.15      0.00
   15   -6   14      0.24      0.00
  -12   -5   14      0.95      0.00
  -11   -5   14      1.09      0.00
  -10   -5   14     -0.27      0.00
   -9   -5   14     -1.22      0.00
   -8   -5   14     -6.34      0.00
   -7   -5   14     -1.48      0.00
   -6   -5   14     -0.71      0.00
   -5   -5   14     -2.83      0.00
   -4   -5   14     -0.34      0.00
   -3   -5   14      3.04      0.00
   -2   -5   14      5.50      0.00
   -1   -5   14     -0.10      0.00
    0   -5   14     -5.82      0.00
    1   -5   14      6.54      0.00
    2   -5   14     -0.45      0.00
    3   -5   14      3.31      0.00
    4   -5   14     -3.32      0.00
    5   -5   14      1.09      0.00
    6   -5   14     -5.76      0.00
    7   -5   14      6.99      0.00
    8   -5   14     -5.88      0.00
    9   -5   14      3.31      0.00
   10   -5   14     -5.12      0.00
   11   -5   14      2.82      0.00
   12   -5   14     -0.80      0.00
   13   -5   14     -1.65      0.00
   14   -5   14     -1.15      0.00
   15   -5   14     -4.34      0.00
   16   -5   14     -5.53      0.00
  -12   -4   14      0.57      0.00
  -11   -4   14      2.74      0.00
  -10   -4   14      0.55      0.00
   -9   -4   14     -4.46      0.00
   -8   -4   14      0.33      0.00
   -7   -4   14      4.11      0.00
   -6   -4   14     -1.56      0.00
   -5   -4   14     -5.14      0.00
   -4   -4   14      3.83      0.00
   -3   -4   14     -1.68      0.00
   -2   -4   14     -3.15      0.00
   -1   -4   14      6.40      0.00
    0   -4   14    -11.34      0.00
    1   -4   14      5.32      0.00
    2   -4   14     -6.18      0.00
    3   -4   14      7.34      0.00
    4   -4   14      3.46      0.00
    5   -4   14     17.46      0.00
    6   -4   14    -15.08      0.00
    7   -4   14     -2.80      0.00
    8   -4   14      2.42      0.00
    9   -4   14     -5.94      0.00
   10   -4   14      4.23      0.00
   11   -4   14     -4.61      0.00
   12   -4   14     -9.13      0.00
   13   -4   14     -1.89      0.00
   14   -4   14      0.72      0.00
   15   -4   14      2.62      0.00
   16   -4   14     -1.10      0.00
  -12   -3   14     -1.46      0.00
  -11   -3   14     -1.45      0.00
  -10   -3   14      1.51      0.00
   -9   -3   14     -4.06      0.00
   -8   -3   14      0.08      0.00
   -7   -3   14     -5.65      0.00
   -6   -3   14     -1.71      0.00
   -5   -3   14     -3.42      0.00
   -4   -3   14      1.21      0.00
   -3   -3   14      1.30      0.00
   -2   -3   14     -4.39      0.00
   -1   -3   14      6.10      0.00
    0   -3   14    -10.88      0.00
    1   -3   14      5.38      0.00
    2   -3   14     -9.16      0.00
    3   -3   14      4.51      0.00
    4   -3   14     -8.81      0.00
    5   -3   14      2.26      0.00
    6   -3   14      5.76      0.00
    7   -3   14      7.73      0.00
    8   -3   14    -11.86      0.00
    9   -3   14      4.44      0.00
   10   -3   14     -8.45      0.00
   11   -3   14      3.42      0.00
   12   -3   14      6.29      0.00
   13   -3   14      3.80      0.00
   14   -3   14     -3.67      0.00
   15   -3   14     -2.80      0.00
   16   -3   14     -3.76      0.00
   17   -3   14     -1.85      0.00
  -12   -2   14      5.08      0.00
  -11   -2   14     -0.72      0.00
  -10   -2   14     11.96      0.00
   -9   -2   14      3.01      0.00
   -8   -2   14      5.46      0.00
   -7   -2   14     -0.37      0.00
   -6   -2   14     -0.71      0.00
   -5   -2   14     -4.97      0.00
   -4   -2   14      5.12      0.00
   -3   -2   14      7.15      0.00
   -2   -2   14     -9.66      0.00
   -1   -2   14      1.03      0.00
    0   -2   14     -2.15      0.00
    1   -2   14     -3.01      0.00
    2   -2   14     -6.15      0.00
    3   -2   14     15.79      0.00
    4   -2   14     -4.85      0.00
    5   -2   14      8.36      0.00
    6   -2   14    -14.38      0.00
    7   -2   14     -4.82      0.00
    8   -2   14      5.71      0.00
    9   -2   14      4.54      0.00
   10   -2   14     -0.18      0.00
   11   -2   14     -2.00      0.00
   12   -2   14     -3.10      0.00
   13   -2   14     -3.62      0.00
   14   -2   14      5.18      0.00
   15   -2   14      0.08      0.00
   16   -2   14      1.57      0.00
   17   -2   14      0.27      0.00
  -11   -1   14      2.22      0.00
  -10   -1   14      4.46      0.00
   -9   -1   14     -0.01      0.00
   -8   -1   14     -3.78      0.00
   -7   -1   14      2.68      0.00
   -6   -1   14      2.44      0.00
   -5   -1   14     -2.71      0.00
   -4   -1   14      0.59      0.00
   -3   -1   14     -2.18      0.00
   -2   -1   14     -5.53      0.00
   -1   -1   14      4.30      0.00
    0   -1   14     -6.16      0.00
    1   -1   14      2.67      0.00
    2   -1   14    -17.67      0.00
    3   -1   14    -13.21      0.00
    4   -1   14      0.91      0.00
    5   -1   14     -3.76      0.00
    6   -1   14      4.72      0.00
    7   -1   14      2.10      0.00
    8   -1   14    -10.57      0.00
    9   -1   14    -11.84      0.00
   10   -1   14      7.24      0.00
   11   -1   14      1.70      0.00
   12   -1   14      0.11      0.00
   13   -1   14     -0.79      0.00
   14   -1   14     -9.22      0.00
   15   -1   14      0.43      0.00
   16   -1   14      2.31      0.00
   17   -1   14     -1.28      0.00
   18   -1   14      4.10      0.00
  -11    0   14     -3.20      0.00
  -10    0   14      3.13      0.00
   -9    0   14      4.92      0.00
   -8    0   14     -0.56      0.00
   -7    0   14      1.25      0.00
   -6    0   14     -5.48      0.00
   -5    0   14      2.93      0.00
   -4    0   14      2.76      0.00
   -3    0   14      1.37      0.00
   -2    0   14     -5.50      0.00
   -1    0   14     -6.74      0.00
    0    0   14     -1.84      0.00
    1    0   14      1.09      0.00
    2    0   14      1.62      0.00
    3    0   14      4.69      0.00
    4    0   14     -2.29      0.00
    5    0   14     -9.70      0.00
    6    0   14     -3.66      0.00
    7    0   14    -11.97      0.00
    8    0   14      1.47      0.00
    9    0   14      1.55      0.00
   10    0   14     -8.00      0.00
   11    0   14     -3.90      0.00
   12    0   14     -1.15      0.00
   13    0   14     -4.19      0.00
   14    0   14      2.25      0.00
   15    0   14      0.02      0.00
   16    0   14     -0.86      0.00
   17    0   14      2.63      0.00
   18    0   14     -0.16      0.00
  -10    1   14     -3.73      0.00
   -9    1   14     -3.67      0.00
   -8    1   14     -7.89      0.00
   -7    1   14      7.63      0.00
   -6    1   14     -1.99      0.00
   -5    1   14      5.37      0.00
   -4    1   14      5.39      0.00
   -3    1   14     -0.78      0.00
   -2    1   14     -0.87      0.00
   -1    1   14      6.43      0.00
    0    1   14    -12.44      0.00
    1    1   14     -6.88      0.00
    2    1   14      1.03      0.00
    3    1   14    -12.19      0.00
    4    1   14      5.49      0.00
    5    1   14      5.94      0.00
    6    1   14     -1.82      0.00
    7    1   14     -9.92      0.00
    8    1   14      6.54      0.00
    9    1   14    -17.11      0.00
   10    1   14      8.01      0.00
   11    1   14     -1.20      0.00
   12    1   14     -4.53      0.00
   13    1   14     -3.47      0.00
   14    1   14     -6.03      0.00
   15    1   14     -1.26      0.00
   16    1   14     -2.72      0.00
   17    1   14      3.48      0.00
   18    1   14      3.63      0.00
   19    1   14      6.93      0.00
  -10    2   14      1.21      0.00
   -9    2   14      1.43      0.00
   -8    2   14     -1.17      0.00
   -7    2   14      8.22      0.00
   -6    2   14     -8.59      0.00
   -5    2   14     10.20      0.00
   -4    2   14      1.62      0.00
   -3    2   14     -0.88      0.00
   -2    2   14     -1.54      0.00
   -1    2   14      1.23      0.00
    0    2   14     -2.09      0.00
    1    2   14      4.05      0.00
    2    2   14     10.71      0.00
    3    2   14     -8.29      0.00
    4    2   14      9.95      0.00
    5    2   14     -6.22      0.00
    6    2   14     17.63      0.00
    7    2   14     -6.64      0.00
    8    2   14      2.78      0.00
    9    2   14      5.90      0.00
   10    2   14     -5.88      0.00
   11    2   14     -2.81      0.00
   12    2   14      1.56      0.00
   13    2   14     -0.05      0.00
   14    2   14      0.28      0.00
   15    2   14      2.44      0.00
   16    2   14     -2.14      0.00
   17    2   14     -1.10      0.00
   18    2   14      1.58      0.00
   19    2   14     -3.25      0.00
   -9    3   14     -6.20      0.00
   -8    3   14     -6.47      0.00
   -7    3   14      3.69      0.00
   -6    3   14     -1.44      0.00
   -5    3   14      8.34      0.00
   -4    3   14      0.40      0.00
   -3    3   14      1.88      0.00
   -2    3   14      1.07      0.00
   -1    3   14     10.56      0.00
    0    3   14     -8.54      0.00
    1    3   14     -4.19      0.00
    2    3   14      6.83      0.00
    3    3   14     -0.80      0.00
    4    3   14     -3.93      0.00
    5    3   14      6.93      0.00
    6    3   14      5.32      0.00
    7    3   14     -8.81      0.00
    8    3   14     18.26      0.00
    9    3   14     -0.99      0.00
   10    3   14      3.40      0.00
   11    3   14     -2.77      0.00
   12    3   14     -0.51      0.00
   13    3   14     -9.57      0.00
   14    3   14      1.79      0.00
   15    3   14     -2.69      0.00
   16    3   14      4.25      0.00
   17    3   14      4.29      0.00
   18    3   14     -0.27      0.00
   19    3   14     -1.05      0.00
   20    3   14      0.43      0.00
   -9    4   14     -1.46      0.00
   -8    4   14     -5.82      0.00
   -7    4   14      0.53      0.00
   -6    4   14     -7.10      0.00
   -5    4   14      2.05      0.00
   -4    4   14      1.85      0.00
   -3    4   14      0.71      0.00
   -2    4   14      0.18      0.00
   -1    4   14      5.37      0.00
    0    4   14      2.23      0.00
    1    4   14     10.99      0.00
    2    4   14      0.61      0.00
    3    4   14    -12.02      0.00
    4    4   14      5.20      0.00
    5    4   14    -10.39      0.00
    6    4   14     11.90      0.00
    7    4   14      0.11      0.00
    8    4   14      0.54      0.00
    9    4   14     -1.39      0.00
   10    4   14      6.16      0.00
   11    4   14      1.16      0.00
   12    4   14      3.91      0.00
   13    4   14      4.21      0.00
   14    4   14     -3.06      0.00
   15    4   14      2.23      0.00
   16    4   14      4.55      0.00
   17    4   14     -3.43      0.00
   18    4   14      4.22      0.00
   19    4   14     -7.05      0.00
   20    4   14     -3.23      0.00
   -8    5   14     -1.43      0.00
   -7    5   14      9.06      0.00
   -6    5   14     -0.60      0.00
   -5    5   14      0.29      0.00
   -4    5   14     -2.86      0.00
   -3    5   14      4.38      0.00
   -2    5   14      1.66      0.00
   -1    5   14      4.47      0.00
    0    5   14     -2.91      0.00
    1    5   14      1.08      0.00
    2    5   14      1.54      0.00
    3    5   14     14.84      0.00
    4    5   14      2.60      0.00
    5    5   14    -12.60      0.00
    6    5   14     -1.87      0.00
    7    5   14     -4.17      0.00
    8    5   14      6.99      0.00
    9    5   14      7.60      0.00
   10    5   14      3.60      0.00
   11    5   14      1.60      0.00
   12    5   14      4.39      0.00
   13    5   14     -4.27      0.00
   14    5   14      4.60      0.00
   15    5   14     -5.35      0.00
   16    5   14      2.40      0.00
   17    5   14     -2.46      0.00
   18    5   14      3.51      0.00
   19    5   14     -1.34      0.00
   20    5   14      0.58      0.00
   -7    6   14     -1.28      0.00
   -6    6   14     -1.95      0.00
   -5    6   14      1.27      0.00
   -4    6   14      3.42      0.00
   -3    6   14      6.96      0.00
   -2    6   14      3.33      0.00
   -1    6   14      4.58      0.00
    0    6   14      0.44      0.00
    1    6   14      7.51      0.00
    2    6   14     -0.34      0.00
    3    6   14     -8.59      0.00
    4    6   14     10.01      0.00
    5    6   14      1.78      0.00
    6    6   14     -1.19      0.00
    7    6   14      1.21      0.00
    8    6   14      2.03      0.00
    9    6   14     -7.15      0.00
   10    6   14     14.59      0.00
   11    6   14      3.38      0.00
   12    6   14      4.76      0.00
   13    6   14      8.43      0.00
   14    6   14     -0.70      0.00
   15    6   14      0.07      0.00
   16    6   14      3.42      0.00
   17    6   14     -4.96      0.00
   18    6   14     -0.46      0.00
   19    6   14     -3.75      0.00
   20    6   14     -1.79      0.00
   -7    7   14     -0.27      0.00
   -6    7   14      0.30      0.00
   -5    7   14     -2.24      0.00
   -4    7   14     -0.95      0.00
   -3    7   14      0.86      0.00
   -2    7   14     -0.25      0.00
   -1    7   14     -0.74      0.00
    0    7   14      0.51      0.00
    1    7   14      6.83      0.00
    2    7   14      0.86      0.00
    3    7   14     13.73      0.00
    4    7   14     10.59      0.00
    5    7   14     -6.05      0.00
    6    7   14     -3.89      0.00
    7    7   14      7.54      0.00
    8    7   14     -3.93      0.00
    9    7   14     -2.31      0.00
   10    7   14     -1.65      0.00
   11    7   14     -2.05      0.00
   12    7   14      4.91      0.00
   13    7   14      2.33      0.00
   14    7   14      7.00      0.00
   15    7   14     -5.81      0.00
   16    7   14      1.43      0.00
   17    7   14     -4.13      0.00
   18    7   14      0.11      0.00
   19    7   14     -1.98      0.00
   20    7   14      0.48      0.00
   21    7   14      2.37      0.00
   -6    8   14     -4.29      0.00
   -5    8   14     -3.05      0.00
   -4    8   14     -4.86      0.00
   -3    8   14     -0.77      0.00
   -2    8   14     -4.13      0.00
   -1    8   14      4.89      0.00
    0    8   14     -1.99      0.00
    1    8   14      2.38      0.00
    2    8   14      4.77      0.00
    3    8   14     -2.21      0.00
    4    8   14      0.17      0.00
    5    8   14      6.87      0.00
    6    8   14     -4.86      0.00
    7    8   14      0.86      0.00
    8    8   14     -3.22      0.00
    9    8   14     -8.35      0.00
   10    8   14      2.57      0.00
   11    8   14      0.50      0.00
   12    8   14     -0.82      0.00
   13    8   14      4.66      0.00
   14    8   14      5.21      0.00
   15    8   14      0.92      0.00
   16    8   14      1.34      0.00
   17    8   14     -2.06      0.00
   18    8   14     -5.32      0.00
   19    8   14     -0.03      0.00
   20    8   14     -1.99      0.00
   21    8   14      0.24      0.00
   -5    9   14      0.62      0.00
   -4    9   14     -9.67      0.00
   -3    9   14     -6.78      0.00
   -2    9   14     -1.67      0.00
   -1    9   14     -6.13      0.00
    0    9   14     -0.27      0.00
    1    9   14      4.95      0.00
    2    9   14     -2.38      0.00
    3    9   14     -4.57      0.00
    4    9   14     -1.26      0.00
    5    9   14      0.37      0.00
    6    9   14     -2.12      0.00
    7    9   14      6.20      0.00
    8    9   14     -1.97      0.00
    9    9   14     -3.89      0.00
   10    9   14     -1.70      0.00
   11    9   14     -3.99      0.00
   12    9   14      2.06      0.00
   13    9   14      3.50      0.00
   14    9   14     -2.41      0.00
   15    9   14      0.18      0.00
   16    9   14      7.44      0.00
   17    9   14      0.37      0.00
   18    9   14     -2.17      0.00
   19    9   14     -1.44      0.00
   20    9   14     -2.53      0.00
   21    9   14     -4.07      0.00
   -4   10   14     -3.25      0.00
   -3   10   14      7.03      0.00
   -2   10   14     -4.40      0.00
   -1   10   14     -6.90      0.00
    0   10   14     -3.28      0.00
    1   10   14     -2.45      0.00
    2   10   14     -1.53      0.00
    3   10   14     -0.11      0.00
    4   10   14     -2.25      0.00
    5   10   14     -0.77      0.00
    6   10   14     -3.42      0.00
    7   10   14     -1.49      0.00
    8   10   14     -0.93      0.00
    9   10   14      4.20      0.00
   10   10   14      3.18      0.00
   11   10   14     -1.81      0.00
   12   10   14     -2.55      0.00
   13   10   14      2.92      0.00
   14   10   14      1.61      0.00
   15   10   14     -0.35      0.00
   16   10   14     -0.03      0.00
   17   10   14      6.52      0.00
   18   10   14     -5.87      0.00
   19   10   14      0.87      0.00
   20   10   14     -1.71      0.00
   21   10   14      0.45      0.00
   -3   11   14     -1.68      0.00
   -2   11   14      2.68      0.00
   -1   11   14     -0.97      0.00
    0   11   14      1.15      0.00
    1   11   14      0.49      0.00
    2   11   14     -3.60      0.00
    3   11   14     -0.81      0.00
    4   11   14     -3.20      0.00
    5   11   14      2.23      0.00
    6   11   14      2.10      0.00
    7   11   14      3.28      0.00
    8   11   14     -3.42      0.00
    9   11   14     -5.04      0.00
   10   11   14      4.00      0.00
   11   11   14     -0.05      0.00
   12   11   14     -0.31      0.00
   13   11   14      6.57      0.00
   14   11   14     -4.45      0.00
   15   11   14      0.95      0.00
   16   11   14      4.41      0.00
   17   11   14      0.45      0.00
   18   11   14     -2.96      0.00
   19   11   14     -6.23      0.00
   20   11   14     -0.87      0.00
   -2   12   14     -8.31      0.00
   -1   12   14     -3.06      0.00
    0   12   14     -1.34      0.00
    1   12   14     -9.35      0.00
    2   12   14     -7.45      0.00
    3   12   14      6.88      0.00
    4   12   14      1.37      0.00
    5   12   14     -2.77      0.00
    6   12   14      4.43      0.00
    7   12   14      9.86      0.00
    8   12   14     -5.73      0.00
    9   12   14     -0.20      0.00
   10   12   14     -2.15      0.00
   11   12   14      0.93      0.00
   12   12   14     -1.62      0.00
   13   12   14      0.39      0.00
   14   12   14     -3.59      0.00
   15   12   14     -5.18      0.00
   16   12   14      3.55      0.00
   17   12   14      2.76      0.00
   18   12   14      0.25      0.00
   19   12   14     -2.68      0.00
   20   12   14      1.14      0.00
   -1   13   14     -1.76      0.00
    0   13   14      1.88      0.00
    1   13   14     -1.94      0.00
    2   13   14     -4.25      0.00
    3   13   14     -2.41      0.00
    4   13   14      0.18      0.00
    5   13   14     10.25      0.00
    6   13   14     -5.18      0.00
    7   13   14      2.23      0.00
    8   13   14      3.86      0.00
    9   13   14      3.76      0.00
   10   13   14      1.82      0.00
   11   13   14     -1.92      0.00
   12   13   14      0.44      0.00
   13   13   14      1.77      0.00
   14   13   14      1.65      0.00
   15   13   14     -0.09      0.00
   16   13   14      4.38      0.00
   17   13   14     -1.91      0.00
   18   13   14      7.19      0.00
   19   13   14     -0.34      0.00
   20   13   14     -1.58      0.00
    0   14   14     -1.88      0.00
    1   14   14     -4.82      0.00
    2   14   14     -3.07      0.00
    3   14   14      7.25      0.00
    4   14   14     -0.61      0.00
    5   14   14     -4.04      0.00
    6   14   14     -0.70      0.00
    7   14   14      1.78      0.00
    8   14   14      3.59      0.00
    9   14   14      6.36      0.00
   10   14   14      2.48      0.00
   11   14   14      3.13      0.00
   12   14   14     -1.09      0.00
   13   14   14     -0.63      0.00
   14   14   14     -3.48      0.00
   15   14   14     -3.73      0.00
   16   14   14      9.20      0.00
   17   14   14     -2.12      0.00
   18   14   14      3.96      0.00
   19   14   14      1.57      0.00
   20   14   14      4.11      0.00
    1   15   14     -3.59      0.00
    2   15   14     -0.69      0.00
    3   15   14     -1.77      0.00
    4   15   14      0.08      0.00
    5   15   14     -1.60      0.00
    6   15   14     -2.10      0.00
    7   15   14     -1.13      0.00
    8   15   14     10.03      0.00
    9   15   14      5.39      0.00
   10   15   14      3.39      0.00
   11   15   14      6.56      0.00
   12   15   14      5.30      0.00
   13   15   14      1.07      0.00
   14   15   14      4.39      0.00
   15   15   14      3.54      0.00
   16   15   14      6.25      0.00
   17   15   14     -7.64      0.00
   18   15   14     -2.23      0.00
   19   15   14     -3.12      0.00
    3   16   14      1.28      0.00
    4   16   14      3.22      0.00
    5   16   14      2.44      0.00
    6   16   14      0.85      0.00
    7   16   14     11.35      0.00
    8   16   14     10.75      0.00
    9   16   14      3.46      0.00
   10   16   14      0.06      0.00
   11   16   14      1.76      0.00
   12   16   14      9.23      0.00
   13   16   14      5.27      0.00
   14   16   14     -1.70      0.00
   15   16   14     -2.76      0.00
   16   16   14      2.46      0.00
   17   16   14     -4.36      0.00
   18   16   14      0.01      0.00
   19   16   14     -1.60      0.00
    4   17   14      1.15      0.00
    5   17   14     -1.32      0.00
    6   17   14     10.48      0.00
    7   17   14      0.26      0.00
    8   17   14      0.97      0.00
    9   17   14     -0.99      0.00
   10   17   14      4.83      0.00
   11   17   14      6.81      0.00
   12   17   14      6.93      0.00
   13   17   14      6.33      0.00
   14   17   14      4.27      0.00
   15   17   14      5.19      0.00
   16   17   14      1.26      0.00
   17   17   14     -5.83      0.00
   18   17   14     -4.46      0.00
    6   18   14      3.40      0.00
    7   18   14      6.01      0.00
    8   18   14     -0.66      0.00
    9   18   14     -5.37      0.00
   10   18   14      5.87      0.00
   11   18   14      3.39      0.00
   12   18   14      1.53      0.00
   13   18   14      0.44      0.00
   14   18   14      0.47      0.00
   15   18   14      7.36      0.00
   16   18   14      3.77      0.00
   17   18   14      0.89      0.00
   10   19   14     -0.45      0.00
   11   19   14      2.37      0.00
   12   19   14      4.01      0.00
   13   19   14      6.55      0.00
   14   19   14      1.23      0.00
   15   19   14      1.85      0.00
   -7  -17   15      1.73      0.00
   -6  -17   15      0.46      0.00
   -5  -17   15      4.13      0.00
   -4  -17   15     -2.36      0.00
   -3  -17   15      1.50      0.00
   -2  -17   15     -4.25      0.00
   -1  -17   15      0.82      0.00
    0  -17   15     -5.80      0.00
    1  -17   15     -6.67      0.00
   -9  -16   15      0.95      0.00
   -8  -16   15     -4.29      0.00
   -7  -16   15      3.61      0.00
   -6  -16   15     -7.34      0.00
   -5  -16   15      3.77      0.00
   -4  -16   15     -6.74      0.00
   -3  -16   15      0.37      0.00
   -2  -16   15     -5.00      0.00
   -1  -16   15      4.82      0.00
    0  -16   15      6.78      0.00
    1  -16   15     -0.23      0.00
    2  -16   15     -1.65      0.00
    3  -16   15      0.16      0.00
  -10  -15   15      4.54      0.00
   -9  -15   15      0.88      0.00
   -8  -15   15      1.34      0.00
   -7  -15   15      4.29      0.00
   -6  -15   15     -4.51      0.00
   -5  -15   15     -0.58      0.00
   -4  -15   15      0.31      0.00
   -3  -15   15      1.42      0.00
   -2  -15   15     -1.69      0.00
   -1  -15   15      2.94      0.00
    0  -15   15     -2.46      0.00
    1  -15   15      0.27      0.00
    2  -15   15      5.51      0.00
    3  -15   15     -1.14      0.00
    4  -15   15     -0.40      0.00
    5  -15   15      0.32      0.00
  -10  -14   15     -1.53      0.00
   -9  -14   15      0.33      0.00
   -8  -14   15      0.62      0.00
   -7  -14   15      0.88      0.00
   -6  -14   15     -4.38      0.00
   -5  -14   15     -1.86      0.00
   -4  -14   15     -2.76      0.00
   -3  -14   15      3.40      0.00
   -2  -14   15     -0.51      0.00
   -1  -14   15      3.40      0.00
    0  -14   15      3.80      0.00
    1  -14   15     -0.64      0.00
    2  -14   15      1.15      0.00
    3  -14   15     -3.21      0.00
    4  -14   15     -1.07      0.00
    5  -14   15      1.31      0.00
    6  -14   15     -7.49      0.00
    7  -14   15     -2.84      0.00
  -11  -13   15     -0.17      0.00
  -10  -13   15     -1.21      0.00
   -9  -13   15     -1.80      0.00
   -8  -13   15     -0.78      0.00
   -7  -13   15     -4.91      0.00
   -6  -13   15      0.71      0.00
   -5  -13   15      1.36      0.00
   -4  -13   15      4.04      0.00
   -3  -13   15     -1.91      0.00
   -2  -13   15      3.29      0.00
   -1  -13   15     -3.79      0.00
    0  -13   15     -0.81      0.00
    1  -13   15      1.20      0.00
    2  -13   15     -0.38      0.00
    3  -13   15      2.93      0.00
    4  -13   15     -3.02      0.00
    5  -13   15     -0.60      0.00
    6  -13   15     -0.21      0.00
    7  -13   15      5.31      0.00
    8  -13   15     -4.76      0.00
  -11  -12   15      4.18      0.00
  -10  -12   15     -5.95      0.00
   -9  -12   15     -1.86      0.00
   -8  -12   15      1.05      0.00
   -7  -12   15     -4.84      0.00
   -6  -12   15     -4.46      0.00
   -5  -12   15     -3.41      0.00
   -4  -12   15     -1.11      0.00
   -3  -12   15      2.41      0.00
   -2  -12   15     -1.47      0.00
   -1  -12   15      1.89      0.00
    0  -12   15      0.98      0.00
    1  -12   15      4.72      0.00
    2  -12   15     -0.50      0.00
    3  -12   15     -1.07      0.00
    4  -12   15     -0.53      0.00
    5  -12   15      4.88      0.00
    6  -12   15     -3.22      0.00
    7  -12   15     -0.32      0.00
    8  -12   15      0.82      0.00
    9  -12   15     -3.02      0.00
  -12  -11   15     -1.82      0.00
  -11  -11   15     -1.73      0.00
  -10  -11   15      2.26      0.00
   -9  -11   15     -0.56      0.00
   -8  -11   15      1.40      0.00
   -7  -11   15     -7.09      0.00
   -6  -11   15      0.68      0.00
   -5  -11   15      3.01      0.00
   -4  -11   15      2.39      0.00
   -3  -11   15      0.05      0.00
   -2  -11   15      2.08      0.00
   -1  -11   15     -0.49      0.00
    0  -11   15     -2.10      0.00
    1  -11   15     -2.01      0.00
    2  -11   15     -4.23      0.00
    3  -11   15      5.75      0.00
    4  -11   15     -1.61      0.00
    5  -11   15      2.82      0.00
    6  -11   15      0.49      0.00
    7  -11   15      0.08      0.00
    8  -11   15      3.36      0.00
    9  -11   15     -2.37      0.00
   10  -11   15      1.20      0.00
  -12  -10   15     -0.77      0.00
  -11  -10   15      0.36      0.00
  -10  -10   15      7.93      0.00
   -9  -10   15     -1.21      0.00
   -8  -10   15     -3.18      0.00
   -7  -10   15     -0.56      0.00
   -6  -10   15     -7.52      0.00
   -5  -10   15      1.09      0.00
   -4  -10   15     -4.87      0.00
   -3  -10   15      2.09      0.00
   -2  -10   15     -0.15      0.00
   -1  -10   15      3.18      0.00
    0  -10   15      0.53      0.00
    1  -10   15      4.68      0.00
    2  -10   15     -0.66      0.00
    3  -10   15     -1.00      0.00
    4  -10   15     -3.05      0.00
    5  -10   15     -2.82      0.00
    6  -10   15      0.00      0.00
    7  -10   15     -3.57      0.00
    8  -10   15      4.48      0.00
    9  -10   15     -3.92      0.00
   10  -10   15      0.80      0.00
   11  -10   15      1.78      0.00
  -12   -9   15      1.00      0.00
  -11   -9   15     -4.60      0.00
  -10   -9   15     -1.63      0.00
   -9   -9   15      0.59      0.00
   -8   -9   15      2.13      0.00
   -7   -9   15      0.58      0.00
   -6   -9   15     -1.14      0.00
   -5   -9   15      4.74      0.00
   -4   -9   15     -2.17      0.00
   -3   -9   15     -0.72      0.00
   -2   -9   15     -0.84      0.00
   -1   -9   15      1.27      0.00
    0   -9   15      0.63      0.00
    1   -9   15     -3.58      0.00
    2   -9   15     -9.52      0.00
    3   -9   15      3.71      0.00
    4   -9   15     -1.43      0.00
    5   -9   15     -0.84      0.00
    6   -9   15      6.90      0.00
    7   -9   15     -3.12      0.00
    8   -9   15     -2.42      0.00
    9   -9   15     -3.99      0.00
   10   -9   15     -0.17      0.00
   11   -9   15     -2.21      0.00
   12   -9   15     -0.27      0.00
  -12   -8   15      2.98      0.00
  -11   -8   15      5.35      0.00
  -10   -8   15      4.17      0.00
   -9   -8   15      1.80      0.00
   -8   -8   15     -5.64      0.00
   -7   -8   15      2.62      0.00
   -6   -8   15     -4.70      0.00
   -5   -8   15      8.85      0.00
   -4   -8   15     -0.60      0.00
   -3   -8   15      7.85      0.00
   -2   -8   15      0.80      0.00
   -1   -8   15     -3.12      0.00
    0   -8   15     -0.81      0.00
    1   -8   15      6.27      0.00
    2   -8   15     -2.24      0.00
    3   -8   15     -1.60      0.00
    4   -8   15     -7.49      0.00
    5   -8   15     -9.13      0.00
    6   -8   15      1.43      0.00
    7   -8   15     -3.33      0.00
    8   -8   15      4.56      0.00
    9   -8   15     -2.34      0.00
   10   -8   15      0.41      0.00
   11   -8   15     -3.48      0.00
   12   -8   15     -1.51      0.00
   13   -8   15      1.16      0.00
  -12   -7   15     -1.64      0.00
  -11   -7   15      5.11      0.00
  -10   -7   15     -5.95      0.00
   -9   -7   15      2.83      0.00
   -8   -7   15      1.62      0.00
   -7   -7   15      3.33      0.00
   -6   -7   15      0.20      0.00
   -5   -7   15      4.75      0.00
   -4   -7   15     -7.17      0.00
   -3   -7   15     -3.35      0.00
   -2   -7   15      3.68      0.00
   -1   -7   15      0.42      0.00
    0   -7   15     -2.83      0.00
    1   -7   15      0.19      0.00
    2   -7   15     -8.87      0.00
    3   -7   15     -4.12      0.00
    4   -7   15      7.08      0.00
    5   -7   15     -5.66      0.00
    6   -7   15      6.32      0.00
    7   -7   15     -6.59      0.00
    8   -7   15     -1.01      0.00
    9   -7   15     -2.39      0.00
   10   -7   15     -1.26      0.00
   11   -7   15     -1.29      0.00
   12   -7   15      1.57      0.00
   13   -7   15      0.04      0.00
   14   -7   15      3.98      0.00
  -12   -6   15     -0.72      0.00
  -11   -6   15      2.81      0.00
  -10   -6   15      1.33      0.00
   -9   -6   15      1.83      0.00
   -8   -6   15      0.02      0.00
   -7   -6   15      2.99      0.00
   -6   -6   15     -1.68      0.00
   -5   -6   15      5.87      0.00
   -4   -6   15      3.53      0.00
   -3   -6   15      0.27      0.00
   -2   -6   15     -4.87      0.00
   -1   -6   15     -3.35      0.00
    0   -6   15     -1.88      0.00
    1   -6   15      2.48      0.00
    2   -6   15      2.74      0.00
    3   -6   15     -4.96      0.00
    4   -6   15     -5.82      0.00
    5   -6   15     -3.93      0.00
    6   -6   15     -1.06      0.00
    7   -6   15     -2.97      0.00
    8   -6   15     -1.81      0.00
    9   -6   15     -4.49      0.00
   10   -6   15      4.10      0.00
   11   -6   15      8.48      0.00
   12   -6   15      1.60      0.00
   13   -6   15      0.45      0.00
   14   -6   15      2.51      0.00
   15   -6   15     -4.14      0.00
  -12   -5   15      1.22      0.00
  -11   -5   15      5.01      0.00
  -10   -5   15     -1.62      0.00
   -9   -5   15     -2.40      0.00
   -8   -5   15     -1.34      0.00
   -7   -5   15      0.93      0.00
   -6   -5   15     -5.23      0.00
   -5   -5   15      2.30      0.00
   -4   -5   15      0.55      0.00
   -3   -5   15    -10.26      0.00
   -2   -5   15     -2.25      0.00
   -1   -5   15      5.37      0.00
    0   -5   15     -7.34      0.00
    1   -5   15      5.02      0.00
    2   -5   15     -4.69      0.00
    3   -5   15      2.51      0.00
    4   -5   15      5.24      0.00
    5   -5   15      0.10      0.00
    6   -5   15     -3.54      0.00
    7   -5   15      1.06      0.00
    8   -5   15      2.17      0.00
    9   -5   15     -7.17      0.00
   10   -5   15      4.81      0.00
   11   -5   15     -0.20      0.00
   12   -5   15     -0.12      0.00
   13   -5   15      0.87      0.00
   14   -5   15      2.79      0.00
   15   -5   15     -0.56      0.00
  -11   -4   15     -2.26      0.00
  -10   -4   15      0.82      0.00
   -9   -4   15    -11.26      0.00
   -8   -4   15     -6.21      0.00
   -7   -4   15     -0.32      0.00
   -6   -4   15     -0.37      0.00
   -5   -4   15      2.10      0.00
   -4   -4   15      2.03      0.00
   -3   -4   15      0.24      0.00
   -2   -4   15     -5.14      0.00
   -1   -4   15      5.85      0.00
    0   -4   15     -6.99      0.00
    1   -4   15      3.57      0.00
    2   -4   15     -1.62      0.00
    3   -4   15      0.22      0.00
    4   -4   15     -7.87      0.00
    5   -4   15      8.72      0.00
    6   -4   15      2.91      0.00
    7   -4   15     -0.94      0.00
    8   -4   15     -1.49      0.00
    9   -4   15      5.97      0.00
   10   -4   15     -2.88      0.00
   11   -4   15      7.01      0.00
   12   -4   15      6.03      0.00
   13   -4   15     -7.55      0.00
   14   -4   15     -2.73      0.00
   15   -4   15     -8.63      0.00
   16   -4   15      0.43      0.00
  -11   -3   15     -1.92      0.00
  -10   -3   15      1.69      0.00
   -9   -3   15     -4.45      0.00
   -8   -3   15     -0.33      0.00
   -7   -3   15      2.79      0.00
   -6   -3   15     -4.93      0.00
   -5   -3   15      0.87      0.00
   -4   -3   15      2.26      0.00
   -3   -3   15     -2.40      0.00
   -2   -3   15     -4.91      0.00
   -1   -3   15      8.28      0.00
    0   -3   15     -2.81      0.00
    1   -3   15      6.53      0.00
    2   -3   15      1.50      0.00
    3   -3   15      9.66      0.00
    4   -3   15     -4.93      0.00
    5   -3   15      5.70      0.00
    6   -3   15     -9.94      0.00
    7   -3   15      8.02      0.00
    8   -3   15      4.51      0.00
    9   -3   15      0.85      0.00
   10   -3   15      4.53      0.00
   11   -3   15     -7.77      0.00
   12   -3   15      2.03      0.00
   13   -3   15      3.70      0.00
   14   -3   15      6.87      0.00
   15   -3   15     -0.03      0.00
   16   -3   15      4.59      0.00
   17   -3   15     -2.81      0.00
  -11   -2   15      0.12      0.00
  -10   -2   15     -2.61      0.00
   -9   -2   15     -1.75      0.00
   -8   -2   15      5.19      0.00
   -7   -2   15      0.57      0.00
   -6   -2   15      0.63      0.00
   -5   -2   15      0.03      0.00
   -4   -2   15      0.38      0.00
   -3   -2   15      2.45      0.00
   -2   -2   15      3.70      0.00
   -1   -2   15      5.80      0.00
    0   -2   15     -1.57      0.00
    1   -2   15     16.19      0.00
    2   -2   15    -11.90      0.00
    3   -2   15      7.81      0.00
    4   -2   15     -0.78      0.00
    5   -2   15      5.98      0.00
    6   -2   15      5.46      0.00
    7   -2   15     -0.51      0.00
    8   -2   15     -9.27      0.00
    9   -2   15      6.89      0.00
   10   -2   15      7.23      0.00
   11   -2   15      2.58      0.00
   12   -2   15      6.62      0.00
   13   -2   15     -7.60      0.00
   14   -2   15     -1.16      0.00
   15   -2   15     -1.92      0.00
   16   -2   15      5.13      0.00
   17   -2   15     -2.27      0.00
  -10   -1   15      2.84      0.00
   -9   -1   15      3.03      0.00
   -8   -1   15      3.17      0.00
   -7   -1   15     -2.52      0.00
   -6   -1   15     -0.10      0.00
   -5   -1   15      6.02      0.00
   -4   -1   15     -1.07      0.00
   -3   -1   15      1.15      0.00
   -2   -1   15     -1.87      0.00
   -1   -1   15      3.84      0.00
    0   -1   15      3.99      0.00
    1   -1   15     19.28      0.00
    2   -1   15      2.30      0.00
    3   -1   15      6.47      0.00
    4   -1   15    -15.83      0.00
    5   -1   15      8.07      0.00
    6   -1   15    -13.02      0.00
    7   -1   15      7.71      0.00
    8   -1   15      7.70      0.00
    9   -1   15      1.33      0.00
   10   -1   15     -4.00      0.00
   11   -1   15      1.04      0.00
   12   -1   15      3.58      0.00
   13   -1   15      2.90      0.00
   14   -1   15      3.37      0.00
   15   -1   15      0.49      0.00
   16   -1   15      5.63      0.00
   17   -1   15      0.68      0.00
   18   -1   15     -3.05      0.00
  -10    0   15     -5.10      0.00
   -9    0   15     -4.08      0.00
   -8    0   15      4.78      0.00
   -7    0   15      1.68      0.00
   -6    0   15      0.93      0.00
   -5    0   15      1.27      0.00
   -4    0   15     -2.14      0.00
   -3    0   15     -3.55      0.00
   -2    0   15      5.49      0.00
   -1    0   15      2.82      0.00
    0    0   15     -9.18      0.00
    1    0   15     14.71      0.00
    2    0   15     -9.33      0.00
    3    0   15      3.48      0.00
    4    0   15      3.90      0.00
    5    0   15      9.55      0.00
    6    0   15     -7.63      0.00
    7    0   15     -0.06      0.00
    8    0   15     -8.98      0.00
    9    0   15     -2.59      0.00
   10    0   15      7.47      0.00
   11    0   15     -2.85      0.00
   12    0   15      1.80      0.00
   13    0   15     -1.44      0.00
   14    0   15     -1.38      0.00
   15    0   15      5.41      0.00
   16    0   15      5.29      0.00
   17    0   15      1.50      0.00
   18    0   15      2.10      0.00
  -10    1   15      0.20      0.00
   -9    1   15      2.83      0.00
   -8    1   15      6.32      0.00
   -7    1   15     -2.73      0.00
   -6    1   15     -5.89      0.00
   -5    1   15      2.00      0.00
   -4    1   15     -6.71      0.00
   -3    1   15      1.42      0.00
   -2    1   15     -5.32      0.00
   -1    1   15      5.77      0.00
    0    1   15     -3.50      0.00
    1    1   15      7.84      0.00
    2    1   15     -3.79      0.00
    3    1   15      2.72      0.00
    4    1   15     -9.10      0.00
    5    1   15     11.43      0.00
    6    1   15      0.09      0.00
    7    1   15     -4.51      0.00
    8    1   15      1.41      0.00
    9    1   15      2.11      0.00
   10    1   15    -12.87      0.00
   11    1   15      5.94      0.00
   12    1   15      3.31      0.00
   13    1   15      1.51      0.00
   14    1   15      1.12      0.00
   15    1   15      2.74      0.00
   16    1   15     -2.15      0.00
   17    1   15      1.78      0.00
   18    1   15     -3.79      0.00
   19    1   15     -2.28      0.00
   -9    2   15     -3.34      0.00
   -8    2   15     10.58      0.00
   -7    2   15      3.90      0.00
   -6    2   15      1.28      0.00
   -5    2   15      0.89      0.00
   -4    2   15     -3.38      0.00
   -3    2   15     -1.36      0.00
   -2    2   15      0.88      0.00
   -1    2   15      1.83      0.00
    0    2   15    -13.40      0.00
    1    2   15     -0.34      0.00
    2    2   15     -3.66      0.00
    3    2   15      4.28      0.00
    4    2   15     -2.34      0.00
    5    2   15     12.68      0.00
    6    2   15     -2.83      0.00
    7    2   15      2.30      0.00
    8    2   15      7.18      0.00
    9    2   15     -0.84      0.00
   10    2   15      4.59      0.00
   11    2   15     -4.70      0.00
   12    2   15     -3.16      0.00
   13    2   15     -1.85      0.00
   14    2   15     -1.99      0.00
   15    2   15      4.08      0.00
   16    2   15      1.75      0.00
   17    2   15      0.08      0.00
   18    2   15      0.69      0.00
   19    2   15     -2.29      0.00
   -9    3   15      0.25      0.00
   -8    3   15      1.50      0.00
   -7    3   15      1.00      0.00
   -6    3   15     -8.22      0.00
   -5    3   15      4.35      0.00
   -4    3   15     -7.45      0.00
   -3    3   15     -1.51      0.00
   -2    3   15     -4.48      0.00
   -1    3   15      3.48      0.00
    0    3   15     -1.32      0.00
    1    3   15      4.76      0.00
    2    3   15    -11.81      0.00
    3    3   15      0.82      0.00
    4    3   15     -0.44      0.00
    5    3   15     -1.97      0.00
    6    3   15     12.55      0.00
    7    3   15     -8.92      0.00
    8    3   15     -2.26      0.00
    9    3   15     10.93      0.00
   10    3   15     -2.15      0.00
   11    3   15      4.47      0.00
   12    3   15      0.59      0.00
   13    3   15      1.52      0.00
   14    3   15     -9.54      0.00
   15    3   15      3.40      0.00
   16    3   15     -4.94      0.00
   17    3   15     -4.80      0.00
   18    3   15     -2.08      0.00
   19    3   15     -9.31      0.00
   -8    4   15      6.08      0.00
   -7    4   15      1.47      0.00
   -6    4   15     -6.09      0.00
   -5    4   15      2.26      0.00
   -4    4   15     -8.41      0.00
   -3    4   15      5.52      0.00
   -2    4   15     -1.29      0.00
   -1    4   15     -2.09      0.00
    0    4   15     -6.52      0.00
    1    4   15      1.07      0.00
    2    4   15      3.35      0.00
    3    4   15      1.26      0.00
    4    4   15     -8.57      0.00
    5    4   15     -9.00      0.00
    6    4   15     -2.29      0.00
    7    4   15     -0.75      0.00
    8    4   15      9.16      0.00
    9    4   15     -2.12      0.00
   10    4   15      2.51      0.00
   11    4   15     -1.90      0.00
   12    4   15     -3.34      0.00
   13    4   15      0.49      0.00
   14    4   15     -2.01      0.00
   15    4   15     -0.23      0.00
   16    4   15      3.71      0.00
   17    4   15      1.14      0.00
   18    4   15     -0.19      0.00
   19    4   15     -2.02      0.00
   20    4   15      3.24      0.00
   -7    5   15     -0.66      0.00
   -6    5   15     -0.99      0.00
   -5    5   15      5.39      0.00
   -4    5   15     -4.05      0.00
   -3    5   15      5.72      0.00
   -2    5   15      0.36      0.00
   -1    5   15     -1.70      0.00
    0    5   15     -0.36      0.00
    1    5   15      1.77      0.00
    2    5   15    -17.43      0.00
    3    5   15     -6.46      0.00
    4    5   15      8.88      0.00
    5    5   15    -10.42      0.00
    6    5   15      2.09      0.00
    7    5   15     -7.57      0.00
    8    5   15     -2.39      0.00
    9    5   15     -4.16      0.00
   10    5   15     11.34      0.00
   11    5   15     -0.91      0.00
   12    5   15      3.63      0.00
   13    5   15      0.49      0.00
   14    5   15     -5.47      0.00
   15    5   15      2.32      0.00
   16    5   15     -1.59      0.00
   17    5   15     -5.69      0.00
   18    5   15     -2.54      0.00
   19    5   15     -4.51      0.00
   20    5   15      3.72      0.00
   -7    6   15     -0.56      0.00
   -6    6   15     -0.28      0.00
   -5    6   15      5.14      0.00
   -4    6   15     -2.03      0.00
   -3    6   15      8.53      0.00
   -2    6   15      0.43      0.00
   -1    6   15      2.05      0.00
    0    6   15     -0.63      0.00
    1    6   15     -2.23      0.00
    2    6   15     -4.35      0.00
    3    6   15     -2.71      0.00
    4    6   15     -4.46      0.00
    5    6   15    -10.31      0.00
    6    6   15      0.60      0.00
    7    6   15     -2.07      0.00
    8    6   15      4.36      0.00
    9    6   15     -5.34      0.00
   10    6   15     -0.83      0.00
   11    6   15     -0.33      0.00
   12    6   15      3.24      0.00
   13    6   15     -0.62      0.00
   14    6   15      0.79      0.00
   15    6   15     -6.72      0.00
   16    6   15      2.64      0.00
   17    6   15     -0.07      0.00
   18    6   15      0.11      0.00
   19    6   15      4.81      0.00
   20    6   15      3.30      0.00
   -6    7   15      0.37      0.00
   -5    7   15      4.26      0.00
   -4    7   15      1.86      0.00
   -3    7   15      2.70      0.00
   -2    7   15      2.72      0.00
   -1    7   15      4.33      0.00
    0    7   15     -3.12      0.00
    1    7   15      2.06      0.00
    2    7   15     -2.78      0.00
    3    7   15     -2.28      0.00
    4    7   15      7.77      0.00
    5    7   15      4.54      0.00
    6    7   15     -2.45      0.00
    7    7   15     -3.53      0.00
    8    7   15      4.71      0.00
    9    7   15     -6.45      0.00
   10    7   15     10.36      0.00
   11    7   15     -3.30      0.00
   12    7   15     -2.07      0.00
   13    7   15      0.31      0.00
   14    7   15     -0.36      0.00
   15    7   15     -4.15      0.00
   16    7   15      0.28      0.00
   17    7   15     -4.84      0.00
   18    7   15     -1.41      0.00
   19    7   15      1.68      0.00
   20    7   15      3.23      0.00
   -5    8   15     -1.19      0.00
   -4    8   15     -5.41      0.00
   -3    8   15     -4.76      0.00
   -2    8   15     -3.86      0.00
   -1    8   15      3.83      0.00
    0    8   15      3.79      0.00
    1    8   15      1.19      0.00
    2    8   15     -1.62      0.00
    3    8   15     -0.06      0.00
    4    8   15      1.49      0.00
    5    8   15     -1.64      0.00
    6    8   15      6.74      0.00
    7    8   15     -0.47      0.00
    8    8   15     -0.67      0.00
    9    8   15     -7.04      0.00
   10    8   15     -7.10      0.00
   11    8   15     -0.11      0.00
   12    8   15     -0.54      0.00
   13    8   15     -5.49      0.00
   14    8   15     -3.55      0.00
   15    8   15     -3.04      0.00
   16    8   15     -0.25      0.00
   17    8   15      1.84      0.00
   18    8   15     -1.92      0.00
   19    8   15      4.32      0.00
   20    8   15      1.09      0.00
   -4    9   15      6.60      0.00
   -3    9   15     -7.14      0.00
   -2    9   15      0.31      0.00
   -1    9   15      2.77      0.00
    0    9   15     -1.19      0.00
    1    9   15      2.09      0.00
    2    9   15      8.15      0.00
    3    9   15     -1.95      0.00
    4    9   15     -3.64      0.00
    5    9   15      2.76      0.00
    6    9   15      4.12      0.00
    7    9   15     -3.56      0.00
    8    9   15      6.56      0.00
    9    9   15     -1.63      0.00
   10    9   15      2.33      0.00
   11    9   15     -0.93      0.00
   12    9   15     -2.60      0.00
   13    9   15      1.83      0.00
   14    9   15     -4.76      0.00
   15    9   15     -4.40      0.00
   16    9   15      0.53      0.00
   17    9   15      3.43      0.00
   18    9   15      2.23      0.00
   19    9   15      2.11      0.00
   20    9   15      1.68      0.00
   -4   10   15     -1.99      0.00
   -3   10   15      4.92      0.00
   -2   10   15     12.57      0.00
   -1   10   15      2.78      0.00
    0   10   15     -5.15      0.00
    1   10   15      2.36      0.00
    2   10   15     -0.99      0.00
    3   10   15     -0.81      0.00
    4   10   15      0.15      0.00
    5   10   15     -1.98      0.00
    6   10   15      6.61      0.00
    7   10   15     -6.06      0.00
    8   10   15     -5.73      0.00
    9   10   15     -0.49      0.00
   10   10   15     -0.58      0.00
   11   10   15     -0.08      0.00
   12   10   15     -5.16      0.00
   13   10   15     -0.68      0.00
   14   10   15     -6.70      0.00
   15   10   15      4.29      0.00
   16   10   15      2.85      0.00
   17   10   15      2.56      0.00
   18   10   15     -3.18      0.00
   19   10   15      1.80      0.00
   20   10   15     -3.01      0.00
   -3   11   15     -1.31      0.00
   -2   11   15      2.92      0.00
   -1   11   15     -0.45      0.00
    0   11   15      1.53      0.00
    1   11   15      0.56      0.00
    2   11   15      6.95      0.00
    3   11   15      2.72      0.00
    4   11   15     -1.74      0.00
    5   11   15     -4.85      0.00
    6   11   15     -2.00      0.00
    7   11   15     -0.30      0.00
    8   11   15     -8.03      0.00
    9   11   15      3.30      0.00
   10   11   15     -3.65      0.00
   11   11   15      4.65      0.00
   12   11   15     -1.44      0.00
   13   11   15     -0.42      0.00
   14   11   15      1.27      0.00
   15   11   15     -0.03      0.00
   16   11   15      7.35      0.00
   17   11   15      2.93      0.00
   18   11   15      0.72      0.00
   19   11   15     -3.63      0.00
   20   11   15     -2.53      0.00
   -2   12   15     -0.14      0.00
   -1   12   15      3.81      0.00
    0   12   15     -1.32      0.00
    1   12   15      5.10      0.00
    2   12   15     -5.76      0.00
    3   12   15     -0.69      0.00
    4   12   15      0.15      0.00
    5   12   15     -2.73      0.00
    6   12   15     -6.74      0.00
    7   12   15      5.19      0.00
    8   12   15      0.29      0.00
    9   12   15      0.28      0.00
   10   12   15     -5.82      0.00
   11   12   15      2.41      0.00
   12   12   15     -1.63      0.00
   13   12   15      0.90      0.00
   14   12   15     -3.42      0.00
   15   12   15      0.61      0.00
   16   12   15      0.53      0.00
   17   12   15      0.62      0.00
   18   12   15      2.72      0.00
   19   12   15     -0.30      0.00
   20   12   15    -10.27      0.00
    0   13   15     -3.40      0.00
    1   13   15     -4.31      0.00
    2   13   15      4.49      0.00
    3   13   15      1.23      0.00
    4   13   15     -3.89      0.00
    5   13   15     -3.06      0.00
    6   13   15      3.49      0.00
    7   13   15     -0.92      0.00
    8   13   15     -3.68      0.00
    9   13   15      1.78      0.00
   10   13   15     -9.65      0.00
   11   13   15      3.43      0.00
   12   13   15     -2.77      0.00
   13   13   15     -0.98      0.00
   14   13   15     -7.48      0.00
   15   13   15     -1.09      0.00
   16   13   15      5.90      0.00
   17   13   15     -2.59      0.00
   18   13   15      5.83      0.00
   19   13   15      7.36      0.00
    1   14   15      3.66      0.00
    2   14   15      0.45      0.00
    3   14   15     -2.89      0.00
    4   14   15      1.93      0.00
    5   14   15      6.44      0.00
    6   14   15      0.56      0.00
    7   14   15     -8.45      0.00
    8   14   15     -1.80      0.00
    9   14   15     -4.22      0.00
   10   14   15     -4.62      0.00
   11   14   15      0.85      0.00
   12   14   15     -1.80      0.00
   13   14   15     -0.80      0.00
   14   14   15     -4.83      0.00
   15   14   15     -0.71      0.00
   16   14   15      1.04      0.00
   17   14   15     -0.71      0.00
   18   14   15      5.04      0.00
   19   14   15      8.60      0.00
    2   15   15      3.42      0.00
    3   15   15      0.82      0.00
    4   15   15      2.67      0.00
    5   15   15     -1.23      0.00
    6   15   15      2.55      0.00
    7   15   15     -9.54      0.00
    8   15   15     -5.37      0.00
    9   15   15     -6.75      0.00
   10   15   15    -10.15      0.00
   11   15   15     -0.27      0.00
   12   15   15      0.16      0.00
   13   15   15     -4.83      0.00
   14   15   15    -13.71      0.00
   15   15   15      0.35      0.00
   16   15   15      4.54      0.00
   17   15   15      2.82      0.00
   18   15   15      3.83      0.00
   19   15   15      1.03      0.00
    4   16   15      3.77      0.00
    5   16   15      3.72      0.00
    6   16   15      1.46      0.00
    7   16   15    -13.76      0.00
    8   16   15      6.21      0.00
    9   16   15     -1.80      0.00
   10   16   15      0.89      0.00
   11   16   15     -1.90      0.00
   12   16   15      5.55      0.00
   13   16   15      2.19      0.00
   14   16   15     -2.20      0.00
   15   16   15     -3.16      0.00
   16   16   15     -3.11      0.00
   17   16   15     -5.60      0.00
   18   16   15      3.13      0.00
    6   17   15      1.70      0.00
    7   17   15     -0.42      0.00
    8   17   15     -3.66      0.00
    9   17   15     -5.20      0.00
   10   17   15     -0.86      0.00
   11   17   15     -3.62      0.00
   12   17   15      0.58      0.00
   13   17   15     -2.96      0.00
   14   17   15     -2.88      0.00
   15   17   15      2.18      0.00
   16   17   15      0.66      0.00
   17   17   15     -0.91      0.00
    8   18   15      5.65      0.00
    9   18   15     -1.71      0.00
   10   18   15      0.00      0.00
   11   18   15      7.27      0.00
   12   18   15     -0.12      0.00
   13   18   15     -5.03      0.00
   14   18   15     -3.95      0.00
   15   18   15     -4.23      0.00
   16   18   15      5.84      0.00
   -5  -17   16      1.07      0.00
   -4  -17   16     -0.56      0.00
   -3  -17   16      3.16      0.00
   -2  -17   16      0.38      0.00
   -7  -16   16      2.36      0.00
   -6  -16   16     -5.91      0.00
   -5  -16   16      6.17      0.00
   -4  -16   16      0.69      0.00
   -3  -16   16      5.54      0.00
   -2  -16   16     -5.51      0.00
   -1  -16   16     -0.23      0.00
    0  -16   16     -1.35      0.00
    1  -16   16     -1.88      0.00
    2  -16   16     -0.22      0.00
   -8  -15   16      0.27      0.00
   -7  -15   16      2.60      0.00
   -6  -15   16     -1.78      0.00
   -5  -15   16      4.17      0.00
   -4  -15   16      2.71      0.00
   -3  -15   16      3.09      0.00
   -2  -15   16     -2.79      0.00
   -1  -15   16      0.97      0.00
    0  -15   16      3.13      0.00
    1  -15   16     -3.45      0.00
    2  -15   16     -1.96      0.00
    3  -15   16     -2.25      0.00
    4  -15   16      4.17      0.00
   -9  -14   16     -3.82      0.00
   -8  -14   16      1.99      0.00
   -7  -14   16      3.20      0.00
   -6  -14   16      2.60      0.00
   -5  -14   16      7.62      0.00
   -4  -14   16      2.05      0.00
   -3  -14   16      3.80      0.00
   -2  -14   16     -3.70      0.00
   -1  -14   16     -0.24      0.00
    0  -14   16     -4.64      0.00
    1  -14   16      3.12      0.00
    2  -14   16     -0.44      0.00
    3  -14   16      1.93      0.00
    4  -14   16     -1.05      0.00
    5  -14   16      4.22      0.00
    6  -14   16      1.83      0.00
  -10  -13   16     -7.60      0.00
   -9  -13   16     -5.18      0.00
   -8  -13   16      2.00      0.00
   -7  -13   16     -5.36      0.00
   -6  -13   16     -0.43      0.00
   -5  -13   16      3.59      0.00
   -4  -13   16      5.24      0.00
   -3  -13   16      2.89      0.00
   -2  -13   16     -3.91      0.00
   -1  -13   16      2.73      0.00
    0  -13   16     -5.36      0.00
    1  -13   16      1.65      0.00
    2  -13   16     -5.21      0.00
    3  -13   16      0.98      0.00
    4  -13   16      0.40      0.00
    5  -13   16      2.07      0.00
    6  -13   16     -4.83      0.00
    7  -13   16      2.91      0.00
  -10  -12   16      1.12      0.00
   -9  -12   16     -9.14      0.00
   -8  -12   16      1.88      0.00
   -7  -12   16     -2.85      0.00
   -6  -12   16      4.16      0.00
   -5  -12   16      8.09      0.00
   -4  -12   16      1.40      0.00
   -3  -12   16     -0.55      0.00
   -2  -12   16     -4.29      0.00
   -1  -12   16      0.92      0.00
    0  -12   16     -7.11      0.00
    1  -12   16      4.25      0.00
    2  -12   16     -3.33      0.00
    3  -12   16      4.09      0.00
    4  -12   16     -2.26      0.00
    5  -12   16      5.03      0.00
    6  -12   16      0.44      0.00
    7  -12   16      5.11      0.00
    8  -12   16      0.17      0.00
    9  -12   16      1.36      0.00
  -11  -11   16      1.92      0.00
  -10  -11   16      0.57      0.00
   -9  -11   16     -7.44      0.00
   -8  -11   16     -2.32      0.00
   -7  -11   16     -5.40      0.00
   -6  -11   16     -4.34      0.00
   -5  -11   16      2.80      0.00
   -4  -11   16      5.09      0.00
   -3  -11   16     -1.33      0.00
   -2  -11   16     -1.98      0.00
   -1  -11   16      2.85      0.00
    0  -11   16     -3.89      0.00
    1  -11   16      4.81      0.00
    2  -11   16     -8.05      0.00
    3  -11   16     -2.39      0.00
    4  -11   16     -1.41      0.00
    5  -11   16      0.49      0.00
    6  -11   16     -3.54      0.00
    7  -11   16     -0.17      0.00
    8  -11   16      3.63      0.00
    9  -11   16      0.25      0.00
   10  -11   16     -0.68      0.00
  -11  -10   16     -3.95      0.00
  -10  -10   16      3.72      0.00
   -9  -10   16      0.04      0.00
   -8  -10   16      1.98      0.00
   -7  -10   16     -0.60      0.00
   -6  -10   16     -0.90      0.00
   -5  -10   16      2.01      0.00
   -4  -10   16     -3.73      0.00
   -3  -10   16     -8.53      0.00
   -2  -10   16     -5.90      0.00
   -1  -10   16      1.90      0.00
    0  -10   16     -4.92      0.00
    1  -10   16      2.13      0.00
    2  -10   16     -5.71      0.00
    3  -10   16      5.94      0.00
    4  -10   16     -2.00      0.00
    5  -10   16      3.45      0.00
    6  -10   16     -0.03      0.00
    7  -10   16     -0.54      0.00
    8  -10   16     -0.08      0.00
    9  -10   16     -0.85      0.00
   10  -10   16     -3.65      0.00
   11  -10   16     -1.67      0.00
  -11   -9   16      1.51      0.00
  -10   -9   16     -2.50      0.00
   -9   -9   16     -6.09      0.00
   -8   -9   16     -4.64      0.00
   -7   -9   16      4.18      0.00
   -6   -9   16     -6.14      0.00
   -5   -9   16      0.89      0.00
   -4   -9   16     -1.71      0.00
   -3   -9   16     -4.40      0.00
   -2   -9   16     -2.79      0.00
   -1   -9   16      1.15      0.00
    0   -9   16      2.97      0.00
    1   -9   16      7.85      0.00
    2   -9   16     -7.57      0.00
    3   -9   16     -2.62      0.00
    4   -9   16     -3.82      0.00
    5   -9   16     -1.32      0.00
    6   -9   16      1.31      0.00
    7   -9   16      1.97      0.00
    8   -9   16      0.32      0.00
    9   -9   16     -4.25      0.00
   10   -9   16     -1.79      0.00
   11   -9   16      1.39      0.00
   12   -9   16      1.68      0.00
  -11   -8   16      4.26      0.00
  -10   -8   16     -5.29      0.00
   -9   -8   16      1.78      0.00
   -8   -8   16      1.27      0.00
   -7   -8   16      1.91      0.00
   -6   -8   16     -3.83      0.00
   -5   -8   16     -2.82      0.00
   -4   -8   16     -8.00      0.00
   -3   -8   16     -1.98      0.00
   -2   -8   16      1.03      0.00
   -1   -8   16      4.53      0.00
    0   -8   16      0.48      0.00
    1   -8   16      3.21      0.00
    2   -8   16     -2.75      0.00
    3   -8   16      7.66      0.00
    4   -8   16      9.40      0.00
    5   -8   16     -2.55      0.00
    6   -8   16      4.39      0.00
    7   -8   16     -1.96      0.00
    8   -8   16     -1.09      0.00
    9   -8   16      1.15      0.00
   10   -8   16     -0.88      0.00
   11   -8   16      2.41      0.00
   12   -8   16     -2.73      0.00
   13   -8   16      2.07      0.00
  -11   -7   16      3.76      0.00
  -10   -7   16      1.08      0.00
   -9   -7   16      0.51      0.00
   -8   -7   16      3.05      0.00
   -7   -7   16      6.51      0.00
   -6   -7   16     -0.97      0.00
   -5   -7   16      4.37      0.00
   -4   -7   16      0.33      0.00
   -3   -7   16     -5.94      0.00
   -2   -7   16      0.46      0.00
   -1   -7   16     -0.14      0.00
    0   -7   16      4.72      0.00
    1   -7   16      2.95      0.00
    2   -7   16      2.15      0.00
    3   -7   16     -4.58      0.00
    4   -7   16     -5.10      0.00
    5   -7   16      2.20      0.00
    6   -7   16      0.65      0.00
    7   -7   16      0.07      0.00
    8   -7   16      0.09      0.00
    9   -7   16      2.70      0.00
   10   -7   16      6.49      0.00
   11   -7   16      2.33      0.00
   12   -7   16     -3.74      0.00
   13   -7   16      1.78      0.00
   14   -7   16      0.61      0.00
  -11   -6   16     -0.76      0.00
  -10   -6   16     -2.80      0.00
   -9   -6   16      3.50      0.00
   -8   -6   16      8.92      0.00
   -7   -6   16      4.94      0.00
   -6   -6   16     -0.60      0.00
   -5   -6   16      1.46      0.00
   -4   -6   16     -5.73      0.00
   -3   -6   16     -3.31      0.00
   -2   -6   16     -1.81      0.00
   -1   -6   16      4.89      0.00
    0   -6   16     -1.60      0.00
    1   -6   16      1.74      0.00
    2   -6   16      0.06      0.00
    3   -6   16      7.45      0.00
    4   -6   16      4.99      0.00
    5   -6   16     -0.88      0.00
    6   -6   16      3.50      0.00
    7   -6   16     -7.83      0.00
    8   -6   16     -4.63      0.00
    9   -6   16     -4.49      0.00
   10   -6   16     -1.75      0.00
   11   -6   16      2.66      0.00
   12   -6   16     -0.12      0.00
   13   -6   16      3.16      0.00
   14   -6   16      1.88      0.00
  -11   -5   16      0.77      0.00
  -10   -5   16      5.38      0.00
   -9   -5   16      0.14      0.00
   -8   -5   16      1.14      0.00
   -7   -5   16      8.35      0.00
   -6   -5   16      3.73      0.00
   -5   -5   16      3.44      0.00
   -4   -5   16      3.37      0.00
   -3   -5   16     -1.88      0.00
   -2   -5   16     -6.85      0.00
   -1   -5   16      0.71      0.00
    0   -5   16      3.50      0.00
    1   -5   16     -7.65      0.00
    2   -5   16      3.06      0.00
    3   -5   16     -6.86      0.00
    4   -5   16     -1.08      0.00
    5   -5   16      8.96      0.00
    6   -5   16     -1.57      0.00
    7   -5   16     -1.09      0.00
    8   -5   16      1.44      0.00
    9   -5   16     -1.38      0.00
   10   -5   16     -1.94      0.00
   11   -5   16      5.13      0.00
   12   -5   16     -0.61      0.00
   13   -5   16     -6.00      0.00
   14   -5   16      0.30      0.00
   15   -5   16     -4.09      0.00
  -11   -4   16      2.48      0.00
  -10   -4   16      3.48      0.00
   -9   -4   16     -1.47      0.00
   -8   -4   16     -8.02      0.00
   -7   -4   16     -2.84      0.00
   -6   -4   16     -2.26      0.00
   -5   -4   16     -1.06      0.00
   -4   -4   16     -2.08      0.00
   -3   -4   16      0.31      0.00
   -2   -4   16     -2.85      0.00
   -1   -4   16      6.21      0.00
    0   -4   16     -5.33      0.00
    1   -4   16     -2.66      0.00
    2   -4   16     -4.32      0.00
    3   -4   16      1.06      0.00
    4   -4   16     -2.77      0.00
    5   -4   16     -0.76      0.00
    6   -4   16      2.85      0.00
    7   -4   16     -3.59      0.00
    8   -4   16      0.83      0.00
    9   -4   16     -6.96      0.00
   10   -4   16      0.51      0.00
   11   -4   16     -8.54      0.00
   12   -4   16      7.31      0.00
   13   -4   16      3.43      0.00
   14   -4   16      5.38      0.00
   15   -4   16     -1.21      0.00
   16   -4   16     -4.45      0.00
  -10   -3   16     -0.94      0.00
   -9   -3   16      1.54      0.00
   -8   -3   16     -2.12      0.00
   -7   -3   16      2.55      0.00
   -6   -3   16      2.71      0.00
   -5   -3   16      0.01      0.00
   -4   -3   16     -1.79      0.00
   -3   -3   16      3.70      0.00
   -2   -3   16     -2.06      0.00
   -1   -3   16     -0.64      0.00
    0   -3   16      0.17      0.00
    1   -3   16     -6.40      0.00
    2   -3   16     -5.62      0.00
    3   -3   16      0.00      0.00
    4   -3   16     -1.29      0.00
    5   -3   16      3.95      0.00
    6   -3   16      6.15      0.00
    7   -3   16    -10.15      0.00
    8   -3   16      2.00      0.00
    9   -3   16      4.33      0.00
   10   -3   16      4.42      0.00
   11   -3   16     -1.72      0.00
   12   -3   16     -1.45      0.00
   13   -3   16     -9.84      0.00
   14   -3   16      4.73      0.00
   15   -3   16     -3.73      0.00
   16   -3   16      4.31      0.00
  -10   -2   16      2.75      0.00
   -9   -2   16     -0.50      0.00
   -8   -2   16      1.90      0.00
   -7   -2   16     -0.16      0.00
   -6   -2   16     -0.12      0.00
   -5   -2   16     -1.04      0.00
   -4   -2   16     -8.90      0.00
   -3   -2   16      1.36      0.00
   -2   -2   16      0.58      0.00
   -1   -2   16      2.24      0.00
    0   -2   16     -1.70      0.00
    1   -2   16      6.42      0.00
    2   -2   16     -6.26      0.00
    3   -2   16     -7.14      0.00
    4   -2   16     -8.67      0.00
    5   -2   16      0.14      0.00
    6   -2   16     -4.06      0.00
    7   -2   16      8.81      0.00
    8   -2   16      1.74      0.00
    9   -2   16     -8.83      0.00
   10   -2   16      1.90      0.00
   11   -2   16     -4.15      0.00
   12   -2   16      6.83      0.00
   13   -2   16      3.17      0.00
   14   -2   16      1.37      0.00
   15   -2   16     -1.99      0.00
   16   -2   16     -0.12      0.00
   17   -2   16     -2.93      0.00
  -10   -1   16     -2.10      0.00
   -9   -1   16      4.90      0.00
   -8   -1   16      8.19      0.00
   -7   -1   16     -0.64      0.00
   -6   -1   16     -0.73      0.00
   -5   -1   16      2.81      0.00
   -4   -1   16     -6.99      0.00
   -3   -1   16      8.36      0.00
   -2   -1   16      5.54      0.00
   -1   -1   16     -1.05      0.00
    0   -1   16     -6.01      0.00
    1   -1   16      9.56      0.00
    2   -1   16     -6.04      0.00
    3   -1   16      5.29      0.00
    4   -1   16     -0.26      0.00
    5   -1   16     -0.64      0.00
    6   -1   16     -1.55      0.00
    7   -1   16     -4.89      0.00
    8   -1   16     -1.40      0.00
    9   -1   16      7.00      0.00
   10   -1   16      6.30      0.00
   11   -1   16     -4.60      0.00
   12   -1   16      2.27      0.00
   13   -1   16     -7.40      0.00
   14   -1   16      1.48      0.00
   15   -1   16     -4.56      0.00
   16   -1   16     -0.36      0.00
   17   -1   16      0.00      0.00
   18   -1   16      2.29      0.00
   -9    0   16      2.08      0.00
   -8    0   16      3.51      0.00
   -7    0   16     -9.89      0.00
   -6    0   16      2.66      0.00
   -5    0   16      5.52      0.00
   -4    0   16     -4.48      0.00
   -3    0   16      4.69      0.00
   -2    0   16     -2.71      0.00
   -1    0   16      5.98      0.00
    0    0   16     -4.87      0.00
    1    0   16      5.57      0.00
    2    0   16     -1.59      0.00
    3    0   16     -2.98      0.00
    4    0   16     -9.76      0.00
    5    0   16     11.05      0.00
    6    0   16     -8.28      0.00
    7    0   16      1.53      0.00
    8    0   16     -1.23      0.00
    9    0   16     -8.25      0.00
   10    0   16     -5.38      0.00
   11    0   16      5.24      0.00
   12    0   16      3.24      0.00
   13    0   16     -0.45      0.00
   14    0   16     -1.83      0.00
   15    0   16     -6.96      0.00
   16    0   16      1.81      0.00
   17    0   16      2.69      0.00
   18    0   16      0.61      0.00
   -9    1   16      1.28      0.00
   -8    1   16     10.43      0.00
   -7    1   16     -4.92      0.00
   -6    1   16      2.85      0.00
   -5    1   16     -1.49      0.00
   -4    1   16     -4.06      0.00
   -3    1   16      7.25      0.00
   -2    1   16      1.40      0.00
   -1    1   16     -0.55      0.00
    0    1   16     -8.37      0.00
    1    1   16      8.79      0.00
    2    1   16     -4.64      0.00
    3    1   16     13.18      0.00
    4    1   16     -0.32      0.00
    5    1   16      8.42      0.00
    6    1   16     -4.62      0.00
    7    1   16      3.47      0.00
    8    1   16     -5.84      0.00
    9    1   16      1.23      0.00
   10    1   16     -3.16      0.00
   11    1   16     -9.36      0.00
   12    1   16      2.80      0.00
   13    1   16     -2.21      0.00
   14    1   16     -0.16      0.00
   15    1   16     -0.16      0.00
   16    1   16      1.45      0.00
   17    1   16      0.20      0.00
   18    1   16      6.56      0.00
   -8    2   16     -1.22      0.00
   -7    2   16     -4.41      0.00
   -6    2   16      1.22      0.00
   -5    2   16      4.02      0.00
   -4    2   16     -0.84      0.00
   -3    2   16      8.44      0.00
   -2    2   16      0.17      0.00
   -1    2   16      7.45      0.00
    0    2   16      1.22      0.00
    1    2   16      1.47      0.00
    2    2   16     -8.80      0.00
    3    2   16     10.76      0.00
    4    2   16     -5.84      0.00
    5    2   16      9.87      0.00
    6    2   16     -0.52      0.00
    7    2   16     -1.35      0.00
    8    2   16     -1.20      0.00
    9    2   16      7.89      0.00
   10    2   16     -7.51      0.00
   11    2   16      6.94      0.00
   12    2   16     -6.58      0.00
   13    2   16     -3.02      0.00
   14    2   16     -7.41      0.00
   15    2   16      0.06      0.00
   16    2   16     -1.17      0.00
   17    2   16     -2.44      0.00
   18    2   16      3.95      0.00
   19    2   16      0.97      0.00
   -8    3   16     -2.00      0.00
   -7    3   16    -10.50      0.00
   -6    3   16      2.83      0.00
   -5    3   16      3.71      0.00
   -4    3   16      3.80      0.00
   -3    3   16      4.12      0.00
   -2    3   16     -3.61      0.00
   -1    3   16     -1.14      0.00
    0    3   16     -0.60      0.00
    1    3   16     12.13      0.00
    2    3   16     -0.43      0.00
    3    3   16     10.03      0.00
    4    3   16     -7.87      0.00
    5    3   16      6.98      0.00
    6    3   16     -3.31      0.00
    7    3   16     17.00      0.00
    8    3   16     -6.10      0.00
    9    3   16      2.53      0.00
   10    3   16     -0.97      0.00
   11    3   16     -4.67      0.00
   12    3   16     -3.72      0.00
   13    3   16      2.73      0.00
   14    3   16     -2.97      0.00
   15    3   16      1.94      0.00
   16    3   16      4.13      0.00
   17    3   16      0.70      0.00
   18    3   16      3.26      0.00
   19    3   16     -0.29      0.00
   -7    4   16     -3.62      0.00
   -6    4   16      0.96      0.00
   -5    4   16      8.51      0.00
   -4    4   16      0.03      0.00
   -3    4   16      5.55      0.00
   -2    4   16     -1.49      0.00
   -1    4   16      1.98      0.00
    0    4   16      2.43      0.00
    1    4   16      0.30      0.00
    2    4   16     -6.63      0.00
    3    4   16     15.91      0.00
    4    4   16      1.06      0.00
    5    4   16      0.52      0.00
    6    4   16     -3.02      0.00
    7    4   16     -2.03      0.00
    8    4   16     -4.75      0.00
    9    4   16      7.00      0.00
   10    4   16      2.00      0.00
   11    4   16      2.48      0.00
   12    4   16     -1.29      0.00
   13    4   16     -4.57      0.00
   14    4   16     -2.46      0.00
   15    4   16      0.29      0.00
   16    4   16     -2.75      0.00
   17    4   16      0.86      0.00
   18    4   16      1.99      0.00
   19    4   16     -0.85      0.00
   -7    5   16     -6.84      0.00
   -6    5   16      3.30      0.00
   -5    5   16      4.60      0.00
   -4    5   16     -1.19      0.00
   -3    5   16      3.81      0.00
   -2    5   16      1.30      0.00
   -1    5   16      1.19      0.00
    0    5   16     -1.64      0.00
    1    5   16      5.77      0.00
    2    5   16     -0.04      0.00
    3    5   16      1.65      0.00
    4    5   16     -8.44      0.00
    5    5   16      4.96      0.00
    6    5   16     -4.27      0.00
    7    5   16     10.91      0.00
    8    5   16     -0.47      0.00
    9    5   16     -4.89      0.00
   10    5   16     -0.37      0.00
   11    5   16      5.72      0.00
   12    5   16      3.01      0.00
   13    5   16      1.78      0.00
   14    5   16      2.80      0.00
   15    5   16     -0.51      0.00
   16    5   16      7.90      0.00
   17    5   16      2.21      0.00
   18    5   16     -1.53      0.00
   19    5   16     -1.51      0.00
   20    5   16     -3.80      0.00
   -6    6   16      3.40      0.00
   -5    6   16      7.19      0.00
   -4    6   16     -0.92      0.00
   -3    6   16      4.75      0.00
   -2    6   16     -0.02      0.00
   -1    6   16      3.78      0.00
    0    6   16     -3.07      0.00
    1    6   16      5.27      0.00
    2    6   16     -5.99      0.00
    3    6   16      5.71      0.00
    4    6   16      0.19      0.00
    5    6   16      2.70      0.00
    6    6   16     -7.98      0.00
    7    6   16     -0.63      0.00
    8    6   16      4.27      0.00
    9    6   16      2.44      0.00
   10    6   16      7.63      0.00
   11    6   16     -5.12      0.00
   12    6   16      5.27      0.00
   13    6   16     -1.20      0.00
   14    6   16      5.94      0.00
   15    6   16     -1.15      0.00
   16    6   16     -1.24      0.00
   17    6   16     -0.02      0.00
   18    6   16     -4.58      0.00
   19    6   16     -1.23      0.00
   20    6   16      2.88      0.00
   -5    7   16     -1.24      0.00
   -4    7   16      1.68      0.00
   -3    7   16      0.79      0.00
   -2    7   16      3.27      0.00
   -1    7   16      7.77      0.00
    0    7   16      1.88      0.00
    1    7   16     -2.14      0.00
    2    7   16     -1.41      0.00
    3    7   16      5.08      0.00
    4    7   16     -0.45      0.00
    5    7   16      9.08      0.00
    6    7   16      4.72      0.00
    7    7   16     -5.85      0.00
    8    7   16      3.65      0.00
    9    7   16     -5.30      0.00
   10    7   16      0.71      0.00
   11    7   16      9.54      0.00
   12    7   16      4.82      0.00
   13    7   16     -0.09      0.00
   14    7   16      8.67      0.00
   15    7   16      1.78      0.00
   16    7   16      2.54      0.00
   17    7   16      1.90      0.00
   18    7   16     -0.66      0.00
   19    7   16     -0.89      0.00
   20    7   16      0.52      0.00
   -4    8   16      0.41      0.00
   -3    8   16     -9.77      0.00
   -2    8   16     -5.25      0.00
   -1    8   16     -0.50      0.00
    0    8   16     -4.06      0.00
    1    8   16      8.80      0.00
    2    8   16     -0.01      0.00
    3    8   16      0.23      0.00
    4    8   16     -0.27      0.00
    5    8   16      2.71      0.00
    6    8   16     -0.52      0.00
    7    8   16     -9.71      0.00
    8    8   16      9.75      0.00
    9    8   16     -4.62      0.00
   10    8   16      2.61      0.00
   11    8   16     -5.69      0.00
   12    8   16      5.62      0.00
   13    8   16      2.30      0.00
   14    8   16      3.21      0.00
   15    8   16      4.40      0.00
   16    8   16     -2.46      0.00
   17    8   16      1.65      0.00
   18    8   16     -0.95      0.00
   19    8   16     -1.54      0.00
   20    8   16      0.41      0.00
   -4    9   16      3.30      0.00
   -3    9   16     -4.10      0.00
   -2    9   16     -0.68      0.00
   -1    9   16     -4.65      0.00
    0    9   16      0.04      0.00
    1    9   16     -2.78      0.00
    2    9   16      0.31      0.00
    3    9   16      3.49      0.00
    4    9   16     -0.15      0.00
    5    9   16     -5.30      0.00
    6    9   16      5.19      0.00
    7    9   16    -12.22      0.00
    8    9   16      2.11      0.00
    9    9   16     -1.32      0.00
   10    9   16     -2.78      0.00
   11    9   16     -0.51      0.00
   12    9   16      3.19      0.00
   13    9   16      1.56      0.00
   14    9   16      7.75      0.00
   15    9   16      3.93      0.00
   16    9   16     -2.95      0.00
   17    9   16     -3.20      0.00
   18    9   16     -0.70      0.00
   19    9   16     -2.80      0.00
   20    9   16     -0.97      0.00
   -3   10   16    -13.81      0.00
   -2   10   16      3.65      0.00
   -1   10   16      3.62      0.00
    0   10   16     -3.09      0.00
    1   10   16      0.61      0.00
    2   10   16      1.31      0.00
    3   10   16     -3.15      0.00
    4   10   16     -1.92      0.00
    5   10   16     -5.33      0.00
    6   10   16      2.47      0.00
    7   10   16     -1.77      0.00
    8   10   16      2.03      0.00
    9   10   16      1.85      0.00
   10   10   16     -0.84      0.00
   11   10   16      2.67      0.00
   12   10   16      0.84      0.00
   13   10   16      1.09      0.00
   14   10   16      1.83      0.00
   15   10   16      1.28      0.00
   16   10   16     -1.44      0.00
   17   10   16      2.94      0.00
   18   10   16     -2.52      0.00
   19   10   16     -3.84      0.00
   20   10   16     -2.80      0.00
   -2   11   16      3.45      0.00
   -1   11   16     -1.09      0.00
    0   11   16     -6.00      0.00
    1   11   16      2.03      0.00
    2   11   16     -2.35      0.00
    3   11   16     -1.63      0.00
    4   11   16      0.62      0.00
    5   11   16     -4.83      0.00
    6   11   16      2.30      0.00
    7   11   16      3.24      0.00
    8   11   16     -0.43      0.00
    9   11   16     -1.26      0.00
   10   11   16     -7.31      0.00
   11   11   16     -3.03      0.00
   12   11   16     -0.59      0.00
   13   11   16     -0.66      0.00
   14   11   16      1.01      0.00
   15   11   16      1.90      0.00
   16   11   16     -0.96      0.00
   17   11   16     -1.40      0.00
   18   11   16      0.03      0.00
   19   11   16     -5.99      0.00
   20   11   16     -7.37      0.00
   -1   12   16     -4.18      0.00
    0   12   16     -3.62      0.00
    1   12   16      3.30      0.00
    2   12   16      5.40      0.00
    3   12   16     -7.04      0.00
    4   12   16      2.48      0.00
    5   12   16     -3.93      0.00
    6   12   16      4.17      0.00
    7   12   16      1.12      0.00
    8   12   16      7.73      0.00
    9   12   16      3.52      0.00
   10   12   16     -6.40      0.00
   11   12   16      5.57      0.00
   12   12   16     -0.82      0.00
   13   12   16      1.13      0.00
   14   12   16     -2.24      0.00
   15   12   16      3.31      0.00
   16   12   16      0.84      0.00
   17   12   16      1.55      0.00
   18   12   16      0.99      0.00
   20   12   16    -10.75      0.00
    1   13   16     -0.19      0.00
    2   13   16     -8.29      0.00
    3   13   16    -10.33      0.00
    4   13   16      6.35      0.00
    5   13   16      2.16      0.00
    6   13   16     -0.13      0.00
    7   13   16      2.48      0.00
    8   13   16      5.40      0.00
    9   13   16      3.73      0.00
   10   13   16     -3.47      0.00
   11   13   16      1.11      0.00
   12   13   16      1.11      0.00
   13   13   16     -0.48      0.00
   14   13   16     -5.96      0.00
   15   13   16     -3.68      0.00
   16   13   16     -3.29      0.00
   17   13   16      1.31      0.00
   18   13   16      3.15      0.00
   19   13   16      2.74      0.00
    2   14   16      2.51      0.00
    3   14   16     -6.51      0.00
    4   14   16     -1.72      0.00
    5   14   16     -4.28      0.00
    6   14   16      8.54      0.00
    7   14   16     -9.36      0.00
    8   14   16      2.20      0.00
    9   14   16      1.97      0.00
   10   14   16      0.87      0.00
   11   14   16      7.77      0.00
   12   14   16      0.18      0.00
   13   14   16      0.96      0.00
   14   14   16     -7.49      0.00
   15   14   16      7.58      0.00
   16   14   16     -0.32      0.00
   17   14   16      4.73      0.00
   18   14   16     -2.18      0.00
   19   14   16      2.16      0.00
    3   15   16     -6.17      0.00
    4   15   16      7.29      0.00
    5   15   16     -1.99      0.00
    6   15   16     -3.42      0.00
    7   15   16     -5.35      0.00
    8   15   16      5.67      0.00
    9   15   16      8.75      0.00
   10   15   16      3.80      0.00
   11   15   16      4.23      0.00
   12   15   16      6.42      0.00
   13   15   16      2.12      0.00
   14   15   16     -6.10      0.00
   15   15   16     -5.51      0.00
   16   15   16     -4.65      0.00
   17   15   16      5.12      0.00
   18   15   16      4.71      0.00
    5   16   16      1.34      0.00
    6   16   16      2.51      0.00
    7   16   16     -2.81      0.00
    8   16   16      4.44      0.00
    9   16   16     11.00      0.00
   10   16   16      3.13      0.00
   11   16   16      2.20      0.00
   12   16   16      4.68      0.00
   13   16   16      8.23      0.00
   14   16   16      3.62      0.00
   15   16   16      7.48      0.00
   16   16   16     -3.53      0.00
   17   16   16      2.32      0.00
   18   16   16     -7.37      0.00
    7   17   16      7.25      0.00
    8   17   16     12.75      0.00
    9   17   16      4.59      0.00
   10   17   16      2.99      0.00
   11   17   16      5.41      0.00
   12   17   16     -3.49      0.00
   13   17   16      4.29      0.00
   14   17   16      0.87      0.00
   15   17   16      2.66      0.00
   16   17   16      1.94      0.00
   11   18   16      2.25      0.00
   12   18   16      4.71      0.00
   13   18   16      4.17      0.00
   -5  -16   17     -1.47      0.00
   -4  -16   17     -3.51      0.00
   -3  -16   17     -0.08      0.00
   -2  -16   17      2.87      0.00
   -1  -16   17     -3.33      0.00
    0  -16   17      4.32      0.00
   -7  -15   17     -1.77      0.00
   -6  -15   17      1.18      0.00
   -5  -15   17     -4.73      0.00
   -4  -15   17     -3.13      0.00
   -3  -15   17     -1.28      0.00
   -2  -15   17     -0.36      0.00
   -1  -15   17     -1.76      0.00
    0  -15   17      4.00      0.00
    1  -15   17      7.41      0.00
    2  -15   17      1.45      0.00
    3  -15   17     -2.00      0.00
   -8  -14   17      3.28      0.00
   -7  -14   17     -1.62      0.00
   -6  -14   17      3.92      0.00
   -5  -14   17     -2.67      0.00
   -4  -14   17     -5.39      0.00
   -3  -14   17      3.15      0.00
   -2  -14   17     -0.71      0.00
   -1  -14   17      2.21      0.00
    0  -14   17     -0.26      0.00
    1  -14   17      1.61      0.00
    2  -14   17     -2.64      0.00
    3  -14   17      2.58      0.00
    4  -14   17     -3.50      0.00
    5  -14   17     -1.96      0.00
   -9  -13   17     -5.52      0.00
   -8  -13   17      2.03      0.00
   -7  -13   17      1.58      0.00
   -6  -13   17     -0.74      0.00
   -5  -13   17     -3.69      0.00
   -4  -13   17     -6.69      0.00
   -3  -13   17      2.52      0.00
   -2  -13   17      2.01      0.00
   -1  -13   17      0.23      0.00
    0  -13   17     -4.13      0.00
    1  -13   17      5.07      0.00
    2  -13   17     -2.65      0.00
    3  -13   17      0.40      0.00
    4  -13   17     -1.13      0.00
    5  -13   17     -1.11      0.00
    6  -13   17      0.85      0.00
    7  -13   17     -3.07      0.00
   -9  -12   17     -5.04      0.00
   -8  -12   17      0.39      0.00
   -7  -12   17     -4.77      0.00
   -6  -12   17     -2.04      0.00
   -5  -12   17     -1.13      0.00
   -4  -12   17      3.47      0.00
   -3  -12   17      5.16      0.00
   -2  -12   17     -0.09      0.00
   -1  -12   17      5.18      0.00
    0  -12   17     -5.51      0.00
    1  -12   17      5.08      0.00
    2  -12   17     -4.06      0.00
    3  -12   17      0.47      0.00
    4  -12   17     -1.73      0.00
    5  -12   17     -1.42      0.00
    6  -12   17     -3.89      0.00
    7  -12   17      1.54      0.00
    8  -12   17      4.38      0.00
  -10  -11   17      5.87      0.00
   -9  -11   17     -1.41      0.00
   -8  -11   17      1.30      0.00
   -7  -11   17     -0.51      0.00
   -6  -11   17     -5.10      0.00
   -5  -11   17     -3.16      0.00
   -4  -11   17     -4.10      0.00
   -3  -11   17      1.88      0.00
   -2  -11   17      0.79      0.00
   -1  -11   17      3.26      0.00
    0  -11   17     -3.80      0.00
    1  -11   17      5.15      0.00
    2  -11   17     -0.54      0.00
    3  -11   17      1.89      0.00
    4  -11   17     -1.01      0.00
    5  -11   17      1.64      0.00
    6  -11   17      0.38      0.00
    7  -11   17     -1.83      0.00
    8  -11   17      0.40      0.00
    9  -11   17     -0.03      0.00
  -10  -10   17     -4.71      0.00
   -9  -10   17     -0.35      0.00
   -8  -10   17     -2.28      0.00
   -7  -10   17      1.84      0.00
   -6  -10   17     -3.94      0.00
   -5  -10   17      2.48      0.00
   -4  -10   17      7.51      0.00
   -3  -10   17      2.67      0.00
   -2  -10   17     -2.49      0.00
   -1  -10   17      4.89      0.00
    0  -10   17     -4.15      0.00
    1  -10   17      3.58      0.00
    2  -10   17     -6.87      0.00
    3  -10   17     -6.14      0.00
    4  -10   17     -0.01      0.00
    5  -10   17     -3.94      0.00
    6  -10   17     -0.66      0.00
    7  -10   17      0.66      0.00
    8  -10   17     -0.27      0.00
    9  -10   17      2.97      0.00
   10  -10   17     -1.47      0.00
  -10   -9   17      1.04      0.00
   -9   -9   17      4.04      0.00
   -8   -9   17     -2.77      0.00
   -7   -9   17     -0.03      0.00
   -6   -9   17     -3.26      0.00
   -5   -9   17     -3.18      0.00
   -4   -9   17      1.18      0.00
   -3   -9   17      3.56      0.00
   -2   -9   17      0.76      0.00
   -1   -9   17      1.03      0.00
    0   -9   17     -2.08      0.00
    1   -9   17      0.54      0.00
    2   -9   17      2.58      0.00
    3   -9   17      1.05      0.00
    4   -9   17     -0.92      0.00
    5   -9   17     -4.22      0.00
    6   -9   17     -1.20      0.00
    7   -9   17     -0.46      0.00
    8   -9   17      1.32      0.00
    9   -9   17      1.43      0.00
   10   -9   17     -3.68      0.00
   11   -9   17     -4.24      0.00
   12   -9   17      0.83      0.00
  -10   -8   17      2.08      0.00
   -9   -8   17     -1.15      0.00
   -8   -8   17     -4.87      0.00
   -7   -8   17      0.73      0.00
   -6   -8   17     -3.40      0.00
   -5   -8   17      3.56      0.00
   -4   -8   17      2.43      0.00
   -3   -8   17      1.23      0.00
   -2   -8   17      2.62      0.00
   -1   -8   17      3.13      0.00
    0   -8   17     -0.08      0.00
    1   -8   17      1.85      0.00
    2   -8   17     -4.84      0.00
    3   -8   17     -9.19      0.00
    4   -8   17     -1.19      0.00
    5   -8   17      1.20      0.00
    6   -8   17     -2.20      0.00
    7   -8   17      6.00      0.00
    8   -8   17      1.31      0.00
    9   -8   17      3.79      0.00
   10   -8   17     -3.81      0.00
   11   -8   17     -3.05      0.00
   12   -8   17     -5.22      0.00
  -10   -7   17      5.29      0.00
   -9   -7   17      4.28      0.00
   -8   -7   17      0.36      0.00
   -7   -7   17     -0.91      0.00
   -6   -7   17     -3.30      0.00
   -5   -7   17     -1.16      0.00
   -4   -7   17      1.14      0.00
   -3   -7   17      3.01      0.00
   -2   -7   17      3.03      0.00
   -1   -7   17      0.87      0.00
    0   -7   17     -0.46      0.00
    1   -7   17     -2.52      0.00
    2   -7   17      6.96      0.00
    3   -7   17      2.57      0.00
    4   -7   17     -2.23      0.00
    5   -7   17     -3.75      0.00
    6   -7   17     -5.11      0.00
    7   -7   17     -0.59      0.00
    8   -7   17     -3.63      0.00
    9   -7   17      3.11      0.00
   10   -7   17     -3.17      0.00
   11   -7   17      2.82      0.00
   12   -7   17     -0.05      0.00
   13   -7   17      2.01      0.00
  -10   -6   17      3.10      0.00
   -9   -6   17     -3.47      0.00
   -8   -6   17      1.19      0.00
   -7   -6   17      7.08      0.00
   -6   -6   17     -1.54      0.00
   -5   -6   17      1.95      0.00
   -4   -6   17     -0.56      0.00
   -3   -6   17     -2.79      0.00
   -2   -6   17     -5.70      0.00
   -1   -6   17     -2.38      0.00
    0   -6   17      0.10      0.00
    1   -6   17     -2.53      0.00
    2   -6   17      1.47      0.00
    3   -6   17     -1.26      0.00
    4   -6   17     -3.30      0.00
    5   -6   17      8.29      0.00
    6   -6   17     -4.65      0.00
    7   -6   17      7.86      0.00
    8   -6   17     -7.03      0.00
    9   -6   17      1.65      0.00
   10   -6   17     -2.36      0.00
   11   -6   17      2.04      0.00
   12   -6   17     -3.33      0.00
   13   -6   17     -0.57      0.00
   14   -6   17     -0.91      0.00
  -10   -5   17      1.27      0.00
   -9   -5   17      1.59      0.00
   -8   -5   17     -4.78      0.00
   -7   -5   17     -0.36      0.00
   -6   -5   17      0.71      0.00
   -5   -5   17     -0.74      0.00
   -4   -5   17      1.32      0.00
   -3   -5   17      1.68      0.00
   -2   -5   17     -2.98      0.00
   -1   -5   17     -5.55      0.00
    0   -5   17      1.94      0.00
    1   -5   17     -0.75      0.00
    2   -5   17      3.62      0.00
    3   -5   17      4.71      0.00
    4   -5   17     -4.29      0.00
    5   -5   17      0.32      0.00
    6   -5   17      0.01      0.00
    7   -5   17     -5.88      0.00
    8   -5   17     -1.50      0.00
    9   -5   17     -3.31      0.00
   10   -5   17     -2.14      0.00
   11   -5   17      1.28      0.00
   12   -5   17     10.02      0.00
   13   -5   17      0.10      0.00
   14   -5   17      4.29      0.00
   15   -5   17     -2.39      0.00
  -10   -4   17      4.89      0.00
   -9   -4   17      2.16      0.00
   -8   -4   17     -2.03      0.00
   -7   -4   17     -3.55      0.00
   -6   -4   17      3.81      0.00
   -5   -4   17     -4.20      0.00
   -4   -4   17      0.60      0.00
   -3   -4   17      1.87      0.00
   -2   -4   17     -6.97      0.00
   -1   -4   17     -1.82      0.00
    0   -4   17      1.91      0.00
    1   -4   17     -5.77      0.00
    2   -4   17      1.39      0.00
    3   -4   17      1.66      0.00
    4   -4   17     -2.27      0.00
    5   -4   17      6.08      0.00
    6   -4   17     -1.13      0.00
    7   -4   17     -0.83      0.00
    8   -4   17      6.29      0.00
    9   -4   17      6.47      0.00
   10   -4   17     -1.02      0.00
   11   -4   17     -1.43      0.00
   12   -4   17     -4.19      0.00
   13   -4   17      0.46      0.00
   14   -4   17      3.96      0.00
   15   -4   17      4.12      0.00
   -9   -3   17     -2.68      0.00
   -8   -3   17     -5.75      0.00
   -7   -3   17     -3.36      0.00
   -6   -3   17      0.69      0.00
   -5   -3   17     -1.69      0.00
   -4   -3   17     -1.20      0.00
   -3   -3   17      6.20      0.00
   -2   -3   17      0.39      0.00
   -1   -3   17     -4.18      0.00
    0   -3   17      3.85      0.00
    1   -3   17     -0.19      0.00
    2   -3   17     -1.64      0.00
    3   -3   17      1.62      0.00
    4   -3   17     -1.50      0.00
    5   -3   17     -5.89      0.00
    6   -3   17      6.03      0.00
    7   -3   17     -1.48      0.00
    8   -3   17     -5.50      0.00
    9   -3   17     -7.10      0.00
   10   -3   17      7.15      0.00
   11   -3   17     -1.16      0.00
   12   -3   17      9.58      0.00
   13   -3   17     -1.06      0.00
   14   -3   17      0.39      0.00
   15   -3   17      0.92      0.00
   16   -3   17     -6.11      0.00
   -9   -2   17      3.17      0.00
   -8   -2   17      0.04      0.00
   -7   -2   17     -2.92      0.00
   -6   -2   17      4.56      0.00
   -5   -2   17     -0.12      0.00
   -4   -2   17      0.08      0.00
   -3   -2   17      4.11      0.00
   -2   -2   17     -2.75      0.00
   -1   -2   17     -2.68      0.00
    0   -2   17     -1.32      0.00
    1   -2   17      4.07      0.00
    2   -2   17      5.39      0.00
    3   -2   17      6.00      0.00
    4   -2   17     -3.64      0.00
    5   -2   17     -2.60      0.00
    6   -2   17     -0.21      0.00
    7   -2   17     -6.15      0.00
    8   -2   17      6.87      0.00
    9   -2   17      3.51      0.00
   10   -2   17      0.09      0.00
   11   -2   17     -1.88      0.00
   12   -2   17     -4.88      0.00
   13   -2   17     -0.83      0.00
   14   -2   17      3.76      0.00
   15   -2   17      2.84      0.00
   16   -2   17      0.09      0.00
   17   -2   17      3.99      0.00
   -9   -1   17     -3.85      0.00
   -8   -1   17     -5.44      0.00
   -7   -1   17     -5.30      0.00
   -6   -1   17     -0.78      0.00
   -5   -1   17      2.72      0.00
   -4   -1   17     -7.43      0.00
   -3   -1   17      5.19      0.00
   -2   -1   17      2.28      0.00
   -1   -1   17      7.90      0.00
    0   -1   17      1.28      0.00
    1   -1   17      2.11      0.00
    2   -1   17      8.69      0.00
    3   -1   17     -7.52      0.00
    4   -1   17      0.41      0.00
    5   -1   17     -4.13      0.00
    6   -1   17     -2.57      0.00
    7   -1   17     -1.72      0.00
    8   -1   17     -4.13      0.00
    9   -1   17     -9.64      0.00
   10   -1   17      5.37      0.00
   11   -1   17      0.52      0.00
   12   -1   17      3.77      0.00
   13   -1   17     -4.71      0.00
   14   -1   17      0.15      0.00
   15   -1   17      0.25      0.00
   16   -1   17      1.31      0.00
   17   -1   17      1.44      0.00
   -8    0   17     -1.40      0.00
   -7    0   17     -2.83      0.00
   -6    0   17     -2.20      0.00
   -5    0   17     -0.97      0.00
   -4    0   17      2.53      0.00
   -3    0   17      5.04      0.00
   -2    0   17     -3.25      0.00
   -1    0   17     -2.81      0.00
    0    0   17     -1.71      0.00
    1    0   17      2.07      0.00
    2    0   17      3.03      0.00
    3    0   17      6.65      0.00
    4    0   17     -5.20      0.00
    5    0   17     -4.41      0.00
    6    0   17      2.39      0.00
    7    0   17     -5.29      0.00
    8    0   17     -0.60      0.00
    9    0   17     -1.02      0.00
   10    0   17     -4.52      0.00
   11    0   17     -6.41      0.00
   12    0   17      1.16      0.00
   13    0   17     -1.97      0.00
   14    0   17      6.29      0.00
   15    0   17     -0.51      0.00
   16    0   17      1.03      0.00
   17    0   17      2.88      0.00
   18    0   17      3.73      0.00
   -8    1   17     -3.61      0.00
   -7    1   17      7.09      0.00
   -6    1   17      3.85      0.00
   -5    1   17      2.04      0.00
   -4    1   17     -4.44      0.00
   -3    1   17      2.27      0.00
   -2    1   17     -5.70      0.00
   -1    1   17      5.94      0.00
    0    1   17     -3.72      0.00
    1    1   17     -7.86      0.00
    2    1   17      0.78      0.00
    3    1   17     -3.61      0.00
    4    1   17     -1.65      0.00
    5    1   17      5.54      0.00
    6    1   17     -1.20      0.00
    7    1   17      1.29      0.00
    8    1   17     -3.50      0.00
    9    1   17     -1.96      0.00
   10    1   17     -3.80      0.00
   11    1   17      2.68      0.00
   12    1   17     -7.24      0.00
   13    1   17      2.56      0.00
   14    1   17      3.55      0.00
   15    1   17      0.87      0.00
   16    1   17      3.82      0.00
   17    1   17     -0.44      0.00
   18    1   17      3.68      0.00
   -7    2   17      8.30      0.00
   -6    2   17      8.59      0.00
   -5    2   17     -4.46      0.00
   -4    2   17     -5.17      0.00
   -3    2   17     -6.32      0.00
   -2    2   17     -5.48      0.00
   -1    2   17     -2.34      0.00
    0    2   17      2.23      0.00
    1    2   17      2.31      0.00
    2    2   17     -8.10      0.00
    3    2   17      5.62      0.00
    4    2   17     -6.01      0.00
    5    2   17      5.39      0.00
    6    2   17      1.46      0.00
    7    2   17      8.04      0.00
    8    2   17     -9.00      0.00
    9    2   17      2.29      0.00
   10    2   17     -0.11      0.00
   11    2   17     -4.37      0.00
   12    2   17      6.01      0.00
   13    2   17      0.02      0.00
   14    2   17      2.59      0.00
   15    2   17     -0.97      0.00
   16    2   17      2.40      0.00
   17    2   17     -3.35      0.00
   18    2   17      1.01      0.00
   19    2   17     -5.03      0.00
   -7    3   17      7.86      0.00
   -6    3   17      4.54      0.00
   -5    3   17     -1.34      0.00
   -4    3   17      2.79      0.00
   -3    3   17      1.56      0.00
   -2    3   17     -6.08      0.00
   -1    3   17      1.10      0.00
    0    3   17     -2.17      0.00
    1    3   17     -3.10      0.00
    2    3   17     -0.07      0.00
    3    3   17      9.53      0.00
    4    3   17     -3.50      0.00
    5    3   17      2.38      0.00
    6    3   17     -5.98      0.00
    7    3   17      4.61      0.00
    8    3   17     -1.67      0.00
    9    3   17     11.38      0.00
   10    3   17      2.89      0.00
   11    3   17      8.20      0.00
   12    3   17     -7.49      0.00
   13    3   17     -0.91      0.00
   14    3   17      3.86      0.00
   15    3   17     -4.63      0.00
   16    3   17     -0.12      0.00
   17    3   17     -2.51      0.00
   18    3   17      2.27      0.00
   19    3   17      2.42      0.00
   -6    4   17      4.32      0.00
   -5    4   17     -7.85      0.00
   -4    4   17      1.72      0.00
   -3    4   17     -2.86      0.00
   -2    4   17     -3.10      0.00
   -1    4   17      2.75      0.00
    0    4   17      1.40      0.00
    1    4   17      7.47      0.00
    2    4   17     -7.32      0.00
    3    4   17      6.61      0.00
    4    4   17     -7.69      0.00
    5    4   17     13.51      0.00
    6    4   17     -5.40      0.00
    7    4   17     12.26      0.00
    8    4   17    -14.01      0.00
    9    4   17     -4.75      0.00
   10    4   17      6.30      0.00
   11    4   17     -1.28      0.00
   12    4   17      7.22      0.00
   13    4   17     -3.45      0.00
   14    4   17      7.41      0.00
   15    4   17     -5.01      0.00
   16    4   17      3.34      0.00
   17    4   17     -3.69      0.00
   18    4   17     -1.88      0.00
   19    4   17     -2.37      0.00
   -6    5   17      2.36      0.00
   -5    5   17     -2.91      0.00
   -4    5   17     -0.50      0.00
   -3    5   17     -2.26      0.00
   -2    5   17     -0.32      0.00
   -1    5   17      7.85      0.00
    0    5   17     -0.74      0.00
    1    5   17      0.36      0.00
    2    5   17     -6.61      0.00
    3    5   17      6.28      0.00
    4    5   17    -10.89      0.00
    5    5   17      1.97      0.00
    6    5   17    -10.50      0.00
    7    5   17      5.74      0.00
    8    5   17      0.41      0.00
    9    5   17      8.32      0.00
   10    5   17     -7.51      0.00
   11    5   17     -0.25      0.00
   12    5   17     -0.50      0.00
   13    5   17     -2.86      0.00
   14    5   17      2.18      0.00
   15    5   17     -8.28      0.00
   16    5   17     -1.41      0.00
   17    5   17      5.61      0.00
   18    5   17      0.83      0.00
   19    5   17     -1.11      0.00
   -5    6   17     -3.70      0.00
   -4    6   17      3.31      0.00
   -3    6   17      4.20      0.00
   -2    6   17      4.86      0.00
   -1    6   17      9.98      0.00
    0    6   17     -3.96      0.00
    1    6   17      2.22      0.00
    2    6   17     -5.35      0.00
    3    6   17      4.32      0.00
    4    6   17     -9.44      0.00
    5    6   17     13.85      0.00
    6    6   17     -7.36      0.00
    7    6   17      2.37      0.00
    8    6   17     -1.63      0.00
    9    6   17     -0.74      0.00
   10    6   17      5.36      0.00
   11    6   17      2.81      0.00
   12    6   17      0.02      0.00
   13    6   17     -3.97      0.00
   14    6   17      2.37      0.00
   15    6   17     -7.43      0.00
   16    6   17      0.31      0.00
   17    6   17      3.34      0.00
   18    6   17      0.34      0.00
   19    6   17     -6.49      0.00
   20    6   17     -2.02      0.00
   -4    7   17     -0.95      0.00
   -3    7   17      1.48      0.00
   -2    7   17     -0.21      0.00
   -1    7   17      6.36      0.00
    0    7   17      3.15      0.00
    1    7   17      6.24      0.00
    2    7   17     -9.41      0.00
    3    7   17     -2.34      0.00
    4    7   17     -3.81      0.00
    5    7   17      3.06      0.00
    6    7   17      0.31      0.00
    7    7   17      4.21      0.00
    8    7   17      6.01      0.00
    9    7   17      3.04      0.00
   10    7   17     -6.17      0.00
   11    7   17     -2.99      0.00
   12    7   17      2.35      0.00
   13    7   17     -1.57      0.00
   14    7   17     -5.36      0.00
   15    7   17     -4.41      0.00
   16    7   17     -7.02      0.00
   17    7   17      4.06      0.00
   18    7   17     -0.58      0.00
   19    7   17     -1.22      0.00
   20    7   17      6.27      0.00
   -4    8   17      5.89      0.00
   -3    8   17      1.71      0.00
   -2    8   17      0.94      0.00
   -1    8   17      1.44      0.00
    0    8   17      0.92      0.00
    1    8   17      0.34      0.00
    2    8   17      4.81      0.00
    3    8   17      8.61      0.00
    4    8   17      1.70      0.00
    5    8   17      7.43      0.00
    6    8   17      3.97      0.00
    7    8   17      2.00      0.00
    8    8   17      0.97      0.00
    9    8   17      3.08      0.00
   10    8   17     -1.17      0.00
   11    8   17      4.14      0.00
   12    8   17      4.97      0.00
   13    8   17     -2.11      0.00
   14    8   17      1.80      0.00
   15    8   17     -6.37      0.00
   16    8   17     -2.62      0.00
   17    8   17      1.17      0.00
   18    8   17      2.16      0.00
   19    8   17     -2.37      0.00
   20    8   17      3.37      0.00
   -3    9   17     -2.64      0.00
   -2    9   17      1.78      0.00
   -1    9   17     -2.08      0.00
    0    9   17     -1.27      0.00
    1    9   17      2.42      0.00
    2    9   17     -3.83      0.00
    3    9   17      2.11      0.00
    4    9   17      1.21      0.00
    5    9   17      3.04      0.00
    6    9   17      0.58      0.00
    7    9   17      5.64      0.00
    8    9   17     -2.03      0.00
    9    9   17     -0.11      0.00
   10    9   17     -1.25      0.00
   11    9   17     -1.60      0.00
   12    9   17      0.25      0.00
   13    9   17     -3.45      0.00
   14    9   17     -5.44      0.00
   15    9   17     -0.48      0.00
   16    9   17     -6.42      0.00
   17    9   17      2.57      0.00
   18    9   17     -0.44      0.00
   19    9   17     -0.85      0.00
   20    9   17      4.57      0.00
   -2   10   17     -2.01      0.00
   -1   10   17      2.50      0.00
    0   10   17      2.26      0.00
    1   10   17     -0.12      0.00
    2   10   17     -1.49      0.00
    3   10   17      7.45      0.00
    4   10   17     -0.52      0.00
    5   10   17     -0.71      0.00
    6   10   17      1.75      0.00
    7   10   17      0.59      0.00
    8   10   17     -7.31      0.00
    9   10   17     -3.89      0.00
   10   10   17     -1.46      0.00
   11   10   17      7.01      0.00
   12   10   17      7.91      0.00
   13   10   17      2.09      0.00
   14   10   17      4.39      0.00
   15   10   17      0.69      0.00
   16   10   17     -2.89      0.00
   17   10   17     -1.11      0.00
   18   10   17      0.54      0.00
   19   10   17     -2.66      0.00
   20   10   17      1.35      0.00
   -1   11   17      3.69      0.00
    0   11   17     -1.04      0.00
    1   11   17      1.25      0.00
    2   11   17      5.63      0.00
    3   11   17      4.19      0.00
    4   11   17      1.38      0.00
    5   11   17     -4.46      0.00
    6   11   17     -3.55      0.00
    7   11   17     -2.04      0.00
    8   11   17     -2.46      0.00
    9   11   17     -6.12      0.00
   10   11   17      1.78      0.00
   11   11   17      0.73      0.00
   12   11   17     -1.72      0.00
   13   11   17     -3.95      0.00
   14   11   17      2.60      0.00
   15   11   17      4.68      0.00
   16   11   17      3.07      0.00
   17   11   17      5.96      0.00
   18   11   17     -0.95      0.00
   19   11   17     -3.34      0.00
    0   12   17     -4.54      0.00
    1   12   17     -1.93      0.00
    2   12   17      0.63      0.00
    3   12   17      5.88      0.00
    4   12   17      2.23      0.00
    5   12   17     -3.81      0.00
    6   12   17     -3.56      0.00
    7   12   17     -7.32      0.00
    8   12   17      4.96      0.00
    9   12   17     -2.92      0.00
   10   12   17      1.58      0.00
   11   12   17     -0.69      0.00
   12   12   17      0.68      0.00
   13   12   17     -0.36      0.00
   14   12   17      0.31      0.00
   15   12   17      5.86      0.00
   16   12   17     -1.54      0.00
   17   12   17      7.78      0.00
   18   12   17      1.04      0.00
   19   12   17      0.82      0.00
    2   13   17      7.54      0.00
    3   13   17     -5.78      0.00
    4   13   17     -2.56      0.00
    5   13   17     -0.38      0.00
    6   13   17      7.87      0.00
    7   13   17     -5.63      0.00
    8   13   17      9.34      0.00
    9   13   17      0.39      0.00
   10   13   17      0.71      0.00
   11   13   17     -0.59      0.00
   12   13   17     -1.69      0.00
   13   13   17     -1.79      0.00
   14   13   17      2.72      0.00
   15   13   17      2.54      0.00
   16   13   17     -0.77      0.00
   17   13   17      2.34      0.00
   19   13   17      6.55      0.00
    3   14   17     -0.22      0.00
    4   14   17      4.18      0.00
    5   14   17     -4.67      0.00
    6   14   17      4.22      0.00
    7   14   17     -0.14      0.00
    8   14   17     -2.34      0.00
    9   14   17     -5.53      0.00
   10   14   17     -7.76      0.00
   11   14   17     -4.49      0.00
   12   14   17     -3.62      0.00
   13   14   17     -7.46      0.00
   14   14   17     -9.01      0.00
   15   14   17     -6.20      0.00
   16   14   17     -3.04      0.00
   17   14   17     13.06      0.00
    5   15   17      3.40      0.00
    6   15   17      5.05      0.00
    7   15   17     -3.36      0.00
    8   15   17     -9.84      0.00
    9   15   17     -4.71      0.00
   10   15   17    -12.12      0.00
   11   15   17     -1.48      0.00
   12   15   17     -2.81      0.00
   13   15   17      1.02      0.00
   14   15   17      1.92      0.00
   15   15   17     -5.72      0.00
   16   15   17     -5.48      0.00
   17   15   17      1.57      0.00
   18   15   17      4.06      0.00
    7   16   17      0.30      0.00
    8   16   17     -8.96      0.00
    9   16   17     -2.66      0.00
   10   16   17     -3.66      0.00
   11   16   17     -5.89      0.00
   12   16   17     -9.51      0.00
   13   16   17      1.59      0.00
   14   16   17     -2.98      0.00
   15   16   17     -0.62      0.00
   16   16   17     -5.57      0.00
   17   16   17      5.24      0.00
    9   17   17      4.62      0.00
   10   17   17     -0.89      0.00
   11   17   17      8.36      0.00
   12   17   17     -0.28      0.00
   13   17   17      4.11      0.00
   14   17   17      1.47      0.00
   15   17   17     -1.45      0.00
   -5  -15   18     -3.67      0.00
   -4  -15   18      3.32      0.00
   -3  -15   18      4.38      0.00
   -2  -15   18      4.83      0.00
   -1  -15   18     -4.21      0.00
    0  -15   18     -0.21      0.00
    1  -15   18      0.43      0.00
    2  -15   18     -0.95      0.00
   -6  -14   18      3.20      0.00
   -5  -14   18      0.14      0.00
   -4  -14   18      1.49      0.00
   -3  -14   18      4.57      0.00
   -2  -14   18      1.03      0.00
   -1  -14   18     -4.89      0.00
    0  -14   18     -1.58      0.00
    1  -14   18      4.65      0.00
    2  -14   18     -3.29      0.00
    3  -14   18      0.92      0.00
    4  -14   18     -1.76      0.00
   -7  -13   18     -0.86      0.00
   -6  -13   18      4.01      0.00
   -5  -13   18      0.63      0.00
   -4  -13   18      3.60      0.00
   -3  -13   18      3.02      0.00
   -2  -13   18      2.45      0.00
   -1  -13   18     -0.07      0.00
    0  -13   18     -2.08      0.00
    1  -13   18     -0.43      0.00
    2  -13   18     -1.54      0.00
    3  -13   18     -1.11      0.00
    4  -13   18     -1.60      0.00
    5  -13   18     -1.09      0.00
    6  -13   18      1.87      0.00
   -8  -12   18     -1.63      0.00
   -7  -12   18     -2.55      0.00
   -6  -12   18     -5.61      0.00
   -5  -12   18     -6.67      0.00
   -4  -12   18     -0.86      0.00
   -3  -12   18      6.49      0.00
   -2  -12   18      0.89      0.00
   -1  -12   18     -0.73      0.00
    0  -12   18     -3.34      0.00
    1  -12   18      2.77      0.00
    2  -12   18     -0.91      0.00
    3  -12   18     -1.37      0.00
    4  -12   18      0.36      0.00
    5  -12   18     -0.88      0.00
    6  -12   18     -0.78      0.00
    7  -12   18     -6.44      0.00
   -8  -11   18     -4.23      0.00
   -7  -11   18      1.13      0.00
   -6  -11   18     -2.41      0.00
   -5  -11   18      2.81      0.00
   -4  -11   18      4.26      0.00
   -3  -11   18      1.06      0.00
   -2  -11   18     -5.54      0.00
   -1  -11   18     -2.12      0.00
    0  -11   18     -3.94      0.00
    1  -11   18     -0.39      0.00
    2  -11   18     -1.17      0.00
    3  -11   18     -4.20      0.00
    4  -11   18      2.75      0.00
    5  -11   18     -1.97      0.00
    6  -11   18      4.54      0.00
    7  -11   18     -1.26      0.00
    8  -11   18      3.82      0.00
    9  -11   18      0.43      0.00
   -9  -10   18     -0.54      0.00
   -8  -10   18     -5.26      0.00
   -7  -10   18     -6.18      0.00
   -6  -10   18     -3.46      0.00
   -5  -10   18     -6.75      0.00
   -4  -10   18      2.87      0.00
   -3  -10   18      2.82      0.00
   -2  -10   18     -8.32      0.00
   -1  -10   18     -4.82      0.00
    0  -10   18     -3.58      0.00
    1  -10   18     -1.35      0.00
    2  -10   18      4.15      0.00
    3  -10   18     -2.94      0.00
    4  -10   18     -2.33      0.00
    5  -10   18     -1.47      0.00
    6  -10   18     -0.83      0.00
    7  -10   18     -3.98      0.00
    8  -10   18     -0.71      0.00
    9  -10   18     -0.51      0.00
   10  -10   18     -0.68      0.00
   -9   -9   18     -3.22      0.00
   -8   -9   18     -5.97      0.00
   -7   -9   18     -0.36      0.00
   -6   -9   18      0.35      0.00
   -5   -9   18     -0.29      0.00
   -4   -9   18     -2.42      0.00
   -3   -9   18     -4.41      0.00
   -2   -9   18     -7.63      0.00
   -1   -9   18     -2.74      0.00
    0   -9   18     -1.54      0.00
    1   -9   18     -2.97      0.00
    2   -9   18     -0.04      0.00
    3   -9   18     -5.79      0.00
    4   -9   18      6.70      0.00
    5   -9   18      0.76      0.00
    6   -9   18      6.08      0.00
    7   -9   18      1.68      0.00
    8   -9   18      2.00      0.00
    9   -9   18      1.30      0.00
   10   -9   18     -2.45      0.00
   11   -9   18     -5.30      0.00
   -9   -8   18      0.27      0.00
   -8   -8   18     -3.95      0.00
   -7   -8   18     -4.03      0.00
   -6   -8   18     -0.39      0.00
   -5   -8   18     -5.15      0.00
   -4   -8   18     -0.47      0.00
   -3   -8   18     -3.55      0.00
   -2   -8   18     -2.10      0.00
   -1   -8   18     -1.70      0.00
    0   -8   18      2.38      0.00
    1   -8   18      1.83      0.00
    2   -8   18      6.46      0.00
    3   -8   18     -4.31      0.00
    4   -8   18     -3.22      0.00
    5   -8   18      2.09      0.00
    6   -8   18     -0.88      0.00
    7   -8   18      3.89      0.00
    8   -8   18      1.71      0.00
    9   -8   18      4.84      0.00
   10   -8   18     -2.46      0.00
   11   -8   18      1.46      0.00
   12   -8   18      0.18      0.00
   -9   -7   18     -2.39      0.00
   -8   -7   18      2.02      0.00
   -7   -7   18      4.53      0.00
   -6   -7   18     -0.48      0.00
   -5   -7   18      0.91      0.00
   -4   -7   18     -4.86      0.00
   -3   -7   18     -3.43      0.00
   -2   -7   18      1.85      0.00
   -1   -7   18      1.85      0.00
    0   -7   18      4.52      0.00
    1   -7   18      0.27      0.00
    2   -7   18     -0.52      0.00
    3   -7   18     -1.54      0.00
    4   -7   18      4.00      0.00
    5   -7   18      8.59      0.00
    6   -7   18     -0.03      0.00
    7   -7   18      5.28      0.00
    8   -7   18     -2.68      0.00
    9   -7   18      2.98      0.00
   10   -7   18      0.54      0.00
   11   -7   18     -2.58      0.00
   12   -7   18      0.11      0.00
   13   -7   18     -3.74      0.00
   -9   -6   18      0.68      0.00
   -8   -6   18      0.60      0.00
   -7   -6   18      7.17      0.00
   -6   -6   18      7.24      0.00
   -5   -6   18      0.76      0.00
   -4   -6   18      3.06      0.00
   -3   -6   18     -2.39      0.00
   -2   -6   18      1.45      0.00
   -1   -6   18     -1.58      0.00
    0   -6   18      1.22      0.00
    1   -6   18      3.23      0.00
    2   -6   18      1.58      0.00
    3   -6   18      1.16      0.00
    4   -6   18     -6.06      0.00
    5   -6   18     -0.30      0.00
    6   -6   18     -3.21      0.00
    7   -6   18      2.12      0.00
    8   -6   18     -4.91      0.00
    9   -6   18     -0.67      0.00
   10   -6   18      0.42      0.00
   11   -6   18      8.44      0.00
   12   -6   18      4.08      0.00
   13   -6   18     -2.89      0.00
   14   -6   18     -1.30      0.00
   -9   -5   18     -1.16      0.00
   -8   -5   18      3.59      0.00
   -7   -5   18      1.46      0.00
   -6   -5   18      2.78      0.00
   -5   -5   18     -0.16      0.00
   -4   -5   18      1.70      0.00
   -3   -5   18     -0.44      0.00
   -2   -5   18     -1.67      0.00
   -1   -5   18     -2.94      0.00
    0   -5   18      0.54      0.00
    1   -5   18     -0.10      0.00
    2   -5   18     -2.29      0.00
    3   -5   18     -1.37      0.00
    4   -5   18      0.35      0.00
    5   -5   18      1.16      0.00
    6   -5   18     -1.20      0.00
    7   -5   18      3.53      0.00
    8   -5   18     -6.30      0.00
    9   -5   18     -4.01      0.00
   10   -5   18     -5.55      0.00
   11   -5   18     -5.81      0.00
   12   -5   18      2.40      0.00
   13   -5   18     -1.14      0.00
   14   -5   18      3.57      0.00
   -9   -4   18      3.14      0.00
   -8   -4   18      2.01      0.00
   -7   -4   18     -4.37      0.00
   -6   -4   18      2.84      0.00
   -5   -4   18      0.59      0.00
   -4   -4   18      3.42      0.00
   -3   -4   18      0.64      0.00
   -2   -4   18      0.63      0.00
   -1   -4   18     -5.00      0.00
    0   -4   18      3.52      0.00
    1   -4   18      1.12      0.00
    2   -4   18     -7.84      0.00
    3   -4   18      1.72      0.00
    4   -4   18    -11.76      0.00
    5   -4   18      0.45      0.00
    6   -4   18      1.60      0.00
    7   -4   18     -2.41      0.00
    8   -4   18    -10.49      0.00
    9   -4   18      6.30      0.00
   10   -4   18      4.63      0.00
   11   -4   18      5.89      0.00
   12   -4   18      1.41      0.00
   13   -4   18     -0.64      0.00
   14   -4   18     -1.33      0.00
   15   -4   18      3.65      0.00
   -8   -3   18     -0.09      0.00
   -7   -3   18     -5.24      0.00
   -6   -3   18      3.42      0.00
   -5   -3   18      1.49      0.00
   -4   -3   18     -2.90      0.00
   -3   -3   18     -1.32      0.00
   -2   -3   18     -4.87      0.00
   -1   -3   18     -1.83      0.00
    0   -3   18     -3.98      0.00
    1   -3   18     -1.17      0.00
    2   -3   18     -3.17      0.00
    3   -3   18     -4.74      0.00
    4   -3   18     -2.50      0.00
    5   -3   18     -2.50      0.00
    6   -3   18     -1.67      0.00
    7   -3   18      4.51      0.00
    8   -3   18      1.00      0.00
    9   -3   18     -3.25      0.00
   10   -3   18     -1.60      0.00
   11   -3   18     -0.66      0.00
   12   -3   18      1.14      0.00
   13   -3   18      6.83      0.00
   14   -3   18      2.58      0.00
   15   -3   18      6.10      0.00
   16   -3   18      1.51      0.00
   -8   -2   18      1.01      0.00
   -7   -2   18      0.50      0.00
   -6   -2   18      5.18      0.00
   -5   -2   18      2.63      0.00
   -4   -2   18      1.38      0.00
   -3   -2   18      1.59      0.00
   -2   -2   18      2.05      0.00
   -1   -2   18     -0.27      0.00
    0   -2   18     -1.20      0.00
    1   -2   18     -1.19      0.00
    2   -2   18      0.00      0.00
    3   -2   18     -0.59      0.00
    4   -2   18      0.15      0.00
    5   -2   18     -3.91      0.00
    6   -2   18      0.94      0.00
    7   -2   18      3.05      0.00
    8   -2   18     -7.22      0.00
    9   -2   18      2.34      0.00
   10   -2   18      4.65      0.00
   11   -2   18      6.28      0.00
   12   -2   18      2.18      0.00
   13   -2   18     -1.82      0.00
   14   -2   18     -3.58      0.00
   15   -2   18      3.63      0.00
   16   -2   18     -4.17      0.00
   -8   -1   18     -0.80      0.00
   -7   -1   18      4.75      0.00
   -6   -1   18     -1.46      0.00
   -5   -1   18      4.24      0.00
   -4   -1   18      2.13      0.00
   -3   -1   18     -6.46      0.00
   -2   -1   18     -4.98      0.00
   -1   -1   18      5.06      0.00
    0   -1   18      1.47      0.00
    1   -1   18      2.98      0.00
    2   -1   18      8.64      0.00
    3   -1   18      1.61      0.00
    4   -1   18     -5.91      0.00
    5   -1   18     -2.37      0.00
    6   -1   18      0.39      0.00
    7   -1   18     -1.71      0.00
    8   -1   18      6.01      0.00
    9   -1   18     -2.43      0.00
   10   -1   18     -1.68      0.00
   11   -1   18     -0.48      0.00
   12   -1   18      1.04      0.00
   13   -1   18      0.57      0.00
   14   -1   18      1.32      0.00
   15   -1   18     -4.37      0.00
   16   -1   18     -0.19      0.00
   17   -1   18      1.12      0.00
   -7    0   18      6.31      0.00
   -6    0   18     -3.18      0.00
   -5    0   18     -2.66      0.00
   -4    0   18      2.51      0.00
   -3    0   18      1.97      0.00
   -2    0   18      7.49      0.00
   -1    0   18      7.91      0.00
    0    0   18      1.29      0.00
    1    0   18     -2.76      0.00
    2    0   18      7.41      0.00
    3    0   18     -3.05      0.00
    4    0   18      2.31      0.00
    5    0   18      0.39      0.00
    6    0   18     -2.13      0.00
    7    0   18      4.31      0.00
    8    0   18     -3.98      0.00
    9    0   18     -1.58      0.00
   10    0   18      0.07      0.00
   11    0   18      4.45      0.00
   12    0   18     -6.19      0.00
   13    0   18      3.61      0.00
   14    0   18     -5.08      0.00
   15    0   18     -0.11      0.00
   16    0   18     -5.66      0.00
   17    0   18     -0.39      0.00
   -7    1   18      8.42      0.00
   -6    1   18     -3.41      0.00
   -5    1   18     -3.71      0.00
   -4    1   18      3.00      0.00
   -3    1   18      1.80      0.00
   -2    1   18      0.02      0.00
   -1    1   18      1.97      0.00
    0    1   18      5.94      0.00
    1    1   18     -2.07      0.00
    2    1   18      0.73      0.00
    3    1   18      4.47      0.00
    4    1   18     -5.35      0.00
    5    1   18      3.64      0.00
    6    1   18      5.11      0.00
    7    1   18      1.02      0.00
    8    1   18     -3.70      0.00
    9    1   18     -1.02      0.00
   10    1   18     -6.41      0.00
   11    1   18     -1.73      0.00
   12    1   18      0.03      0.00
   13    1   18     -3.29      0.00
   14    1   18      1.20      0.00
   15    1   18     -4.50      0.00
   16    1   18      0.32      0.00
   17    1   18      0.60      0.00
   18    1   18      1.75      0.00
   -6    2   18     -5.20      0.00
   -5    2   18     -2.55      0.00
   -4    2   18      5.52      0.00
   -3    2   18     -3.71      0.00
   -2    2   18     -2.35      0.00
   -1    2   18      2.13      0.00
    0    2   18     -0.18      0.00
    1    2   18     -0.61      0.00
    2    2   18      4.26      0.00
    3    2   18     -1.13      0.00
    4    2   18      1.14      0.00
    5    2   18      1.70      0.00
    6    2   18     -0.40      0.00
    7    2   18      2.17      0.00
    8    2   18      1.41      0.00
    9    2   18      2.04      0.00
   10    2   18      1.74      0.00
   11    2   18     -3.27      0.00
   12    2   18     -9.59      0.00
   13    2   18      2.54      0.00
   14    2   18     -2.73      0.00
   15    2   18     -4.90      0.00
   16    2   18      1.46      0.00
   17    2   18      2.82      0.00
   18    2   18      4.81      0.00
   -6    3   18     -2.08      0.00
   -5    3   18     -8.14      0.00
   -4    3   18      7.74      0.00
   -3    3   18      4.04      0.00
   -2    3   18      3.04      0.00
   -1    3   18      2.43      0.00
    0    3   18      0.52      0.00
    1    3   18     -0.41      0.00
    2    3   18     -2.47      0.00
    3    3   18      4.88      0.00
    4    3   18      3.87      0.00
    5    3   18      6.57      0.00
    6    3   18     -2.04      0.00
    7    3   18     -4.21      0.00
    8    3   18    -12.13      0.00
    9    3   18      1.05      0.00
   10    3   18      4.64      0.00
   11    3   18     -0.36      0.00
   12    3   18      5.61      0.00
   13    3   18    -12.08      0.00
   14    3   18      0.52      0.00
   15    3   18     -8.51      0.00
   16    3   18      4.53      0.00
   17    3   18     -2.82      0.00
   18    3   18     -1.20      0.00
   -5    4   18     -1.30      0.00
   -4    4   18      8.14      0.00
   -3    4   18      6.28      0.00
   -2    4   18     -1.46      0.00
   -1    4   18      0.72      0.00
    0    4   18     -3.30      0.00
    1    4   18      1.31      0.00
    2    4   18      2.75      0.00
    3    4   18      7.04      0.00
    4    4   18     -2.37      0.00
    5    4   18      2.67      0.00
    6    4   18     -0.28      0.00
    7    4   18      1.34      0.00
    8    4   18      5.46      0.00
    9    4   18     -2.10      0.00
   10    4   18     -2.87      0.00
   11    4   18     -0.87      0.00
   12    4   18     -0.26      0.00
   13    4   18     -5.63      0.00
   14    4   18      0.89      0.00
   15    4   18     -2.83      0.00
   16    4   18      7.84      0.00
   17    4   18      4.66      0.00
   18    4   18      1.36      0.00
   19    4   18     -1.74      0.00
   -5    5   18      2.14      0.00
   -4    5   18     11.61      0.00
   -3    5   18      4.26      0.00
   -2    5   18     -4.17      0.00
   -1    5   18     -0.18      0.00
    0    5   18     -2.32      0.00
    1    5   18      3.70      0.00
    2    5   18     -0.98      0.00
    3    5   18      4.04      0.00
    4    5   18      0.43      0.00
    5    5   18      1.51      0.00
    6    5   18     -6.00      0.00
    7    5   18     -5.11      0.00
    8    5   18     -6.32      0.00
    9    5   18      1.97      0.00
   10    5   18      3.25      0.00
   11    5   18     -2.92      0.00
   12    5   18     -0.95      0.00
   13    5   18     -0.85      0.00
   14    5   18     -3.38      0.00
   15    5   18      0.89      0.00
   16    5   18      1.02      0.00
   17    5   18      1.86      0.00
   18    5   18      1.09      0.00
   19    5   18     -4.55      0.00
   -4    6   18      5.28      0.00
   -3    6   18      3.84      0.00
   -2    6   18     -1.14      0.00
   -1    6   18      5.78      0.00
    0    6   18      0.80      0.00
    1    6   18      0.96      0.00
    2    6   18     -4.86      0.00
    3    6   18     -0.70      0.00
    4    6   18     -3.55      0.00
    5    6   18     -0.89      0.00
    6    6   18      2.20      0.00
    7    6   18      2.98      0.00
    8    6   18      0.71      0.00
    9    6   18      2.62      0.00
   10    6   18     -4.86      0.00
   11    6   18      3.92      0.00
   12    6   18      4.23      0.00
   13    6   18     -1.43      0.00
   14    6   18      0.98      0.00
   15    6   18      1.08      0.00
   16    6   18      2.30      0.00
   17    6   18      4.00      0.00
   18    6   18      1.60      0.00
   19    6   18     -2.06      0.00
   -3    7   18      2.23      0.00
   -2    7   18     -0.44      0.00
   -1    7   18     -6.04      0.00
    0    7   18      1.49      0.00
    1    7   18      2.40      0.00
    2    7   18      9.46      0.00
    3    7   18     -3.10      0.00
    4    7   18     -2.33      0.00
    5    7   18     -1.96      0.00
    6    7   18     -5.23      0.00
    7    7   18     -0.69      0.00
    8    7   18     -8.57      0.00
    9    7   18      5.17      0.00
   10    7   18     -0.01      0.00
   11    7   18      3.76      0.00
   12    7   18     -6.90      0.00
   13    7   18      4.74      0.00
   14    7   18     -1.49      0.00
   15    7   18      7.32      0.00
   16    7   18      1.46      0.00
   17    7   18      4.35      0.00
   18    7   18      0.05      0.00
   19    7   18     -5.56      0.00
   -3    8   18      2.47      0.00
   -2    8   18     -4.30      0.00
   -1    8   18     -2.84      0.00
    0    8   18      3.19      0.00
    1    8   18      3.19      0.00
    2    8   18     -3.81      0.00
    3    8   18     -0.27      0.00
    4    8   18      0.03      0.00
    5    8   18      6.48      0.00
    6    8   18     -1.66      0.00
    7    8   18     12.42      0.00
    8    8   18    -10.58      0.00
    9    8   18      6.44      0.00
   10    8   18     -5.20      0.00
   11    8   18     -4.72      0.00
   12    8   18     -4.27      0.00
   13    8   18      2.12      0.00
   14    8   18      1.41      0.00
   15    8   18      5.00      0.00
   16    8   18      0.84      0.00
   17    8   18      1.29      0.00
   18    8   18      2.88      0.00
   19    8   18     -0.83      0.00
   -2    9   18     -8.47      0.00
   -1    9   18     -1.35      0.00
    0    9   18     -1.81      0.00
    1    9   18     -1.46      0.00
    2    9   18      2.02      0.00
    3    9   18     -1.46      0.00
    4    9   18     -5.59      0.00
    5    9   18      3.33      0.00
    6    9   18     -1.71      0.00
    7    9   18      5.80      0.00
    8    9   18     -9.78      0.00
    9    9   18      6.35      0.00
   10    9   18      2.27      0.00
   11    9   18      6.48      0.00
   12    9   18     -4.61      0.00
   13    9   18      5.54      0.00
   14    9   18      2.71      0.00
   15    9   18      2.78      0.00
   16    9   18     -2.27      0.00
   17    9   18     -5.11      0.00
   18    9   18     -0.37      0.00
   19    9   18     -0.93      0.00
   -1   10   18     -1.38      0.00
    0   10   18      2.81      0.00
    1   10   18      5.21      0.00
    2   10   18     -3.41      0.00
    3   10   18      0.57      0.00
    4   10   18     -5.90      0.00
    5   10   18      3.33      0.00
    6   10   18     -4.07      0.00
    7   10   18      9.34      0.00
    8   10   18     -4.39      0.00
    9   10   18     -1.12      0.00
   10   10   18     -0.69      0.00
   11   10   18     -7.64      0.00
   12   10   18     -3.68      0.00
   13   10   18      3.66      0.00
   14   10   18      5.00      0.00
   15   10   18      4.50      0.00
   16   10   18     -1.40      0.00
   17   10   18     -5.09      0.00
   18   10   18     -5.89      0.00
   19   10   18     -6.39      0.00
    0   11   18      3.38      0.00
    1   11   18     -0.60      0.00
    2   11   18     -0.24      0.00
    3   11   18      6.20      0.00
    4   11   18     -4.65      0.00
    5   11   18      5.11      0.00
    6   11   18     -0.69      0.00
    7   11   18      2.94      0.00
    8   11   18      4.98      0.00
    9   11   18     -1.62      0.00
   10   11   18      4.94      0.00
   11   11   18     -0.53      0.00
   12   11   18      0.15      0.00
   13   11   18      4.74      0.00
   14   11   18      3.85      0.00
   15   11   18     -0.34      0.00
   16   11   18     -2.70      0.00
   17   11   18      1.23      0.00
   18   11   18      0.60      0.00
   19   11   18     -4.29      0.00
    2   12   18      4.66      0.00
    3   12   18     -2.71      0.00
    4   12   18     -3.45      0.00
    5   12   18      1.53      0.00
    6   12   18      1.64      0.00
    7   12   18     -2.12      0.00
    8   12   18      6.91      0.00
    9   12   18     -1.25      0.00
   10   12   18      5.41      0.00
   11   12   18     -5.55      0.00
   12   12   18     -5.43      0.00
   13   12   18     -0.05      0.00
   14   12   18      0.92      0.00
   15   12   18      1.29      0.00
   16   12   18     -3.28      0.00
   17   12   18     -0.27      0.00
   18   12   18     -1.66      0.00
    3   13   18      6.86      0.00
    4   13   18     -6.70      0.00
    5   13   18     -0.03      0.00
    6   13   18     -1.30      0.00
    7   13   18      2.85      0.00
    8   13   18      4.32      0.00
    9   13   18      9.54      0.00
   10   13   18      5.67      0.00
   11   13   18     -0.40      0.00
   12   13   18      1.28      0.00
   13   13   18     -0.67      0.00
   14   13   18      3.86      0.00
   15   13   18     -2.46      0.00
   16   13   18      6.26      0.00
   17   13   18      4.81      0.00
   18   13   18     -5.02      0.00
    4   14   18     -3.62      0.00
    5   14   18      2.49      0.00
    6   14   18      2.11      0.00
    7   14   18     -0.16      0.00
    8   14   18      0.43      0.00
    9   14   18     -0.21      0.00
   10   14   18      3.85      0.00
   11   14   18      1.11      0.00
   12   14   18      3.66      0.00
   13   14   18      6.08      0.00
   14   14   18     -0.84      0.00
   15   14   18    -10.22      0.00
   16   14   18     -6.86      0.00
   17   14   18      3.73      0.00
   18   14   18      2.88      0.00
    6   15   18     -2.13      0.00
    7   15   18      0.88      0.00
    8   15   18     -6.35      0.00
    9   15   18      4.03      0.00
   10   15   18      0.02      0.00
   11   15   18     -3.98      0.00
   12   15   18      1.18      0.00
   13   15   18      2.03      0.00
   14   15   18      2.39      0.00
   15   15   18     -7.06      0.00
   16   15   18      2.92      0.00
    9   16   18      5.62      0.00
   10   16   18      8.52      0.00
   11   16   18      3.83      0.00
   12   16   18     -2.90      0.00
   13   16   18      4.41      0.00
   14   16   18     -2.03      0.00
   15   16   18     -3.45      0.00
   -4  -14   19      0.65      0.00
   -3  -14   19     -2.57      0.00
   -2  -14   19      2.75      0.00
   -1  -14   19     -0.61      0.00
    0  -14   19     -3.33      0.00
    1  -14   19     -0.41      0.00
    2  -14   19      0.51      0.00
   -6  -13   19     -3.81      0.00
   -5  -13   19      3.27      0.00
   -4  -13   19     -0.12      0.00
   -3  -13   19     -1.50      0.00
   -2  -13   19      1.56      0.00
   -1  -13   19      0.98      0.00
    0  -13   19      0.20      0.00
    1  -13   19      1.08      0.00
    2  -13   19     -1.24      0.00
    3  -13   19     -1.52      0.00
    4  -13   19      1.34      0.00
    5  -13   19     -4.18      0.00
   -6  -12   19      2.13      0.00
   -5  -12   19     -2.60      0.00
   -4  -12   19     -2.94      0.00
   -3  -12   19     -6.70      0.00
   -2  -12   19     -0.02      0.00
   -1  -12   19      3.78      0.00
    0  -12   19     -0.24      0.00
    1  -12   19     -1.52      0.00
    2  -12   19      2.27      0.00
    3  -12   19     -1.62      0.00
    4  -12   19      1.33      0.00
    5  -12   19      0.93      0.00
    6  -12   19      0.85      0.00
   -7  -11   19     -1.12      0.00
   -6  -11   19     -1.41      0.00
   -5  -11   19     -0.38      0.00
   -4  -11   19      3.85      0.00
   -3  -11   19      2.49      0.00
   -2  -11   19      0.18      0.00
   -1  -11   19      4.25      0.00
    0  -11   19      1.26      0.00
    1  -11   19      2.14      0.00
    2  -11   19      6.60      0.00
    3  -11   19     -2.64      0.00
    4  -11   19     -1.59      0.00
    5  -11   19     -5.46      0.00
    6  -11   19     -2.94      0.00
    7  -11   19     -5.06      0.00
    8  -11   19      0.40      0.00
   -7  -10   19      1.80      0.00
   -6  -10   19      4.68      0.00
   -5  -10   19     -1.28      0.00
   -4  -10   19      2.43      0.00
   -3  -10   19     -3.21      0.00
   -2  -10   19      1.57      0.00
   -1  -10   19      1.27      0.00
    0  -10   19      0.25      0.00
    1  -10   19     -3.06      0.00
    2  -10   19      0.36      0.00
    3  -10   19     -0.04      0.00
    4  -10   19      1.96      0.00
    5  -10   19     -1.87      0.00
    6  -10   19     -0.18      0.00
    7  -10   19     -2.28      0.00
    8  -10   19      0.23      0.00
    9  -10   19      0.79      0.00
   -8   -9   19     -0.49      0.00
   -7   -9   19     -7.88      0.00
   -6   -9   19      4.46      0.00
   -5   -9   19      0.25      0.00
   -4   -9   19      5.99      0.00
   -3   -9   19      4.05      0.00
   -2   -9   19      1.14      0.00
   -1   -9   19      0.68      0.00
    0   -9   19      4.08      0.00
    1   -9   19     -3.33      0.00
    2   -9   19      0.79      0.00
    3   -9   19     -4.17      0.00
    4   -9   19     -5.30      0.00
    5   -9   19     -3.73      0.00
    6   -9   19     -5.76      0.00
    7   -9   19     -2.19      0.00
    8   -9   19      0.39      0.00
    9   -9   19      1.01      0.00
   10   -9   19      3.50      0.00
   -8   -8   19      1.62      0.00
   -7   -8   19     -4.01      0.00
   -6   -8   19      0.23      0.00
   -5   -8   19     -3.15      0.00
   -4   -8   19      1.24      0.00
   -3   -8   19     -0.51      0.00
   -2   -8   19      6.67      0.00
   -1   -8   19      1.04      0.00
    0   -8   19     -1.15      0.00
    1   -8   19     -2.06      0.00
    2   -8   19     -2.28      0.00
    3   -8   19      0.81      0.00
    4   -8   19      0.75      0.00
    5   -8   19      0.94      0.00
    6   -8   19     -3.47      0.00
    7   -8   19      1.66      0.00
    8   -8   19      1.54      0.00
    9   -8   19      6.43      0.00
   10   -8   19      0.13      0.00
   11   -8   19     -5.21      0.00
   -8   -7   19      2.57      0.00
   -7   -7   19     -5.78      0.00
   -6   -7   19     -0.57      0.00
   -5   -7   19     -6.05      0.00
   -4   -7   19      1.32      0.00
   -3   -7   19     -2.13      0.00
   -2   -7   19      4.45      0.00
   -1   -7   19      3.30      0.00
    0   -7   19      1.47      0.00
    1   -7   19      4.59      0.00
    2   -7   19      1.03      0.00
    3   -7   19     -6.63      0.00
    4   -7   19     -2.22      0.00
    5   -7   19     -3.35      0.00
    6   -7   19      3.88      0.00
    7   -7   19      2.67      0.00
    8   -7   19      6.50      0.00
    9   -7   19      4.94      0.00
   10   -7   19      7.19      0.00
   11   -7   19     -2.60      0.00
   12   -7   19     -0.28      0.00
   -8   -6   19      2.55      0.00
   -7   -6   19     -4.71      0.00
   -6   -6   19      1.67      0.00
   -5   -6   19     -2.79      0.00
   -4   -6   19      0.85      0.00
   -3   -6   19     -3.86      0.00
   -2   -6   19      1.74      0.00
   -1   -6   19      0.71      0.00
    0   -6   19      0.78      0.00
    1   -6   19      2.23      0.00
    2   -6   19     -0.69      0.00
    3   -6   19      7.04      0.00
    4   -6   19      5.35      0.00
    5   -6   19      1.14      0.00
    6   -6   19     -0.37      0.00
    7   -6   19      5.22      0.00
    8   -6   19     -3.98      0.00
    9   -6   19     -1.82      0.00
   10   -6   19     -5.15      0.00
   11   -6   19     -5.10      0.00
   12   -6   19      3.89      0.00
   13   -6   19      0.86      0.00
   -8   -5   19      0.19      0.00
   -7   -5   19     -2.76      0.00
   -6   -5   19      4.00      0.00
   -5   -5   19     -1.31      0.00
   -4   -5   19     -0.71      0.00
   -3   -5   19     -0.31      0.00
   -2   -5   19     -0.81      0.00
   -1   -5   19      0.78      0.00
    0   -5   19     -2.07      0.00
    1   -5   19      5.00      0.00
    2   -5   19      0.07      0.00
    3   -5   19     -0.33      0.00
    4   -5   19      1.40      0.00
    5   -5   19      1.22      0.00
    6   -5   19      3.46      0.00
    7   -5   19      1.05      0.00
    8   -5   19      2.96      0.00
    9   -5   19      2.29      0.00
   10   -5   19      2.99      0.00
   11   -5   19     -3.16      0.00
   12   -5   19     -2.51      0.00
   13   -5   19     -2.09      0.00
   14   -5   19     -4.07      0.00
   -8   -4   19      2.22      0.00
   -7   -4   19     -5.03      0.00
   -6   -4   19      1.15      0.00
   -5   -4   19     -1.22      0.00
   -4   -4   19     -2.91      0.00
   -3   -4   19      0.84      0.00
   -2   -4   19     -1.17      0.00
   -1   -4   19     -0.24      0.00
    0   -4   19     -2.16      0.00
    1   -4   19      4.06      0.00
    2   -4   19     -0.94      0.00
    3   -4   19      3.24      0.00
    4   -4   19      3.81      0.00
    5   -4   19     -4.42      0.00
    6   -4   19     -0.80      0.00
    7   -4   19      6.20      0.00
    8   -4   19    -12.73      0.00
    9   -4   19     -3.79      0.00
   10   -4   19     -4.15      0.00
   11   -4   19      0.88      0.00
   12   -4   19      0.69      0.00
   13   -4   19      3.89      0.00
   14   -4   19     -4.07      0.00
   15   -4   19      6.03      0.00
   -7   -3   19     -0.17      0.00
   -6   -3   19     -2.11      0.00
   -5   -3   19      5.28      0.00
   -4   -3   19     -0.81      0.00
   -3   -3   19      3.55      0.00
   -2   -3   19     -0.84      0.00
   -1   -3   19     -2.17      0.00
    0   -3   19     -3.84      0.00
    1   -3   19     -1.44      0.00
    2   -3   19     -4.23      0.00
    3   -3   19      0.95      0.00
    4   -3   19      0.65      0.00
    5   -3   19     -2.75      0.00
    6   -3   19      1.37      0.00
    7   -3   19     -1.29      0.00
    8   -3   19     -1.98      0.00
    9   -3   19      3.56      0.00
   10   -3   19      5.91      0.00
   11   -3   19      1.95      0.00
   12   -3   19     -0.29      0.00
   13   -3   19     -0.38      0.00
   14   -3   19      2.69      0.00
   15   -3   19      1.67      0.00
   -7   -2   19     -1.84      0.00
   -6   -2   19     -3.03      0.00
   -5   -2   19     -0.72      0.00
   -4   -2   19     -2.52      0.00
   -3   -2   19     -4.14      0.00
   -2   -2   19      4.05      0.00
   -1   -2   19     -0.98      0.00
    0   -2   19     -2.52      0.00
    1   -2   19      0.05      0.00
    2   -2   19      0.40      0.00
    3   -2   19     -3.30      0.00
    4   -2   19      4.66      0.00
    5   -2   19      1.00      0.00
    6   -2   19     -6.87      0.00
    7   -2   19      2.48      0.00
    8   -2   19     -4.77      0.00
    9   -2   19     -7.35      0.00
   10   -2   19     -5.90      0.00
   11   -2   19      1.23      0.00
   12   -2   19      0.14      0.00
   13   -2   19      9.22      0.00
   14   -2   19     -2.10      0.00
   15   -2   19      2.26      0.00
   16   -2   19      6.38      0.00
   -7   -1   19      0.06      0.00
   -6   -1   19     -5.66      0.00
   -5   -1   19     -1.08      0.00
   -4   -1   19      3.43      0.00
   -3   -1   19      1.66      0.00
   -2   -1   19     -1.53      0.00
   -1   -1   19     -3.07      0.00
    0   -1   19     -2.10      0.00
    1   -1   19     -3.27      0.00
    2   -1   19     -1.50      0.00
    3   -1   19      2.30      0.00
    4   -1   19      3.28      0.00
    5   -1   19     -1.20      0.00
    6   -1   19     -3.28      0.00
    7   -1   19     -1.40      0.00
    8   -1   19     -6.29      0.00
    9   -1   19      1.84      0.00
   10   -1   19      0.54      0.00
   11   -1   19      0.75      0.00
   12   -1   19     -2.81      0.00
   13   -1   19     -1.26      0.00
   14   -1   19     -4.05      0.00
   15   -1   19      0.57      0.00
   16   -1   19      1.36      0.00
   -6    0   19     -6.40      0.00
   -5    0   19     -3.22      0.00
   -4    0   19      4.81      0.00
   -3    0   19     -8.03      0.00
   -2    0   19      2.69      0.00
   -1    0   19      3.07      0.00
    0    0   19      9.08      0.00
    1    0   19     -0.69      0.00
    2    0   19     -1.92      0.00
    3    0   19      0.35      0.00
    4    0   19     -7.97      0.00
    5    0   19      1.56      0.00
    6    0   19     -7.91      0.00
    7    0   19     -1.76      0.00
    8    0   19     -2.75      0.00
    9    0   19     -1.12      0.00
   10    0   19     -8.68      0.00
   11    0   19      1.63      0.00
   12    0   19     -3.90      0.00
   13    0   19      3.62      0.00
   14    0   19     -3.35      0.00
   15    0   19      3.33      0.00
   16    0   19      2.01      0.00
   17    0   19      1.84      0.00
   -6    1   19      2.00      0.00
   -5    1   19      2.51      0.00
   -4    1   19      2.98      0.00
   -3    1   19     -3.58      0.00
   -2    1   19      2.62      0.00
   -1    1   19      1.55      0.00
    0    1   19     -2.60      0.00
    1    1   19     -0.06      0.00
    2    1   19     -6.79      0.00
    3    1   19     -3.13      0.00
    4    1   19     -2.25      0.00
    5    1   19     -5.63      0.00
    6    1   19     -3.67      0.00
    7    1   19      4.24      0.00
    8    1   19      1.64      0.00
    9    1   19      2.07      0.00
   10    1   19     -5.00      0.00
   11    1   19     -7.99      0.00
   12    1   19     -5.82      0.00
   13    1   19      2.65      0.00
   14    1   19     -3.09      0.00
   15    1   19      2.69      0.00
   16    1   19      1.68      0.00
   17    1   19      3.15      0.00
   -6    2   19      8.43      0.00
   -5    2   19      1.07      0.00
   -4    2   19      6.18      0.00
   -3    2   19     -3.47      0.00
   -2    2   19     -1.20      0.00
   -1    2   19     -3.48      0.00
    0    2   19      0.24      0.00
    1    2   19     -3.22      0.00
    2    2   19     -2.37      0.00
    3    2   19      0.88      0.00
    4    2   19     -1.24      0.00
    5    2   19     -1.22      0.00
    6    2   19     -1.55      0.00
    7    2   19     -2.26      0.00
    8    2   19     -0.16      0.00
    9    2   19      6.02      0.00
   10    2   19      0.22      0.00
   11    2   19      1.34      0.00
   12    2   19      2.47      0.00
   13    2   19     -5.50      0.00
   14    2   19      4.98      0.00
   15    2   19     -0.22      0.00
   16    2   19      3.60      0.00
   17    2   19     -3.59      0.00
   18    2   19     -1.61      0.00
   -5    3   19      5.47      0.00
   -4    3   19     -2.81      0.00
   -3    3   19     -5.27      0.00
   -2    3   19     -4.81      0.00
   -1    3   19      3.43      0.00
    0    3   19     -2.38      0.00
    1    3   19      0.51      0.00
    2    3   19      0.00      0.00
    3    3   19     -3.76      0.00
    4    3   19      2.49      0.00
    5    3   19      0.70      0.00
    6    3   19      4.36      0.00
    7    3   19      0.29      0.00
    8    3   19      3.38      0.00
    9    3   19     -4.68      0.00
   10    3   19     -1.15      0.00
   11    3   19      0.44      0.00
   12    3   19      3.10      0.00
   13    3   19      4.01      0.00
   14    3   19     -2.09      0.00
   15    3   19      3.70      0.00
   16    3   19      2.93      0.00
   17    3   19     -1.51      0.00
   18    3   19     -1.39      0.00
   -4    4   19     -2.60      0.00
   -3    4   19     -0.82      0.00
   -2    4   19      0.35      0.00
   -1    4   19      0.81      0.00
    0    4   19     -1.02      0.00
    1    4   19      1.19      0.00
    2    4   19     -0.26      0.00
    3    4   19      0.01      0.00
    4    4   19      7.18      0.00
    5    4   19     -4.93      0.00
    6    4   19      3.12      0.00
    7    4   19     -4.67      0.00
    8    4   19      1.31      0.00
    9    4   19      5.81      0.00
   10    4   19      2.65      0.00
   11    4   19     -0.83      0.00
   12    4   19      6.52      0.00
   13    4   19     -4.92      0.00
   14    4   19     -1.97      0.00
   15    4   19      3.15      0.00
   16    4   19      0.16      0.00
   17    4   19     -2.04      0.00
   18    4   19      1.57      0.00
   -4    5   19     -6.87      0.00
   -3    5   19      0.86      0.00
   -2    5   19      1.27      0.00
   -1    5   19      1.36      0.00
    0    5   19      2.96      0.00
    1    5   19      2.29      0.00
    2    5   19      1.03      0.00
    3    5   19     -4.73      0.00
    4    5   19      7.72      0.00
    5    5   19     -2.41      0.00
    6    5   19     11.13      0.00
    7    5   19      0.04      0.00
    8    5   19      4.48      0.00
    9    5   19     -2.93      0.00
   10    5   19     -1.89      0.00
   11    5   19      3.62      0.00
   12    5   19     -2.74      0.00
   13    5   19      1.47      0.00
   14    5   19     -1.82      0.00
   15    5   19      5.47      0.00
   16    5   19     -1.43      0.00
   17    5   19     -0.57      0.00
   18    5   19      3.44      0.00
   19    5   19      2.02      0.00
   -3    6   19     -5.45      0.00
   -2    6   19     -0.50      0.00
   -1    6   19     -3.96      0.00
    0    6   19     10.96      0.00
    1    6   19      1.52      0.00
    2    6   19      3.85      0.00
    3    6   19    -10.16      0.00
    4    6   19     -1.67      0.00
    5    6   19    -10.12      0.00
    6    6   19     -1.66      0.00
    7    6   19     -1.25      0.00
    8    6   19      1.95      0.00
    9    6   19      5.32      0.00
   10    6   19      3.57      0.00
   11    6   19     -4.60      0.00
   12    6   19     -0.33      0.00
   13    6   19      2.94      0.00
   14    6   19     -3.38      0.00
   15    6   19     -0.03      0.00
   16    6   19     -7.51      0.00
   17    6   19     -3.63      0.00
   18    6   19      4.74      0.00
   19    6   19     -0.97      0.00
   -2    7   19      4.84      0.00
   -1    7   19      4.92      0.00
    0    7   19      5.04      0.00
    1    7   19     -0.48      0.00
    2    7   19      1.90      0.00
    3    7   19      2.89      0.00
    4    7   19      8.46      0.00
    5    7   19      2.89      0.00
    6    7   19      5.75      0.00
    7    7   19      5.34      0.00
    8    7   19     -3.31      0.00
    9    7   19      3.09      0.00
   10    7   19     -5.31      0.00
   11    7   19      4.33      0.00
   12    7   19      0.91      0.00
   13    7   19      5.51      0.00
   14    7   19     -4.06      0.00
   15    7   19     -2.25      0.00
   16    7   19     -5.93      0.00
   17    7   19      0.57      0.00
   18    7   19      7.80      0.00
   19    7   19      1.75      0.00
   -1    8   19     -4.55      0.00
    0    8   19     -0.69      0.00
    1    8   19     -0.80      0.00
    2    8   19      7.05      0.00
    3    8   19     -4.32      0.00
    4    8   19     -2.15      0.00
    5    8   19      4.16      0.00
    6    8   19     -1.22      0.00
    7    8   19      4.93      0.00
    8    8   19      0.54      0.00
    9    8   19      3.38      0.00
   10    8   19      4.65      0.00
   11    8   19     -0.92      0.00
   12    8   19     -8.35      0.00
   13    8   19      2.26      0.00
   14    8   19     -5.17      0.00
   15    8   19     -7.92      0.00
   16    8   19     -6.14      0.00
   17    8   19     -5.49      0.00
   18    8   19      7.28      0.00
   19    8   19      2.10      0.00
   -1    9   19      2.72      0.00
    0    9   19     -0.60      0.00
    1    9   19     -0.76      0.00
    2    9   19     -4.39      0.00
    3    9   19      3.95      0.00
    4    9   19     -0.31      0.00
    5    9   19      6.80      0.00
    6    9   19      0.69      0.00
    7    9   19     10.29      0.00
    8    9   19     -1.85      0.00
    9    9   19     -1.25      0.00
   10    9   19     -1.90      0.00
   11    9   19      1.14      0.00
   12    9   19      3.29      0.00
   13    9   19      7.48      0.00
   14    9   19     -2.28      0.00
   15    9   19      0.97      0.00
   16    9   19     -1.99      0.00
   17    9   19     -3.28      0.00
   18    9   19     -0.75      0.00
   19    9   19      0.32      0.00
    0   10   19     -4.39      0.00
    1   10   19     -4.91      0.00
    2   10   19      0.10      0.00
    3   10   19     -2.09      0.00
    4   10   19      3.06      0.00
    5   10   19      8.22      0.00
    6   10   19      2.27      0.00
    7   10   19      2.29      0.00
    8   10   19      0.41      0.00
    9   10   19     -4.77      0.00
   10   10   19      1.66      0.00
   11   10   19     -0.26      0.00
   12   10   19      0.04      0.00
   13   10   19      7.59      0.00
   14   10   19     -4.67      0.00
   15   10   19     -1.95      0.00
   16   10   19      3.77      0.00
   17   10   19     -1.88      0.00
   18   10   19      3.26      0.00
   19   10   19     -5.09      0.00
    2   11   19     -3.15      0.00
    3   11   19     -2.45      0.00
    4   11   19      3.46      0.00
    5   11   19      3.70      0.00
    6   11   19     -1.13      0.00
    7   11   19      4.86      0.00
    8   11   19     -7.01      0.00
    9   11   19     -3.16      0.00
   10   11   19     -2.05      0.00
   11   11   19      1.20      0.00
   12   11   19      3.35      0.00
   13   11   19      9.44      0.00
   14   11   19      5.30      0.00
   15   11   19      6.09      0.00
   16   11   19      1.18      0.00
   17   11   19     -0.83      0.00
   18   11   19     -2.41      0.00
    3   12   19      8.28      0.00
    4   12   19      3.52      0.00
    5   12   19      3.57      0.00
    6   12   19     -7.14      0.00
    7   12   19      6.95      0.00
    8   12   19     -3.97      0.00
    9   12   19      5.22      0.00
   10   12   19      2.02      0.00
   11   12   19      3.43      0.00
   12   12   19      2.10      0.00
   13   12   19      2.92      0.00
   14   12   19     -0.93      0.00
   15   12   19      5.54      0.00
   16   12   19     11.21      0.00
   17   12   19      1.18      0.00
   18   12   19     -4.27      0.00
    4   13   19      3.63      0.00
    5   13   19      2.11      0.00
    6   13   19     -4.94      0.00
    7   13   19      3.60      0.00
    8   13   19     -7.07      0.00
    9   13   19      6.63      0.00
   10   13   19      9.42      0.00
   11   13   19     -0.03      0.00
   12   13   19      3.67      0.00
   13   13   19      0.23      0.00
   14   13   19     -4.45      0.00
   15   13   19     -3.88      0.00
   16   13   19      8.54      0.00
   17   13   19      4.58      0.00
    6   14   19     -2.98      0.00
    7   14   19     12.57      0.00
    8   14   19     -0.40      0.00
    9   14   19      4.44      0.00
   10   14   19     -1.97      0.00
   11   14   19     -7.61      0.00
   12   14   19      1.71      0.00
   13   14   19      2.38      0.00
   14   14   19      1.16      0.00
   15   14   19     -0.17      0.00
   16   14   19      3.36      0.00
    8   15   19     -2.96      0.00
    9   15   19     -8.82      0.00
   10   15   19      0.68      0.00
   11   15   19    -13.94      0.00
   12   15   19     -1.77      0.00
   13   15   19     -2.97      0.00
   14   15   19     -8.95      0.00
   15   15   19     -6.84      0.00
   -3  -13   20     -2.89      0.00
   -2  -13   20      2.85      0.00
   -1  -13   20      4.37      0.00
    0  -13   20     -4.70      0.00
    1  -13   20     -1.30      0.00
    2  -13   20      3.49      0.00
    3  -13   20     -2.15      0.00
   -5  -12   20      1.00      0.00
   -4  -12   20     -3.79      0.00
   -3  -12   20     -1.90      0.00
   -2  -12   20      3.41      0.00
   -1  -12   20      4.06      0.00
    0  -12   20     -0.63      0.00
    1  -12   20      1.18      0.00
    2  -12   20      2.69      0.00
    3  -12   20     -2.90      0.00
    4  -12   20     -2.61      0.00
    5  -12   20     -3.07      0.00
   -5  -11   20     -9.31      0.00
   -4  -11   20     -7.02      0.00
   -3  -11   20     -4.57      0.00
   -2  -11   20      3.68      0.00
   -1  -11   20      1.32      0.00
    0  -11   20     -3.41      0.00
    1  -11   20     -4.57      0.00
    2  -11   20      3.80      0.00
    3  -11   20      2.27      0.00
    4  -11   20      0.59      0.00
    5  -11   20      1.04      0.00
    6  -11   20     -0.41      0.00
    7  -11   20      0.18      0.00
   -6  -10   20      2.05      0.00
   -5  -10   20     -2.96      0.00
   -4  -10   20      2.45      0.00
   -3  -10   20     -0.06      0.00
   -2  -10   20     -0.04      0.00
   -1  -10   20     -2.92      0.00
    0  -10   20     -2.29      0.00
    1  -10   20     -1.99      0.00
    2  -10   20      0.57      0.00
    3  -10   20      0.24      0.00
    4  -10   20     -3.47      0.00
    5  -10   20      0.61      0.00
    6  -10   20     -0.46      0.00
    7  -10   20      4.20      0.00
    8  -10   20     -1.67      0.00
   -6   -9   20     -2.67      0.00
   -5   -9   20     -2.71      0.00
   -4   -9   20     -0.90      0.00
   -3   -9   20     -3.08      0.00
   -2   -9   20      2.78      0.00
   -1   -9   20     -9.79      0.00
    0   -9   20     -5.58      0.00
    1   -9   20     -0.21      0.00
    2   -9   20     -4.52      0.00
    3   -9   20      2.58      0.00
    4   -9   20      2.23      0.00
    5   -9   20     -0.19      0.00
    6   -9   20      1.37      0.00
    7   -9   20      2.48      0.00
    8   -9   20     -3.10      0.00
    9   -9   20     -1.99      0.00
   10   -9   20     -2.90      0.00
   -7   -8   20    -10.49      0.00
   -6   -8   20      3.24      0.00
   -5   -8   20     -3.33      0.00
   -4   -8   20      3.25      0.00
   -3   -8   20     -2.66      0.00
   -2   -8   20      2.80      0.00
   -1   -8   20     -2.57      0.00
    0   -8   20      2.03      0.00
    1   -8   20      0.06      0.00
    2   -8   20     -6.08      0.00
    3   -8   20     -4.05      0.00
    4   -8   20     -5.13      0.00
    5   -8   20      1.64      0.00
    6   -8   20      2.51      0.00
    7   -8   20      4.96      0.00
    8   -8   20     -1.74      0.00
    9   -8   20      2.73      0.00
   10   -8   20      3.84      0.00
   11   -8   20     -4.14      0.00
   -7   -7   20     -2.62      0.00
   -6   -7   20      4.15      0.00
   -5   -7   20     -1.87      0.00
   -4   -7   20      0.34      0.00
   -3   -7   20     -3.79      0.00
   -2   -7   20      1.71      0.00
   -1   -7   20     -0.42      0.00
    0   -7   20     -1.55      0.00
    1   -7   20      1.69      0.00
    2   -7   20      3.04      0.00
    3   -7   20      2.00      0.00
    4   -7   20     -3.53      0.00
    5   -7   20     -3.96      0.00
    6   -7   20     -0.99      0.00
    7   -7   20      0.39      0.00
    8   -7   20     -3.16      0.00
    9   -7   20      1.85      0.00
   10   -7   20      5.81      0.00
   11   -7   20      0.23      0.00
   12   -7   20      5.87      0.00
   -7   -6   20     -2.55      0.00
   -6   -6   20      7.82      0.00
   -5   -6   20     -2.03      0.00
   -4   -6   20      4.07      0.00
   -3   -6   20     -0.69      0.00
   -2   -6   20      0.75      0.00
   -1   -6   20      2.15      0.00
    0   -6   20      0.24      0.00
    1   -6   20      4.06      0.00
    2   -6   20     -1.96      0.00
    3   -6   20     -5.86      0.00
    4   -6   20     -0.59      0.00
    5   -6   20     -0.50      0.00
    6   -6   20      0.16      0.00
    7   -6   20      3.19      0.00
    8   -6   20      0.73      0.00
    9   -6   20      1.82      0.00
   10   -6   20      3.02      0.00
   11   -6   20     -2.15      0.00
   12   -6   20     -1.38      0.00
   -7   -5   20     -2.00      0.00
   -6   -5   20      5.57      0.00
   -5   -5   20      1.47      0.00
   -4   -5   20     -3.12      0.00
   -3   -5   20      3.67      0.00
   -2   -5   20     -6.55      0.00
   -1   -5   20      4.26      0.00
    0   -5   20      0.67      0.00
    1   -5   20      2.93      0.00
    2   -5   20      4.05      0.00
    3   -5   20      2.38      0.00
    4   -5   20     -3.30      0.00
    5   -5   20     -7.07      0.00
    6   -5   20      1.54      0.00
    7   -5   20     -3.29      0.00
    8   -5   20     -5.58      0.00
    9   -5   20     -3.61      0.00
   10   -5   20      0.31      0.00
   11   -5   20      3.23      0.00
   12   -5   20      3.99      0.00
   13   -5   20      2.14      0.00
   -6   -4   20     -0.59      0.00
   -5   -4   20      1.49      0.00
   -4   -4   20     -2.48      0.00
   -3   -4   20      2.34      0.00
   -2   -4   20     -2.90      0.00
   -1   -4   20     -2.37      0.00
    0   -4   20     -0.05      0.00
    1   -4   20     -0.07      0.00
    2   -4   20      0.09      0.00
    3   -4   20     -5.48      0.00
    4   -4   20     -1.12      0.00
    5   -4   20     -4.81      0.00
    6   -4   20     -1.89      0.00
    7   -4   20      1.14      0.00
    8   -4   20      3.03      0.00
    9   -4   20     -0.20      0.00
   10   -4   20      1.23      0.00
   11   -4   20      1.88      0.00
   12   -4   20     -3.22      0.00
   13   -4   20      4.54      0.00
   14   -4   20     -2.76      0.00
   -6   -3   20     -2.44      0.00
   -5   -3   20     -0.37      0.00
   -4   -3   20     -1.15      0.00
   -3   -3   20      5.57      0.00
   -2   -3   20     -0.85      0.00
   -1   -3   20      0.85      0.00
    0   -3   20     -0.07      0.00
    1   -3   20      3.50      0.00
    2   -3   20     -1.57      0.00
    3   -3   20     -2.25      0.00
    4   -3   20      6.05      0.00
    5   -3   20    -10.25      0.00
    6   -3   20     -0.30      0.00
    7   -3   20     -2.85      0.00
    8   -3   20     -1.81      0.00
    9   -3   20     -7.70      0.00
   10   -3   20      3.57      0.00
   11   -3   20      7.02      0.00
   12   -3   20      5.60      0.00
   13   -3   20      4.21      0.00
   14   -3   20     -1.21      0.00
   15   -3   20      1.24      0.00
   -6   -2   20      0.44      0.00
   -5   -2   20      6.77      0.00
   -4   -2   20      5.00      0.00
   -3   -2   20     -1.64      0.00
   -2   -2   20     -0.28      0.00
   -1   -2   20     -7.10      0.00
    0   -2   20      0.40      0.00
    1   -2   20     -7.25      0.00
    2   -2   20      1.75      0.00
    3   -2   20      0.53      0.00
    4   -2   20      3.71      0.00
    5   -2   20      3.28      0.00
    6   -2   20      0.62      0.00
    7   -2   20      0.10      0.00
    8   -2   20      4.60      0.00
    9   -2   20      6.42      0.00
   10   -2   20     -2.79      0.00
   11   -2   20      3.94      0.00
   12   -2   20     -3.43      0.00
   13   -2   20      3.98      0.00
   14   -2   20      1.29      0.00
   15   -2   20     -1.02      0.00
   -6   -1   20     -0.03      0.00
   -5   -1   20      3.13      0.00
   -4   -1   20      3.82      0.00
   -3   -1   20      0.46      0.00
   -2   -1   20      6.91      0.00
   -1   -1   20      0.66      0.00
    0   -1   20      1.73      0.00
    1   -1   20      1.65      0.00
    2   -1   20     -4.00      0.00
    3   -1   20      2.11      0.00
    4   -1   20      3.00      0.00
    5   -1   20      3.30      0.00
    6   -1   20     -0.75      0.00
    7   -1   20      1.90      0.00
    8   -1   20      2.33      0.00
    9   -1   20     -4.26      0.00
   10   -1   20     -0.27      0.00
   11   -1   20      2.19      0.00
   12   -1   20      4.00      0.00
   13   -1   20      6.47      0.00
   14   -1   20     -3.75      0.00
   15   -1   20     -0.37      0.00
   16   -1   20     -1.11      0.00
   -5    0   20     -0.41      0.00
   -4    0   20      5.15      0.00
   -3    0   20     -0.18      0.00
   -2    0   20      0.24      0.00
   -1    0   20     -3.67      0.00
    0    0   20      4.05      0.00
    1    0   20      1.96      0.00
    2    0   20      1.23      0.00
    3    0   20      4.12      0.00
    4    0   20      0.76      0.00
    5    0   20     -2.58      0.00
    6    0   20      2.31      0.00
    7    0   20      4.08      0.00
    8    0   20      0.51      0.00
    9    0   20      5.06      0.00
   10    0   20     -5.45      0.00
   11    0   20     -1.16      0.00
   12    0   20      1.07      0.00
   13    0   20     -0.81      0.00
   14    0   20     -3.72      0.00
   15    0   20      0.66      0.00
   16    0   20     -0.84      0.00
   -5    1   20     -2.81      0.00
   -4    1   20      1.00      0.00
   -3    1   20     -3.86      0.00
   -2    1   20      4.69      0.00
   -1    1   20      5.14      0.00
    0    1   20      4.03      0.00
    1    1   20      3.46      0.00
    2    1   20     -0.32      0.00
    3    1   20      3.55      0.00
    4    1   20     -4.96      0.00
    5    1   20     -3.86      0.00
    6    1   20     -2.91      0.00
    7    1   20     -1.40      0.00
    8    1   20      4.04      0.00
    9    1   20      1.25      0.00
   10    1   20      0.89      0.00
   11    1   20     -0.90      0.00
   12    1   20      2.50      0.00
   13    1   20     -6.82      0.00
   14    1   20      3.30      0.00
   15    1   20     -1.13      0.00
   16    1   20      0.70      0.00
   17    1   20     -3.48      0.00
   -4    2   20     -5.69      0.00
   -3    2   20     -2.83      0.00
   -2    2   20      4.08      0.00
   -1    2   20      1.80      0.00
    0    2   20     -5.73      0.00
    1    2   20      0.46      0.00
    2    2   20     -0.03      0.00
    3    2   20     -1.21      0.00
    4    2   20      3.07      0.00
    5    2   20     -2.75      0.00
    6    2   20      1.57      0.00
    7    2   20      4.51      0.00
    8    2   20     -4.26      0.00
    9    2   20     -3.01      0.00
   10    2   20     -3.93      0.00
   11    2   20     -3.45      0.00
   12    2   20     -1.34      0.00
   13    2   20     -3.70      0.00
   14    2   20     -5.49      0.00
   15    2   20      0.29      0.00
   16    2   20     -2.68      0.00
   17    2   20      0.59      0.00
   -4    3   20     -3.37      0.00
   -3    3   20      2.43      0.00
   -2    3   20      0.31      0.00
   -1    3   20     -0.85      0.00
    0    3   20     -3.17      0.00
    1    3   20      1.25      0.00
    2    3   20      0.27      0.00
    3    3   20      0.30      0.00
    4    3   20      0.17      0.00
    5    3   20     -2.98      0.00
    6    3   20      1.01      0.00
    7    3   20     -4.30      0.00
    8    3   20     -2.99      0.00
    9    3   20      0.68      0.00
   10    3   20     -1.98      0.00
   11    3   20     -0.09      0.00
   12    3   20      0.17      0.00
   13    3   20     -6.78      0.00
   14    3   20     -1.21      0.00
   15    3   20     -3.53      0.00
   16    3   20     -2.40      0.00
   17    3   20     -2.25      0.00
   -3    4   20      4.58      0.00
   -2    4   20      8.79      0.00
   -1    4   20      2.05      0.00
    0    4   20     -2.96      0.00
    1    4   20     -3.79      0.00
    2    4   20     -0.22      0.00
    3    4   20     -2.38      0.00
    4    4   20      8.93      0.00
    5    4   20      1.72      0.00
    6    4   20     -0.10      0.00
    7    4   20     -4.72      0.00
    8    4   20    -11.50      0.00
    9    4   20    -10.03      0.00
   10    4   20     -3.07      0.00
   11    4   20      0.13      0.00
   12    4   20     -3.82      0.00
   13    4   20      0.88      0.00
   14    4   20    -10.40      0.00
   15    4   20      0.23      0.00
   16    4   20     -3.20      0.00
   17    4   20      0.41      0.00
   18    4   20      0.20      0.00
   -3    5   20      0.42      0.00
   -2    5   20      8.98      0.00
   -1    5   20     -2.87      0.00
    0    5   20     -0.66      0.00
    1    5   20      0.12      0.00
    2    5   20      1.43      0.00
    3    5   20     -6.01      0.00
    4    5   20      2.59      0.00
    5    5   20     -5.46      0.00
    6    5   20      0.55      0.00
    7    5   20      1.09      0.00
    8    5   20      1.36      0.00
    9    5   20      1.99      0.00
   10    5   20      1.71      0.00
   11    5   20     -1.76      0.00
   12    5   20      3.22      0.00
   13    5   20     -3.46      0.00
   14    5   20     -4.86      0.00
   15    5   20     -0.90      0.00
   16    5   20      0.35      0.00
   17    5   20      1.20      0.00
   18    5   20      3.73      0.00
   -2    6   20      6.20      0.00
   -1    6   20     -7.90      0.00
    0    6   20     -4.12      0.00
    1    6   20      0.70      0.00
    2    6   20      2.70      0.00
    3    6   20      2.45      0.00
    4    6   20      2.63      0.00
    5    6   20     -6.42      0.00
    6    6   20     -2.90      0.00
    7    6   20     -9.21      0.00
    8    6   20     -5.54      0.00
    9    6   20     -5.77      0.00
   10    6   20     -1.12      0.00
   11    6   20      6.78      0.00
   12    6   20     -3.16      0.00
   13    6   20      1.25      0.00
   14    6   20      0.88      0.00
   15    6   20      0.36      0.00
   16    6   20      4.23      0.00
   17    6   20     -0.28      0.00
   18    6   20      4.54      0.00
   -1    7   20     -4.63      0.00
    0    7   20      1.99      0.00
    1    7   20      1.45      0.00
    2    7   20      3.89      0.00
    3    7   20     -6.12      0.00
    4    7   20     -4.39      0.00
    5    7   20      1.25      0.00
    6    7   20     -0.37      0.00
    7    7   20      0.74      0.00
    8    7   20      3.79      0.00
    9    7   20     -4.05      0.00
   10    7   20      3.29      0.00
   11    7   20     -6.74      0.00
   12    7   20      0.45      0.00
   13    7   20     -0.34      0.00
   14    7   20      1.08      0.00
   15    7   20     -2.87      0.00
   16    7   20      1.33      0.00
   17    7   20     -0.75      0.00
   18    7   20      4.75      0.00
    0    8   20     -7.06      0.00
    1    8   20     -0.08      0.00
    2    8   20      2.47      0.00
    3    8   20      7.92      0.00
    4    8   20     -4.46      0.00
    5    8   20      0.21      0.00
    6    8   20      1.31      0.00
    7    8   20     -7.98      0.00
    8    8   20      2.29      0.00
    9    8   20    -10.22      0.00
   10    8   20     -1.26      0.00
   11    8   20      3.72      0.00
   12    8   20     -3.38      0.00
   13    8   20     -5.83      0.00
   14    8   20     -1.13      0.00
   15    8   20      1.34      0.00
   16    8   20      3.98      0.00
   17    8   20     -1.64      0.00
   18    8   20      4.11      0.00
    1    9   20      0.62      0.00
    2    9   20      5.26      0.00
    3    9   20     -3.03      0.00
    4    9   20      1.75      0.00
    5    9   20     -0.57      0.00
    6    9   20     -1.36      0.00
    7    9   20     -7.28      0.00
    8    9   20      7.65      0.00
    9    9   20     -4.32      0.00
   10    9   20      2.30      0.00
   11    9   20     -5.41      0.00
   12    9   20     -9.74      0.00
   13    9   20     -9.61      0.00
   14    9   20     -6.65      0.00
   15    9   20     -2.58      0.00
   16    9   20      3.62      0.00
   17    9   20     -1.28      0.00
   18    9   20      0.72      0.00
    2   10   20     -0.42      0.00
    3   10   20     -4.88      0.00
    4   10   20     -1.24      0.00
    5   10   20     -1.56      0.00
    6   10   20      3.55      0.00
    7   10   20      4.14      0.00
    8   10   20      1.86      0.00
    9   10   20      3.20      0.00
   10   10   20      0.20      0.00
   11   10   20      2.51      0.00
   12   10   20     -2.67      0.00
   13   10   20      3.25      0.00
   14   10   20      1.78      0.00
   15   10   20      1.87      0.00
   16   10   20     -3.07      0.00
   17   10   20     -2.44      0.00
   18   10   20     -3.23      0.00
    3   11   20     -1.11      0.00
    4   11   20      2.87      0.00
    5   11   20     -4.99      0.00
    6   11   20     -2.14      0.00
    7   11   20      8.79      0.00
    8   11   20      0.23      0.00
    9   11   20      3.49      0.00
   10   11   20     -7.79      0.00
   11   11   20     -3.68      0.00
   12   11   20     -6.28      0.00
   13   11   20     -1.33      0.00
   14   11   20      1.73      0.00
   15   11   20      6.48      0.00
   16   11   20      1.89      0.00
   17   11   20     -6.79      0.00
   18   11   20     -5.67      0.00
    4   12   20      6.74      0.00
    5   12   20     -1.06      0.00
    6   12   20     -2.82      0.00
    7   12   20      5.72      0.00
    8   12   20     -3.94      0.00
    9   12   20     12.30      0.00
   10   12   20      2.02      0.00
   11   12   20      2.37      0.00
   12   12   20      3.06      0.00
   13   12   20     -2.96      0.00
   14   12   20      0.42      0.00
   15   12   20      1.84      0.00
   16   12   20      3.99      0.00
    6   13   20      0.93      0.00
    7   13   20     11.06      0.00
    8   13   20     -3.77      0.00
    9   13   20      4.87      0.00
   10   13   20      1.26      0.00
   11   13   20      3.86      0.00
   12   13   20      3.60      0.00
   13   13   20      0.33      0.00
   14   13   20      1.59      0.00
   15   13   20     -1.60      0.00
    8   14   20      2.09      0.00
    9   14   20      6.85      0.00
   10   14   20     10.10      0.00
   11   14   20     -4.11      0.00
   12   14   20      3.84      0.00
   13   14   20     -4.11      0.00
   15   14   20      6.70      0.00
   -2  -12   21      1.10      0.00
   -1  -12   21      0.75      0.00
    0  -12   21      0.30      0.00
    1  -12   21     -2.84      0.00
    2  -12   21      5.69      0.00
    3  -12   21      0.03      0.00
   -3  -11   21     -1.32      0.00
   -2  -11   21     -3.72      0.00
   -1  -11   21     -2.19      0.00
    0  -11   21      2.45      0.00
    1  -11   21     -0.21      0.00
    2  -11   21      0.80      0.00
    3  -11   21      1.10      0.00
    4  -11   21     -1.35      0.00
    5  -11   21      0.56      0.00
   -4  -10   21      1.74      0.00
   -3  -10   21      5.37      0.00
   -2  -10   21      2.12      0.00
   -1  -10   21     -5.49      0.00
    0  -10   21      5.16      0.00
    1  -10   21      0.45      0.00
    2  -10   21      3.30      0.00
    3  -10   21      5.82      0.00
    4  -10   21      2.50      0.00
    5  -10   21     -1.30      0.00
    6  -10   21     -4.07      0.00
    7  -10   21     -3.49      0.00
   -5   -9   21      1.34      0.00
   -4   -9   21      7.15      0.00
   -3   -9   21      2.92      0.00
   -2   -9   21      1.69      0.00
   -1   -9   21     -1.57      0.00
    0   -9   21      2.60      0.00
    1   -9   21     -1.61      0.00
    2   -9   21     -4.55      0.00
    3   -9   21     -2.01      0.00
    4   -9   21     -1.69      0.00
    5   -9   21      3.95      0.00
    6   -9   21     -0.52      0.00
    7   -9   21      1.61      0.00
    8   -9   21     -3.24      0.00
    9   -9   21      3.05      0.00
   -5   -8   21     -1.90      0.00
   -4   -8   21      2.05      0.00
   -3   -8   21     -0.17      0.00
   -2   -8   21      5.57      0.00
   -1   -8   21     -3.43      0.00
    0   -8   21      2.59      0.00
    1   -8   21      7.18      0.00
    2   -8   21     -0.68      0.00
    3   -8   21     -0.44      0.00
    4   -8   21     -3.43      0.00
    5   -8   21     -1.43      0.00
    6   -8   21     -2.44      0.00
    7   -8   21     -1.03      0.00
    8   -8   21     -2.91      0.00
    9   -8   21      2.32      0.00
   10   -8   21      4.09      0.00
   -5   -7   21     -5.41      0.00
   -4   -7   21      2.18      0.00
   -3   -7   21     -0.59      0.00
   -2   -7   21      2.63      0.00
   -1   -7   21      2.65      0.00
    0   -7   21      2.64      0.00
    1   -7   21     -1.90      0.00
    2   -7   21     -3.36      0.00
    3   -7   21      3.01      0.00
    4   -7   21     -2.07      0.00
    5   -7   21      5.24      0.00
    6   -7   21      0.47      0.00
    7   -7   21     -0.54      0.00
    8   -7   21     -1.19      0.00
    9   -7   21      2.45      0.00
   10   -7   21      5.86      0.00
   11   -7   21     -3.29      0.00
   -5   -6   21     -4.73      0.00
   -4   -6   21     -2.04      0.00
   -3   -6   21     -0.17      0.00
   -2   -6   21     -2.33      0.00
   -1   -6   21      4.67      0.00
    0   -6   21      3.62      0.00
    1   -6   21      1.53      0.00
    2   -6   21      8.06      0.00
    3   -6   21      3.49      0.00
    4   -6   21     -6.35      0.00
    5   -6   21      4.43      0.00
    6   -6   21     -0.60      0.00
    7   -6   21      0.87      0.00
    8   -6   21      2.82      0.00
    9   -6   21      4.74      0.00
   10   -6   21      5.35      0.00
   11   -6   21      2.97      0.00
   12   -6   21     -4.30      0.00
   -5   -5   21      1.02      0.00
   -4   -5   21     -0.37      0.00
   -3   -5   21      1.87      0.00
   -2   -5   21     -3.15      0.00
   -1   -5   21     -1.92      0.00
    0   -5   21      2.17      0.00
    1   -5   21      1.16      0.00
    2   -5   21      1.85      0.00
    3   -5   21      1.00      0.00
    4   -5   21      4.51      0.00
    5   -5   21      0.18      0.00
    6   -5   21      1.81      0.00
    7   -5   21      2.58      0.00
    8   -5   21      4.72      0.00
    9   -5   21     -2.37      0.00
   10   -5   21     -3.30      0.00
   11   -5   21     -7.11      0.00
   12   -5   21     -6.81      0.00
   13   -5   21     -0.13      0.00
   -5   -4   21     -1.34      0.00
   -4   -4   21     -0.27      0.00
   -3   -4   21     -0.08      0.00
   -2   -4   21     -0.10      0.00
   -1   -4   21      1.31      0.00
    0   -4   21      4.39      0.00
    1   -4   21     -1.42      0.00
    2   -4   21      5.36      0.00
    3   -4   21      0.62      0.00
    4   -4   21     -1.18      0.00
    5   -4   21     -5.56      0.00
    6   -4   21      1.40      0.00
    7   -4   21     -4.12      0.00
    8   -4   21      0.75      0.00
    9   -4   21     -0.53      0.00
   10   -4   21      2.15      0.00
   11   -4   21      6.44      0.00
   12   -4   21     -2.03      0.00
   13   -4   21     -1.87      0.00
   -5   -3   21      1.82      0.00
   -4   -3   21     -3.79      0.00
   -3   -3   21     -4.40      0.00
   -2   -3   21      1.06      0.00
   -1   -3   21     -3.37      0.00
    0   -3   21     -0.51      0.00
    1   -3   21     -2.37      0.00
    2   -3   21      3.77      0.00
    3   -3   21     -4.04      0.00
    4   -3   21      5.86      0.00
    5   -3   21      0.31      0.00
    6   -3   21     -4.49      0.00
    7   -3   21     -0.86      0.00
    8   -3   21      2.45      0.00
    9   -3   21     -4.04      0.00
   10   -3   21     -8.26      0.00
   11   -3   21      3.02      0.00
   12   -3   21     -3.10      0.00
   13   -3   21      4.23      0.00
   14   -3   21      0.41      0.00
   -5   -2   21     -1.57      0.00
   -4   -2   21      1.75      0.00
   -3   -2   21     -1.51      0.00
   -2   -2   21      4.19      0.00
   -1   -2   21     -1.75      0.00
    0   -2   21     -4.84      0.00
    1   -2   21     -4.20      0.00
    2   -2   21     -3.02      0.00
    3   -2   21     -2.36      0.00
    4   -2   21      3.21      0.00
    5   -2   21      2.39      0.00
    6   -2   21      1.71      0.00
    7   -2   21     -1.02      0.00
    8   -2   21     -2.89      0.00
    9   -2   21     -1.19      0.00
   10   -2   21     -0.17      0.00
   11   -2   21      3.78      0.00
   12   -2   21      1.72      0.00
   13   -2   21      2.14      0.00
   14   -2   21     -0.29      0.00
   15   -2   21      5.75      0.00
   -5   -1   21     -3.04      0.00
   -4   -1   21     -1.79      0.00
   -3   -1   21     -6.48      0.00
   -2   -1   21     -1.16      0.00
   -1   -1   21     -0.83      0.00
    0   -1   21     -3.93      0.00
    1   -1   21     -1.06      0.00
    2   -1   21      3.06      0.00
    3   -1   21     -4.24      0.00
    4   -1   21     -2.66      0.00
    5   -1   21      4.78      0.00
    6   -1   21      4.82      0.00
    7   -1   21     -1.13      0.00
    8   -1   21      1.28      0.00
    9   -1   21     -0.71      0.00
   10   -1   21     -6.78      0.00
   11   -1   21     -0.15      0.00
   12   -1   21     -3.85      0.00
   13   -1   21     -1.95      0.00
   14   -1   21      5.08      0.00
   15   -1   21      2.99      0.00
   -4    0   21      0.36      0.00
   -3    0   21      1.46      0.00
   -2    0   21      5.62      0.00
   -1    0   21     -3.91      0.00
    0    0   21     -0.98      0.00
    1    0   21      0.67      0.00
    2    0   21     -0.25      0.00
    3    0   21     -5.82      0.00
    4    0   21     -6.00      0.00
    5    0   21     -3.28      0.00
    6    0   21     -3.44      0.00
    7    0   21     -1.93      0.00
    8    0   21     -0.74      0.00
    9    0   21     -1.66      0.00
   10    0   21      4.33      0.00
   11    0   21     -3.28      0.00
   12    0   21      2.15      0.00
   13    0   21     -5.28      0.00
   14    0   21      2.94      0.00
   15    0   21     -2.55      0.00
   16    0   21     -2.45      0.00
   -4    1   21     -0.13      0.00
   -3    1   21      1.85      0.00
   -2    1   21     -0.33      0.00
   -1    1   21     -1.95      0.00
    0    1   21      3.10      0.00
    1    1   21      4.74      0.00
    2    1   21      2.31      0.00
    3    1   21     -2.72      0.00
    4    1   21     -0.75      0.00
    5    1   21     -5.90      0.00
    6    1   21     -0.51      0.00
    7    1   21     -3.32      0.00
    8    1   21     -1.29      0.00
    9    1   21      0.93      0.00
   10    1   21      1.89      0.00
   11    1   21     -3.08      0.00
   12    1   21      2.04      0.00
   13    1   21     -3.37      0.00
   14    1   21      4.06      0.00
   15    1   21      1.42      0.00
   16    1   21      1.62      0.00
   -3    2   21      1.12      0.00
   -2    2   21     -1.66      0.00
   -1    2   21      1.31      0.00
    0    2   21      3.28      0.00
    1    2   21     -2.33      0.00
    2    2   21      0.49      0.00
    3    2   21     -5.06      0.00
    4    2   21     -4.02      0.00
    5    2   21     -4.80      0.00
    6    2   21     -6.68      0.00
    7    2   21      0.89      0.00
    8    2   21      6.10      0.00
    9    2   21      5.41      0.00
   10    2   21      2.65      0.00
   11    2   21     -0.79      0.00
   12    2   21     -2.73      0.00
   13    2   21     -4.09      0.00
   14    2   21      8.22      0.00
   15    2   21     -0.80      0.00
   16    2   21     -1.23      0.00
   17    2   21      1.11      0.00
   -3    3   21      2.25      0.00
   -2    3   21      2.49      0.00
   -1    3   21     -5.39      0.00
    0    3   21     -1.62      0.00
    1    3   21     -3.68      0.00
    2    3   21      2.02      0.00
    3    3   21      2.27      0.00
    4    3   21     -0.02      0.00
    5    3   21      0.11      0.00
    6    3   21     -4.30      0.00
    7    3   21      2.10      0.00
    8    3   21     -3.34      0.00
    9    3   21     -1.01      0.00
   10    3   21      6.47      0.00
   11    3   21     -1.91      0.00
   12    3   21      0.32      0.00
   13    3   21      2.55      0.00
   14    3   21      0.52      0.00
   15    3   21      2.60      0.00
   16    3   21     -3.26      0.00
   17    3   21      3.48      0.00
   -2    4   21      2.12      0.00
   -1    4   21     -1.05      0.00
    0    4   21      7.43      0.00
    1    4   21      3.16      0.00
    2    4   21     -3.16      0.00
    3    4   21     -3.46      0.00
    4    4   21     -0.88      0.00
    5    4   21      0.77      0.00
    6    4   21      5.56      0.00
    7    4   21      3.23      0.00
    8    4   21      0.94      0.00
    9    4   21      1.87      0.00
   10    4   21     -3.10      0.00
   11    4   21      0.87      0.00
   12    4   21     -3.57      0.00
   13    4   21      1.29      0.00
   14    4   21     -0.54      0.00
   15    4   21     -5.03      0.00
   16    4   21      3.59      0.00
   17    4   21      3.46      0.00
   -1    5   21     -3.24      0.00
    0    5   21      1.14      0.00
    1    5   21      0.05      0.00
    2    5   21      3.41      0.00
    3    5   21     -0.78      0.00
    4    5   21     -3.98      0.00
    5    5   21      0.48      0.00
    6    5   21     -9.17      0.00
    7    5   21     -1.21      0.00
    8    5   21     -0.78      0.00
    9    5   21      1.93      0.00
   10    5   21      7.72      0.00
   11    5   21      0.75      0.00
   12    5   21     -5.08      0.00
   13    5   21      2.29      0.00
   14    5   21     -2.94      0.00
   15    5   21     -5.81      0.00
   16    5   21      1.71      0.00
   17    5   21      0.21      0.00
   -1    6   21      0.53      0.00
    0    6   21     -0.31      0.00
    1    6   21      3.75      0.00
    2    6   21      1.20      0.00
    3    6   21     -4.80      0.00
    4    6   21      2.28      0.00
    5    6   21      2.98      0.00
    6    6   21      1.70      0.00
    7    6   21      1.88      0.00
    8    6   21      4.07      0.00
    9    6   21      5.75      0.00
   10    6   21      2.77      0.00
   11    6   21      2.74      0.00
   12    6   21      1.64      0.00
   13    6   21      1.73      0.00
   14    6   21      0.11      0.00
   15    6   21     -1.07      0.00
   16    6   21      1.93      0.00
   17    6   21     -1.34      0.00
    0    7   21     -6.13      0.00
    1    7   21      5.69      0.00
    2    7   21      0.33      0.00
    3    7   21      4.70      0.00
    4    7   21     -6.71      0.00
    5    7   21     -1.22      0.00
    6    7   21     -4.32      0.00
    7    7   21     -4.52      0.00
    8    7   21      4.20      0.00
    9    7   21     -0.46      0.00
   10    7   21      3.39      0.00
   11    7   21      2.24      0.00
   12    7   21     -0.84      0.00
   13    7   21      2.50      0.00
   14    7   21      9.10      0.00
   15    7   21     -3.60      0.00
   16    7   21      0.16      0.00
   17    7   21     -5.51      0.00
    1    8   21     -3.24      0.00
    2    8   21      3.35      0.00
    3    8   21      1.76      0.00
    4    8   21      7.16      0.00
    5    8   21      2.31      0.00
    6    8   21      4.47      0.00
    7    8   21     -0.24      0.00
    8    8   21     13.46      0.00
    9    8   21      0.56      0.00
   10    8   21     -1.65      0.00
   11    8   21     -3.85      0.00
   12    8   21     -0.33      0.00
   13    8   21      1.19      0.00
   14    8   21      2.33      0.00
   15    8   21     -2.96      0.00
   16    8   21     -1.34      0.00
   17    8   21     -2.01      0.00
    2    9   21     -3.69      0.00
    3    9   21      0.46      0.00
    4    9   21      0.81      0.00
    5    9   21      3.00      0.00
    6    9   21      5.17      0.00
    7    9   21      0.01      0.00
    8    9   21      3.61      0.00
    9    9   21      2.53      0.00
   10    9   21     -5.30      0.00
   11    9   21      5.56      0.00
   12    9   21      1.42      0.00
   13    9   21     -5.49      0.00
   14    9   21     -1.68      0.00
   15    9   21     -9.97      0.00
   16    9   21     -4.85      0.00
   17    9   21     -2.67      0.00
    3   10   21     -6.05      0.00
    4   10   21     -1.67      0.00
    5   10   21     -6.55      0.00
    6   10   21      4.18      0.00
    7   10   21      5.25      0.00
    8   10   21      7.58      0.00
    9   10   21     -4.49      0.00
   10   10   21     -5.10      0.00
   11   10   21      0.56      0.00
   12   10   21      0.22      0.00
   13   10   21      1.56      0.00
   14   10   21      5.73      0.00
   15   10   21      0.31      0.00
   16   10   21     -1.55      0.00
   17   10   21     -1.11      0.00
    5   11   21      0.05      0.00
    6   11   21      4.13      0.00
    7   11   21      6.52      0.00
    8   11   21      5.74      0.00
    9   11   21      4.90      0.00
   10   11   21     -5.68      0.00
   11   11   21      1.32      0.00
   12   11   21     -3.26      0.00
   13   11   21     -4.57      0.00
   14   11   21      9.44      0.00
   15   11   21      0.13      0.00
   16   11   21      6.01      0.00
    6   12   21      3.56      0.00
    7   12   21      1.85      0.00
    8   12   21     -0.77      0.00
    9   12   21     -7.56      0.00
   10   12   21     -0.34      0.00
   11   12   21      3.36      0.00
   12   12   21      7.18      0.00
   13   12   21      1.23      0.00
   14   12   21      4.51      0.00
   15   12   21      0.67      0.00
   16   12   21      0.99      0.00
    8   13   21     10.10      0.00
    9   13   21      0.20      0.00
   10   13   21      2.12      0.00
   11   13   21      4.80      0.00
   12   13   21      5.21      0.00
   14   13   21      8.17      0.00
    0  -11   22      5.73      0.00
    1  -11   22     -4.03      0.00
    2  -11   22      4.05      0.00
   -2  -10   22     -2.45      0.00
   -1  -10   22     -1.98      0.00
    0  -10   22      1.31      0.00
    1  -10   22     -6.61      0.00
    2  -10   22     -1.62      0.00
    3  -10   22      0.09      0.00
    4  -10   22      3.55      0.00
    5  -10   22      4.31      0.00
   -3   -9   22      1.83      0.00
   -2   -9   22     -0.28      0.00
   -1   -9   22     -3.48      0.00
    0   -9   22      3.08      0.00
    1   -9   22      2.21      0.00
    2   -9   22     -1.07      0.00
    3   -9   22     -1.33      0.00
    4   -9   22     -3.04      0.00
    5   -9   22     -0.38      0.00
    6   -9   22     -2.57      0.00
    7   -9   22      1.34      0.00
   -3   -8   22     -0.94      0.00
   -2   -8   22     -3.31      0.00
   -1   -8   22      1.85      0.00
    0   -8   22     -6.80      0.00
    1   -8   22     -5.69      0.00
    2   -8   22      1.86      0.00
    3   -8   22     -2.73      0.00
    4   -8   22     -3.54      0.00
    5   -8   22      3.65      0.00
    6   -8   22     -1.74      0.00
    7   -8   22     -1.13      0.00
    8   -8   22      3.45      0.00
   -4   -7   22      1.64      0.00
   -3   -7   22     -0.22      0.00
   -2   -7   22      0.87      0.00
   -1   -7   22      5.90      0.00
    0   -7   22     -0.71      0.00
    1   -7   22      2.42      0.00
    2   -7   22     -1.74      0.00
    3   -7   22     -3.82      0.00
    4   -7   22     -7.67      0.00
    5   -7   22     -1.06      0.00
    6   -7   22     -1.47      0.00
    7   -7   22      0.11      0.00
    8   -7   22      0.69      0.00
    9   -7   22     -4.54      0.00
   10   -7   22      2.75      0.00
   -4   -6   22      3.99      0.00
   -3   -6   22     -0.51      0.00
   -2   -6   22     -2.24      0.00
   -1   -6   22     -1.12      0.00
    0   -6   22      0.99      0.00
    1   -6   22     -3.01      0.00
    2   -6   22      0.57      0.00
    3   -6   22      4.88      0.00
    4   -6   22     -0.84      0.00
    5   -6   22     -2.45      0.00
    6   -6   22     -0.01      0.00
    7   -6   22     -4.64      0.00
    8   -6   22      1.39      0.00
    9   -6   22     -5.61      0.00
   10   -6   22      0.92      0.00
   11   -6   22      1.85      0.00
   -4   -5   22      1.94      0.00
   -3   -5   22     -0.48      0.00
   -2   -5   22      3.96      0.00
   -1   -5   22     -1.63      0.00
    0   -5   22      0.30      0.00
    1   -5   22     -2.86      0.00
    2   -5   22      6.70      0.00
    3   -5   22     -2.34      0.00
    4   -5   22     -6.11      0.00
    5   -5   22     -2.42      0.00
    6   -5   22     -4.52      0.00
    7   -5   22     -1.05      0.00
    8   -5   22      3.87      0.00
    9   -5   22      3.97      0.00
   10   -5   22      5.09      0.00
   11   -5   22      3.59      0.00
   12   -5   22     -0.99      0.00
   -4   -4   22     -0.79      0.00
   -3   -4   22     -7.06      0.00
   -2   -4   22      2.81      0.00
   -1   -4   22     -7.33      0.00
    0   -4   22      4.30      0.00
    1   -4   22      2.70      0.00
    2   -4   22      6.03      0.00
    3   -4   22      1.33      0.00
    4   -4   22      4.52      0.00
    5   -4   22     -8.38      0.00
    6   -4   22     -5.49      0.00
    7   -4   22      4.48      0.00
    8   -4   22     -3.53      0.00
    9   -4   22     -4.42      0.00
   10   -4   22     -3.94      0.00
   11   -4   22      1.10      0.00
   12   -4   22      3.73      0.00
   -4   -3   22      3.57      0.00
   -3   -3   22     -4.10      0.00
   -2   -3   22      2.91      0.00
   -1   -3   22     -2.09      0.00
    0   -3   22     -1.78      0.00
    1   -3   22     -0.21      0.00
    2   -3   22      4.48      0.00
    3   -3   22     -3.73      0.00
    4   -3   22     -0.19      0.00
    5   -3   22      3.03      0.00
    6   -3   22     -3.55      0.00
    7   -3   22      0.64      0.00
    8   -3   22     -2.05      0.00
    9   -3   22      7.59      0.00
   10   -3   22     -0.31      0.00
   11   -3   22      4.62      0.00
   12   -3   22      5.12      0.00
   13   -3   22      0.05      0.00
   -3   -2   22     -1.63      0.00
   -2   -2   22      5.88      0.00
   -1   -2   22      4.03      0.00
    0   -2   22     -0.05      0.00
    1   -2   22      1.03      0.00
    2   -2   22      5.24      0.00
    3   -2   22     -5.46      0.00
    4   -2   22      3.80      0.00
    5   -2   22     10.31      0.00
    6   -2   22      0.37      0.00
    7   -2   22      3.56      0.00
    8   -2   22     -3.14      0.00
    9   -2   22      1.03      0.00
   10   -2   22     -4.61      0.00
   11   -2   22     -0.41      0.00
   12   -2   22      1.38      0.00
   13   -2   22      1.26      0.00
   14   -2   22      3.91      0.00
   -3   -1   22      1.52      0.00
   -2   -1   22      2.65      0.00
   -1   -1   22     -0.40      0.00
    0   -1   22     -1.00      0.00
    1   -1   22     -4.67      0.00
    2   -1   22      2.12      0.00
    3   -1   22     -1.69      0.00
    4   -1   22      0.78      0.00
    5   -1   22      6.17      0.00
    6   -1   22      6.66      0.00
    7   -1   22      5.97      0.00
    8   -1   22      1.26      0.00
    9   -1   22      6.69      0.00
   10   -1   22      2.54      0.00
   11   -1   22     -1.70      0.00
   12   -1   22      3.46      0.00
   13   -1   22     -4.90      0.00
   14   -1   22     -1.49      0.00
   -3    0   22      3.09      0.00
   -2    0   22      1.63      0.00
   -1    0   22      4.24      0.00
    0    0   22      1.98      0.00
    1    0   22      0.60      0.00
    2    0   22      5.02      0.00
    3    0   22     -4.87      0.00
    4    0   22     -0.39      0.00
    5    0   22      1.23      0.00
    6    0   22      1.66      0.00
    7    0   22     -1.36      0.00
    8    0   22     -0.32      0.00
    9    0   22     -0.82      0.00
   10    0   22     -1.93      0.00
   11    0   22      2.44      0.00
   12    0   22      5.14      0.00
   13    0   22      0.75      0.00
   14    0   22      4.63      0.00
   15    0   22     -1.65      0.00
   -2    1   22      0.67      0.00
   -1    1   22     -5.95      0.00
    0    1   22      5.78      0.00
    1    1   22     -2.54      0.00
    2    1   22      4.55      0.00
    3    1   22     -5.46      0.00
    4    1   22     -0.90      0.00
    5    1   22     -1.08      0.00
    6    1   22     -1.92      0.00
    7    1   22      4.99      0.00
    8    1   22      2.94      0.00
    9    1   22     -0.55      0.00
   10    1   22      1.88      0.00
   11    1   22     -1.62      0.00
   12    1   22      0.39      0.00
   13    1   22     -0.17      0.00
   14    1   22     -0.16      0.00
   15    1   22     -3.87      0.00
   -2    2   22     -6.77      0.00
   -1    2   22     -5.55      0.00
    0    2   22      6.65      0.00
    1    2   22     -0.36      0.00
    2    2   22      2.93      0.00
    3    2   22      0.67      0.00
    4    2   22     -0.61      0.00
    5    2   22     -1.27      0.00
    6    2   22     -4.04      0.00
    7    2   22     -3.29      0.00
    8    2   22     -1.52      0.00
    9    2   22      1.70      0.00
   10    2   22      3.99      0.00
   11    2   22      1.16      0.00
   12    2   22      3.97      0.00
   13    2   22     -1.10      0.00
   14    2   22     -1.21      0.00
   15    2   22      1.14      0.00
   16    2   22     -0.86      0.00
   -1    3   22     -1.48      0.00
    0    3   22      9.67      0.00
    1    3   22    -12.21      0.00
    2    3   22     -5.54      0.00
    3    3   22     -0.28      0.00
    4    3   22      2.53      0.00
    5    3   22      2.81      0.00
    6    3   22      2.35      0.00
    7    3   22     -4.26      0.00
    8    3   22     -0.02      0.00
    9    3   22     -8.08      0.00
   10    3   22     -4.47      0.00
   11    3   22     -1.93      0.00
   12    3   22     -4.98      0.00
   13    3   22     -3.18      0.00
   14    3   22     -1.84      0.00
   15    3   22     -3.40      0.00
   16    3   22     -0.26      0.00
   -1    4   22      0.18      0.00
    0    4   22      5.09      0.00
    1    4   22     -2.80      0.00
    2    4   22      3.69      0.00
    3    4   22     -3.29      0.00
    4    4   22      1.50      0.00
    5    4   22      0.41      0.00
    6    4   22     -1.15      0.00
    7    4   22     -0.01      0.00
    8    4   22     -6.14      0.00
    9    4   22     -2.88      0.00
   10    4   22     -1.71      0.00
   11    4   22     -4.81      0.00
   12    4   22     -5.52      0.00
   13    4   22      3.25      0.00
   14    4   22     -3.19      0.00
   15    4   22     -6.50      0.00
   16    4   22     -4.11      0.00
    0    5   22      4.36      0.00
    1    5   22     -6.13      0.00
    2    5   22     -3.04      0.00
    3    5   22     -1.21      0.00
    4    5   22      4.48      0.00
    5    5   22      4.02      0.00
    6    5   22      1.99      0.00
    7    5   22     -9.68      0.00
    8    5   22     -7.74      0.00
    9    5   22     -4.66      0.00
   10    5   22     -6.16      0.00
   11    5   22     -0.57      0.00
   12    5   22     -6.38      0.00
   13    5   22     -2.07      0.00
   14    5   22     -2.66      0.00
   15    5   22     -5.20      0.00
   16    5   22     -0.82      0.00
    1    6   22     -3.74      0.00
    2    6   22      0.94      0.00
    3    6   22     -1.77      0.00
    4    6   22     -3.24      0.00
    5    6   22     -1.56      0.00
    6    6   22     -5.14      0.00
    7    6   22     -4.12      0.00
    8    6   22     -4.22      0.00
    9    6   22      1.38      0.00
   10    6   22      1.24      0.00
   11    6   22      3.34      0.00
   12    6   22     -1.50      0.00
   13    6   22      8.13      0.00
   14    6   22     -4.46      0.00
   15    6   22     -2.98      0.00
   16    6   22      1.01      0.00
    2    7   22      6.28      0.00
    3    7   22     -1.53      0.00
    4    7   22      5.18      0.00
    5    7   22     -3.97      0.00
    6    7   22     -5.42      0.00
    7    7   22     -0.18      0.00
    8    7   22     -7.51      0.00
    9    7   22     -2.14      0.00
   10    7   22     -6.66      0.00
   11    7   22     -2.98      0.00
   12    7   22      0.83      0.00
   13    7   22     -0.18      0.00
   14    7   22      4.22      0.00
   15    7   22      3.29      0.00
   16    7   22      2.71      0.00
    3    8   22      4.74      0.00
    4    8   22      0.33      0.00
    5    8   22     -2.68      0.00
    6    8   22      2.12      0.00
    7    8   22     -3.81      0.00
    8    8   22     -4.31      0.00
    9    8   22      0.71      0.00
   10    8   22     -3.71      0.00
   11    8   22      2.74      0.00
   12    8   22     -6.77      0.00
   13    8   22     -5.25      0.00
   14    8   22     -4.58      0.00
   15    8   22     -1.21      0.00
   16    8   22     -3.84      0.00
    4    9   22      1.85      0.00
    5    9   22     -4.56      0.00
    6    9   22      3.59      0.00
    7    9   22      1.39      0.00
    8    9   22     -8.37      0.00
    9    9   22     -0.88      0.00
   10    9   22     -3.68      0.00
   11    9   22     -0.41      0.00
   12    9   22      5.17      0.00
   13    9   22     -4.58      0.00
   14    9   22     -0.38      0.00
   15    9   22     -8.93      0.00
   16    9   22      0.63      0.00
    5   10   22      0.24      0.00
    6   10   22     -0.50      0.00
    7   10   22     -3.37      0.00
    8   10   22     -0.20      0.00
    9   10   22     -1.39      0.00
   10   10   22     -3.32      0.00
   11   10   22     -1.80      0.00
   12   10   22     -6.92      0.00
   13   10   22     -8.62      0.00
   14   10   22      0.32      0.00
   15   10   22     -4.93      0.00
   16   10   22     -1.24      0.00
    7   11   22     -2.31      0.00
    8   11   22      2.58      0.00
    9   11   22     -2.28      0.00
   10   11   22     11.16      0.00
   11   11   22      3.20      0.00
   12   11   22      0.85      0.00
   13   11   22    -10.54      0.00
   14   11   22      2.28      0.00
   15   11   22     -2.28      0.00
    9   12   22     -6.45      0.00
   10   12   22      2.90      0.00
   11   12   22     -2.63      0.00
   12   12   22     -5.73      0.00
   13   12   22     -1.08      0.00
    0   -9   23     -7.37      0.00
    1   -9   23      3.54      0.00
    2   -9   23      4.40      0.00
    3   -9   23      0.38      0.00
    4   -9   23      2.74      0.00
    5   -9   23      4.59      0.00
   -1   -8   23      5.11      0.00
    0   -8   23     -0.27      0.00
    1   -8   23      0.41      0.00
    2   -8   23     -0.76      0.00
    3   -8   23     -4.79      0.00
    4   -8   23     -1.12      0.00
    5   -8   23     -1.92      0.00
    6   -8   23      3.13      0.00
    7   -8   23     -0.94      0.00
   -2   -7   23     -4.32      0.00
   -1   -7   23      6.66      0.00
    0   -7   23     -0.78      0.00
    1   -7   23     -0.07      0.00
    2   -7   23      6.20      0.00
    3   -7   23      0.80      0.00
    4   -7   23      0.83      0.00
    5   -7   23      1.10      0.00
    6   -7   23      0.86      0.00
    7   -7   23      1.37      0.00
    8   -7   23      3.36      0.00
   -2   -6   23      5.14      0.00
   -1   -6   23      0.72      0.00
    0   -6   23      1.15      0.00
    1   -6   23     -0.26      0.00
    2   -6   23      1.55      0.00
    3   -6   23     -4.74      0.00
    4   -6   23      4.76      0.00
    5   -6   23     -2.44      0.00
    6   -6   23      4.92      0.00
    7   -6   23      1.45      0.00
    8   -6   23      1.15      0.00
    9   -6   23     -2.24      0.00
   -2   -5   23      5.26      0.00
   -1   -5   23     -1.37      0.00
    0   -5   23      5.83      0.00
    1   -5   23     -0.24      0.00
    2   -5   23      1.75      0.00
    3   -5   23      5.60      0.00
    4   -5   23      2.52      0.00
    5   -5   23     -3.48      0.00
    6   -5   23      0.48      0.00
    7   -5   23      1.12      0.00
    8   -5   23     -5.56      0.00
    9   -5   23     -0.49      0.00
   10   -5   23      2.30      0.00
   -2   -4   23      3.13      0.00
   -1   -4   23     -3.67      0.00
    0   -4   23     -1.07      0.00
    1   -4   23     -2.89      0.00
    2   -4   23      1.46      0.00
    3   -4   23     -3.50      0.00
    4   -4   23      4.23      0.00
    5   -4   23     -1.01      0.00
    6   -4   23     -8.76      0.00
    7   -4   23      0.59      0.00
    8   -4   23      3.28      0.00
    9   -4   23      1.34      0.00
   10   -4   23     -0.46      0.00
   11   -4   23     -2.58      0.00
   -2   -3   23      2.12      0.00
   -1   -3   23     -3.82      0.00
    0   -3   23      2.65      0.00
    1   -3   23     -1.44      0.00
    2   -3   23      1.80      0.00
    3   -3   23     -0.46      0.00
    4   -3   23      0.98      0.00
    5   -3   23     -0.55      0.00
    6   -3   23     -6.49      0.00
    7   -3   23      2.71      0.00
    8   -3   23     -8.89      0.00
    9   -3   23      0.60      0.00
   10   -3   23     -1.64      0.00
   11   -3   23     -1.03      0.00
   12   -3   23      8.50      0.00
   -2   -2   23     -5.27      0.00
   -1   -2   23     -2.09      0.00
    0   -2   23     -1.27      0.00
    1   -2   23     -7.59      0.00
    2   -2   23      4.36      0.00
    3   -2   23     -0.44      0.00
    4   -2   23     -0.72      0.00
    5   -2   23      4.26      0.00
    6   -2   23      6.19      0.00
    7   -2   23      0.10      0.00
    8   -2   23      2.00      0.00
    9   -2   23      3.59      0.00
   10   -2   23      3.66      0.00
   11   -2   23     -4.13      0.00
   12   -2   23      5.81      0.00
   13   -2   23     -7.17      0.00
   -2   -1   23     -1.92      0.00
   -1   -1   23     -1.36      0.00
    0   -1   23      2.91      0.00
    1   -1   23     -9.87      0.00
    2   -1   23      1.81      0.00
    3   -1   23     -2.18      0.00
    4   -1   23      2.88      0.00
    5   -1   23      1.68      0.00
    6   -1   23      2.88      0.00
    7   -1   23      1.19      0.00
    8   -1   23     -1.69      0.00
    9   -1   23      3.67      0.00
   10   -1   23     -0.70      0.00
   11   -1   23      3.02      0.00
   12   -1   23      0.72      0.00
   13   -1   23     -1.44      0.00
   -1    0   23     -1.88      0.00
    0    0   23      4.40      0.00
    1    0   23     -5.79      0.00
    2    0   23      4.27      0.00
    3    0   23     -0.87      0.00
    4    0   23     -1.28      0.00
    5    0   23     -2.20      0.00
    6    0   23      5.86      0.00
    7    0   23      1.38      0.00
    8    0   23      1.75      0.00
    9    0   23      2.11      0.00
   10    0   23      0.45      0.00
   11    0   23     -5.78      0.00
   12    0   23      1.91      0.00
   13    0   23     -3.94      0.00
   14    0   23     -3.74      0.00
   -1    1   23      1.44      0.00
    0    1   23      5.09      0.00
    1    1   23      0.79      0.00
    2    1   23      5.95      0.00
    3    1   23     -2.04      0.00
    4    1   23     -4.31      0.00
    5    1   23     -7.14      0.00
    6    1   23     -7.12      0.00
    7    1   23     -6.91      0.00
    8    1   23      1.13      0.00
    9    1   23      4.74      0.00
   10    1   23      0.45      0.00
   11    1   23      4.34      0.00
   12    1   23     -1.56      0.00
   13    1   23      1.47      0.00
   14    1   23     -3.32      0.00
    0    2   23      1.99      0.00
    1    2   23     -5.03      0.00
    2    2   23      3.15      0.00
    3    2   23      1.21      0.00
    4    2   23      4.75      0.00
    5    2   23     -1.85      0.00
    6    2   23     -2.27      0.00
    7    2   23     -4.42      0.00
    8    2   23      5.42      0.00
    9    2   23      1.70      0.00
   10    2   23      4.01      0.00
   11    2   23     -0.78      0.00
   12    2   23      1.53      0.00
   13    2   23      0.42      0.00
   14    2   23      0.39      0.00
   15    2   23      2.22      0.00
    0    3   23      8.52      0.00
    1    3   23     -1.52      0.00
    2    3   23      1.58      0.00
    3    3   23     -6.73      0.00
    4    3   23      1.86      0.00
    5    3   23     -5.43      0.00
    6    3   23     -3.22      0.00
    7    3   23     -1.29      0.00
    8    3   23      3.27      0.00
    9    3   23      9.56      0.00
   10    3   23     -0.23      0.00
   11    3   23      0.49      0.00
   12    3   23      3.32      0.00
   13    3   23      3.17      0.00
   14    3   23     -3.11      0.00
   15    3   23      5.34      0.00
    1    4   23     -6.25      0.00
    2    4   23      2.64      0.00
    3    4   23      1.74      0.00
    4    4   23      4.36      0.00
    5    4   23     -5.78      0.00
    6    4   23      0.14      0.00
    7    4   23     -5.62      0.00
    8    4   23      6.55      0.00
    9    4   23     -0.31      0.00
   10    4   23     -1.73      0.00
   11    4   23      1.62      0.00
   12    4   23     -5.26      0.00
   13    4   23     -2.05      0.00
   14    4   23      1.86      0.00
   15    4   23      1.03      0.00
    2    5   23      7.37      0.00
    3    5   23     -5.12      0.00
    4    5   23      1.65      0.00
    5    5   23     -1.87      0.00
    6    5   23     -0.57      0.00
    7    5   23      7.77      0.00
    8    5   23     -2.61      0.00
    9    5   23      6.34      0.00
   10    5   23      1.20      0.00
   11    5   23      4.06      0.00
   12    5   23      1.25      0.00
   13    5   23     -2.08      0.00
   14    5   23     -5.12      0.00
   15    5   23     -1.68      0.00
    2    6   23      1.87      0.00
    3    6   23     -1.78      0.00
    4    6   23      1.54      0.00
    5    6   23     -6.12      0.00
    6    6   23      1.23      0.00
    7    6   23     -5.43      0.00
    8    6   23     -3.90      0.00
    9    6   23     -0.51      0.00
   10    6   23      1.49      0.00
   11    6   23      5.27      0.00
   12    6   23     -0.26      0.00
   13    6   23      1.12      0.00
   14    6   23      1.58      0.00
   15    6   23      0.13      0.00
    3    7   23      3.14      0.00
    4    7   23     -0.42      0.00
    5    7   23      2.63      0.00
    6    7   23     -0.43      0.00
    7    7   23      2.45      0.00
    8    7   23     -0.50      0.00
    9    7   23      6.43      0.00
   10    7   23      6.30      0.00
   11    7   23      5.30      0.00
   12    7   23     -0.88      0.00
   13    7   23     -0.03      0.00
   14    7   23      1.87      0.00
   15    7   23      3.72      0.00
    5    8   23     -6.11      0.00
    6    8   23      5.25      0.00
    7    8   23     -0.02      0.00
    8    8   23     -1.21      0.00
    9    8   23      3.17      0.00
   10    8   23      2.14      0.00
   11    8   23      2.30      0.00
   12    8   23      2.67      0.00
   13    8   23     -1.64      0.00
   14    8   23     -0.57      0.00
   15    8   23      4.53      0.00
    6    9   23      1.47      0.00
    7    9   23      3.79      0.00
    8    9   23      1.20      0.00
    9    9   23      5.49      0.00
   10    9   23     -0.12      0.00
   11    9   23     -5.31      0.00
   12    9   23     -0.58      0.00
   13    9   23      0.04      0.00
   14    9   23      4.29      0.00
    8   10   23      4.84      0.00
    9   10   23      5.57      0.00
   10   10   23      6.31      0.00
   11   10   23     -6.70      0.00
   12   10   23     -0.11      0.00
   13   10   23     -5.35      0.00
   14   10   23     -1.51      0.00
    2   -7   24     -3.97      0.00
    3   -7   24     -2.11      0.00
    4   -7   24     -1.24      0.00
    5   -7   24     -3.49      0.00
    1   -6   24     -5.18      0.00
    2   -6   24      3.73      0.00
    3   -6   24     -2.15      0.00
    4   -6   24      0.68      0.00
    5   -6   24     -2.82      0.00
    6   -6   24     -0.21      0.00
    7   -6   24      1.44      0.00
    0   -5   24     -1.44      0.00
    1   -5   24     -0.66      0.00
    2   -5   24     -0.25      0.00
    3   -5   24      2.86      0.00
    4   -5   24      4.99      0.00
    5   -5   24     -1.34      0.00
    6   -5   24     -3.04      0.00
    7   -5   24      4.40      0.00
    8   -5   24     -2.08      0.00
    9   -5   24     -2.26      0.00
    0   -4   24      3.94      0.00
    1   -4   24     -0.68      0.00
    2   -4   24      0.92      0.00
    3   -4   24      1.25      0.00
    4   -4   24      0.42      0.00
    5   -4   24     -1.63      0.00
    6   -4   24     -3.36      0.00
    7   -4   24     -5.03      0.00
    8   -4   24     -0.71      0.00
    9   -4   24      1.95      0.00
   10   -4   24      4.21      0.00
    0   -3   24      1.17      0.00
    1   -3   24      1.05      0.00
    2   -3   24      6.28      0.00
    3   -3   24      2.23      0.00
    4   -3   24      0.50      0.00
    5   -3   24      2.36      0.00
    6   -3   24     -4.96      0.00
    7   -3   24     -2.00      0.00
    8   -3   24      4.99      0.00
    9   -3   24     -4.42      0.00
   10   -3   24     -0.55      0.00
   11   -3   24     -5.30      0.00
    0   -2   24      6.56      0.00
    1   -2   24     -6.02      0.00
    2   -2   24      3.05      0.00
    3   -2   24      3.20      0.00
    4   -2   24      2.54      0.00
    5   -2   24     -3.13      0.00
    6   -2   24      7.36      0.00
    7   -2   24     -0.12      0.00
    8   -2   24      3.45      0.00
    9   -2   24     -3.16      0.00
   10   -2   24      5.60      0.00
   11   -2   24      0.52      0.00
    0   -1   24      9.34      0.00
    1   -1   24     -4.63      0.00
    2   -1   24     -0.42      0.00
    3   -1   24     -1.45      0.00
    4   -1   24      0.66      0.00
    5   -1   24      2.38      0.00
    6   -1   24     13.22      0.00
    7   -1   24      1.45      0.00
    8   -1   24      3.58      0.00
    9   -1   24     -1.86      0.00
   10   -1   24      1.02      0.00
   11   -1   24     -3.14      0.00
   12   -1   24      1.70      0.00
    1    0   24      0.33      0.00
    2    0   24     -2.29      0.00
    3    0   24     -0.32      0.00
    4    0   24      0.50      0.00
    5    0   24     -7.72      0.00
    6    0   24      7.74      0.00
    7    0   24     -0.16      0.00
    8    0   24      8.40      0.00
    9    0   24     -1.33      0.00
   10    0   24      4.65      0.00
   11    0   24     -0.72      0.00
   12    0   24      0.38      0.00
   13    0   24      3.34      0.00
    1    1   24     -2.71      0.00
    2    1   24      8.05      0.00
    3    1   24      2.12      0.00
    4    1   24      2.77      0.00
    5    1   24     -6.48      0.00
    6    1   24      2.09      0.00
    7    1   24     -1.75      0.00
    8    1   24     -1.06      0.00
    9    1   24     -3.05      0.00
   10    1   24     -1.62      0.00
   11    1   24      0.31      0.00
   12    1   24      5.93      0.00
   13    1   24      5.78      0.00
    1    2   24      1.78      0.00
    2    2   24      0.22      0.00
    3    2   24     -4.06      0.00
    4    2   24      0.08      0.00
    5    2   24     -4.03      0.00
    6    2   24      4.61      0.00
    7    2   24     -3.65      0.00
    8    2   24      4.84      0.00
    9    2   24     -1.39      0.00
   10    2   24     -0.27      0.00
   11    2   24      0.82      0.00
   12    2   24      4.28      0.00
   13    2   24      0.25      0.00
    2    3   24      5.71      0.00
    3    3   24     -3.86      0.00
    4    3   24      2.10      0.00
    5    3   24     -4.00      0.00
    6    3   24      2.25      0.00
    7    3   24      0.58      0.00
    8    3   24     -1.89      0.00
    9    3   24     -1.79      0.00
   10    3   24     -1.13      0.00
   11    3   24      0.91      0.00
   12    3   24     -0.61      0.00
   13    3   24      3.46      0.00
   14    3   24     -1.73      0.00
    3    4   24     -7.37      0.00
    4    4   24      4.01      0.00
    5    4   24     -0.73      0.00
    6    4   24      2.26      0.00
    7    4   24      2.89      0.00
    8    4   24     -6.71      0.00
    9    4   24     -3.81      0.00
   10    4   24     -5.36      0.00
   11    4   24     -2.27      0.00
   12    4   24      1.06      0.00
   13    4   24     -8.79      0.00
   14    4   24     -2.08      0.00
    4    5   24     -1.02      0.00
    5    5   24      2.83      0.00
    6    5   24      2.35      0.00
    7    5   24     -0.17      0.00
    8    5   24     -3.59      0.00
    9    5   24     -6.33      0.00
   10    5   24     -2.51      0.00
   11    5   24      1.56      0.00
   12    5   24     -1.20      0.00
   13    5   24     -4.17      0.00
   14    5   24      2.16      0.00
    5    6   24      2.02      0.00
    6    6   24      2.01      0.00
    7    6   24      0.91      0.00
    8    6   24     -8.03      0.00
    9    6   24     -7.74      0.00
   10    6   24      2.11      0.00
   11    6   24     -0.38      0.00
   12    6   24     -0.99      0.00
   13    6   24     -6.93      0.00
   14    6   24      2.16      0.00
    6    7   24      3.93      0.00
    7    7   24     -6.98      0.00
    8    7   24     -4.01      0.00
    9    7   24     -7.42      0.00
   10    7   24      0.86      0.00
   11    7   24      5.80      0.00
   12    7   24     -0.84      0.00
   13    7   24     -3.04      0.00
    7    8   24     -4.96      0.00
    8    8   24     -0.56      0.00
    9    8   24     -6.63      0.00
   10    8   24     -1.45      0.00
   11    8   24     -1.26      0.00
   12    8   24      1.59      0.00
   13    8   24     -0.13      0.00
    4   -4   25      1.07      0.00
    5   -4   25      0.09      0.00
    6   -4   25     -3.02      0.00
    7   -4   25     -0.88      0.00
    3   -3   25      1.09      0.00
    4   -3   25     -2.39      0.00
    5   -3   25      1.55      0.00
    6   -3   25     -1.84      0.00
    7   -3   25     -6.00      0.00
    8   -3   25      2.92      0.00
    3   -2   25      0.42      0.00
    4   -2   25      6.54      0.00
    5   -2   25      0.17      0.00
    6   -2   25      2.89      0.00
    7   -2   25     -4.44      0.00
    8   -2   25      6.38      0.00
    9   -2   25     -7.66      0.00
    3   -1   25      2.53      0.00
    4   -1   25      1.44      0.00
    5   -1   25     -3.29      0.00
    6   -1   25      8.59      0.00
    7   -1   25      6.37      0.00
    8   -1   25      6.05      0.00
    9   -1   25     -1.11      0.00
   10   -1   25      7.78      0.00
    3    0   25     -1.90      0.00
    4    0   25      4.15      0.00
    5    0   25     -6.87      0.00
    6    0   25      6.83      0.00
    7    0   25     -4.05      0.00
    8    0   25      1.05      0.00
    9    0   25     -4.11      0.00
   10    0   25      8.08      0.00
   11    0   25     -1.67      0.00
    3    1   25      1.98      0.00
    4    1   25      3.04      0.00
    5    1   25     -1.16      0.00
    6    1   25      4.43      0.00
    7    1   25     -1.16      0.00
    8    1   25      2.31      0.00
    9    1   25     -0.82      0.00
   10    1   25      4.21      0.00
   11    1   25     -2.19      0.00
    4    2   25      1.31      0.00
    5    2   25     -7.74      0.00
    6    2   25      4.43      0.00
    7    2   25     -7.16      0.00
    8    2   25     -1.33      0.00
    9    2   25      1.32      0.00
   10    2   25      7.68      0.00
   11    2   25     -1.62      0.00
    5    3   25      0.41      0.00
    6    3   25     -1.24      0.00
    7    3   25     -1.53      0.00
    8    3   25     -1.84      0.00
    9    3   25      6.25      0.00
   10    3   25      5.28      0.00
   11    3   25      1.09      0.00
   12    3   25     -2.70      0.00
    5    4   25      1.20      0.00
    6    4   25     -3.10      0.00
    7    4   25     -3.85      0.00
    8    4   25      4.21      0.00
    9    4   25      1.89      0.00
   10    4   25      6.55      0.00
   11    4   25     -4.53      0.00
   12    4   25      1.97      0.00
    7    5   25      0.20      0.00
    8    5   25     -2.19      0.00
    9    5   25      4.68      0.00
   10    5   25      1.33      0.00
   11    5   25     -3.98      0.00
    9    6   25     -3.93      0.00
   10    6   25      6.38      0.00
    1    0    0      2.63      0.00
    0    1    0    137.57      0.00
    1    1    0    -15.13      0.00
   19    2    0     -1.70      0.00
  -16    4    0     -0.77      0.00
   20    5    0     -1.96      0.00
  -15    6    0     -1.48      0.00
   20    6    0     -0.49      0.00
  -12   10    0      2.22      0.00
  -11   11    0     -1.56      0.00
    5   14    0     -5.48      0.00
   -7   15    0     -3.74      0.00
   20   15    0      2.30      0.00
   -6   16    0      0.24      0.00
   20   16    0     -1.78      0.00
   -5   17    0      2.10      0.00
   19   18    0      1.53      0.00
   -2   19    0     -0.48      0.00
   18   19    0      1.45      0.00
    0   20    0     -1.07      0.00
    2   21    0     -0.39      0.00
   16   21    0     -0.41      0.00
    5   22    0     -1.28      0.00
   14   22    0     -2.58      0.00
  -14  -22    1      2.01      0.00
   -5  -22    1     -2.80      0.00
   -4  -22    1     -0.61      0.00
  -16  -21    1      1.30      0.00
   -2  -21    1     -1.70      0.00
  -17  -20    1      1.68      0.00
    0  -20    1      7.37      0.00
  -18  -19    1     -1.46      0.00
    2  -19    1      0.72      0.00
  -19  -17    1      1.29      0.00
    5  -17    1     -2.46      0.00
  -20  -15    1      0.80      0.00
   -5  -15    1      3.33      0.00
  -20  -14    1     -0.44      0.00
   13   -9    1      0.06      0.00
  -20   -7    1      1.16      0.00
  -19   -3    1     -0.51      0.00
   17   -3    1      2.42      0.00
   -1   -1    1     51.68      0.00
    0   -1    1    122.27      0.00
   18   -1    1     -1.69      0.00
  -18    0    1     -1.42      0.00
    0    0    1     16.62      0.00
    1    0    1    100.62      0.00
    0    1    1    123.40      0.00
    1    1    1    -89.82      0.00
  -17    2    1      1.88      0.00
  -16    4    1     -1.04      0.00
   20    4    1     -1.95      0.00
   20    5    1     -0.20      0.00
  -14    7    1      1.70      0.00
   21    9    1      0.30      0.00
   21   10    1     -0.28      0.00
  -11   11    1     -0.44      0.00
   21   11    1      1.63      0.00
  -10   12    1      4.02      0.00
   21   12    1      1.04      0.00
   -9   13    1     -2.03      0.00
   21   13    1      2.60      0.00
   -8   14    1      0.23      0.00
   -7   15    1      0.38      0.00
   20   16    1     -0.89      0.00
   -3   18    1     -3.14      0.00
   19   18    1     -0.01      0.00
    0   20    1      2.91      0.00
    2   21    1     -0.51      0.00
   16   21    1     -2.51      0.00
    5   22    1     -2.98      0.00
   14   22    1     -1.52      0.00
   15   22    1     -0.20      0.00
  -14  -22    2      0.33      0.00
  -13  -22    2     -1.09      0.00
   -5  -22    2     -1.90      0.00
   -4  -22    2     -4.80      0.00
  -15  -21    2     -2.38      0.00
   -2  -21    2      0.77      0.00
    2  -19    2     -1.82      0.00
  -18  -18    2      1.74      0.00
    4  -18    2     -0.34      0.00
  -19  -17    2     -0.78      0.00
    5  -17    2     -1.52      0.00
  -19  -16    2      2.01      0.00
  -17  -16    2     -0.80      0.00
  -11  -16    2     -0.76      0.00
  -20  -13    2     -0.45      0.00
  -20  -12    2     -1.14      0.00
  -20  -11    2      1.64      0.00
  -20  -10    2     -3.17      0.00
  -20   -9    2      1.29      0.00
  -20   -8    2      0.84      0.00
   14   -8    2     -0.20      0.00
   16   -5    2     -1.88      0.00
  -19   -4    2      0.06      0.00
  -18   -1    2      0.35      0.00
  -17    1    2      0.49      0.00
   19    1    2     -0.24      0.00
  -16    3    2      4.69      0.00
   20    4    2      0.25      0.00
  -15    5    2     -5.88      0.00
  -13    8    2      0.25      0.00
   21    8    2     -1.79      0.00
   21    9    2     -0.77      0.00
   21   10    2     -3.15      0.00
   21   11    2      1.53      0.00
   12   12    2     -1.56      0.00
   21   12    2     -0.19      0.00
   21   13    2     -0.88      0.00
   21   14    2      1.73      0.00
   -4   17    2     -2.94      0.00
   20   17    2      3.44      0.00
   -3   18    2      1.08      0.00
   -1   19    2     -1.73      0.00
   19   19    2      4.04      0.00
   18   20    2     -1.28      0.00
   17   21    2      3.32      0.00
    5   22    2     -3.19      0.00
   15   22    2     -1.94      0.00
  -13  -22    3     -0.33      0.00
  -12  -22    3      1.47      0.00
   -5  -22    3      2.96      0.00
   -4  -22    3      3.50      0.00
  -15  -21    3     -1.89      0.00
   -2  -21    3     -3.92      0.00
  -16  -20    3     -3.61      0.00
  -17  -19    3      2.79      0.00
  -18  -18    3      2.33      0.00
    4  -18    3      1.37      0.00
  -19  -16    3     -1.46      0.00
  -19  -15    3      2.14      0.00
    8  -15    3      0.63      0.00
    9  -14    3     -4.32      0.00
   10  -13    3     -2.76      0.00
   11  -12    3      4.60      0.00
   15   -7    3     -2.69      0.00
  -19   -5    3     -1.16      0.00
   17   -4    3      1.99      0.00
  -18   -2    3      1.43      0.00
   18   -2    3      0.67      0.00
   19    0    3     -1.69      0.00
   20    3    3      1.05      0.00
  -14    6    3     -1.70      0.00
   13    7    3     -2.62      0.00
   21    7    3     -2.21      0.00
  -12    9    3      0.39      0.00
   17    9    3     -4.09      0.00
  -11   10    3      0.73      0.00
   21   14    3     -1.01      0.00
   21   15    3      2.44      0.00
   -5   16    3      0.99      0.00
   -4   17    3     -1.76      0.00
   20   17    3      1.47      0.00
   -1   19    3      2.39      0.00
   19   19    3     -1.58      0.00
    1   20    3      3.69      0.00
   18   20    3      0.65      0.00
    3   21    3      0.79      0.00
   14   21    3      0.13      0.00
   17   21    3      3.19      0.00
    6   22    3     -0.92      0.00
   13   22    3     -0.24      0.00
   14   22    3      1.68      0.00
   15   22    3      0.50      0.00
  -12  -22    4     -0.17      0.00
  -11  -22    4      2.48      0.00
   -5  -22    4     -1.27      0.00
  -14  -21    4      0.76      0.00
   -2  -21    4     -1.96      0.00
    4  -18    4     -1.63      0.00
  -18  -17    4      4.52      0.00
    8  -15    4     -0.50      0.00
  -19  -14    4      0.43      0.00
    9  -14    4     -2.47      0.00
  -19  -13    4     -0.94      0.00
   10  -13    4      1.20      0.00
  -19  -12    4      1.59      0.00
   11  -12    4      3.54      0.00
   12  -11    4     -0.15      0.00
   13  -10    4      1.70      0.00
  -19   -8    4     -1.01      0.00
  -19   -7    4      0.57      0.00
   15   -7    4     -1.22      0.00
   17   -4    4      1.07      0.00
  -18   -3    4      0.04      0.00
   18   -2    4      1.52      0.00
  -17    0    4      1.17      0.00
   19    0    4      2.33      0.00
  -16    2    4      3.28      0.00
   20    2    4     -0.50      0.00
  -15    4    4      1.59      0.00
   21    6    4     -1.12      0.00
  -13    7    4     -0.17      0.00
  -10   11    4      1.35      0.00
   -9   12    4     -3.51      0.00
   -8   13    4      0.69      0.00
   -7   14    4     -3.41      0.00
   -6   15    4      0.03      0.00
   21   15    4     -1.10      0.00
   -2   18    4     -1.40      0.00
   20   18    4     -1.54      0.00
   19   19    4     -1.48      0.00
    1   20    4     -0.27      0.00
   18   20    4      1.16      0.00
    3   21    4     -1.91      0.00
   17   21    4     -0.20      0.00
    6   22    4     -2.03      0.00
    7   22    4      1.39      0.00
   14   22    4      0.48      0.00
   15   22    4     -1.64      0.00
  -11  -22    5     -1.93      0.00
  -10  -22    5      1.31      0.00
   -6  -22    5      0.60      0.00
   -5  -22    5      3.04      0.00
  -14  -21    5     -2.42      0.00
   -2  -21    5      2.63      0.00
  -15  -20    5     -1.45      0.00
  -16  -19    5     -4.14      0.00
  -17  -18    5      0.10      0.00
    4  -18    5     -0.27      0.00
  -18  -16    5      1.49      0.00
    7  -16    5     -1.27      0.00
  -18  -15    5     -0.92      0.00
    8  -15    5     -0.47      0.00
    9  -14    5     -0.07      0.00
   10  -13    5     -2.84      0.00
   11  -12    5     -1.18      0.00
  -19  -11    5     -1.38      0.00
   12  -11    5      4.97      0.00
  -19  -10    5     -2.18      0.00
   13  -10    5     -1.49      0.00
   16   -6    5     -3.84      0.00
  -18   -5    5      2.22      0.00
  -18   -4    5      0.02      0.00
   17   -4    5     -1.43      0.00
  -17   -1    5      0.61      0.00
  -16    1    5      1.55      0.00
   20    2    5      1.69      0.00
  -15    3    5      1.25      0.00
  -14    5    5     -6.77      0.00
   21    5    5      1.55      0.00
  -12    8    5     -0.55      0.00
  -11    9    5      3.36      0.00
   21   15    5      0.12      0.00
   21   16    5     -2.97      0.00
   -3   17    5     -4.33      0.00
   20   18    5     -2.85      0.00
    0   19    5      3.11      0.00
   19   19    5      3.23      0.00
    2   20    5      2.39      0.00
   18   20    5      2.16      0.00
    4   21    5     -2.29      0.00
   17   21    5     -0.93      0.00
    7   22    5     -0.16      0.00
   14   22    5     -2.20      0.00
   15   22    5     -2.22      0.00
  -10  -22    6      2.10      0.00
   -9  -22    6     -2.40      0.00
   -8  -22    6     -3.40      0.00
   -7  -22    6     -2.71      0.00
   -6  -22    6     -1.91      0.00
  -13  -21    6     -0.76      0.00
   -2  -21    6     -1.04      0.00
  -14  -20    6      0.93      0.00
    0  -20    6     -2.51      0.00
    2  -19    6     -0.29      0.00
  -16  -18    6     -2.02      0.00
    4  -18    6     -2.22      0.00
  -17  -17    6     -1.34      0.00
    7  -16    6      1.49      0.00
    8  -15    6      0.11      0.00
  -18  -14    6     -1.48      0.00
    9  -14    6      1.53      0.00
  -18  -13    6      2.64      0.00
   12  -11    6      3.33      0.00
   13  -10    6     -0.40      0.00
   14   -9    6     -0.31      0.00
  -18   -7    6     -0.08      0.00
  -18   -6    6      1.30      0.00
   16   -6    6     -0.99      0.00
  -17   -3    6      3.71      0.00
   18   -3    6      0.35      0.00
   19   -1    6      1.37      0.00
  -16    0    6      0.47      0.00
  -15    2    6     -1.91      0.00
   20    2    6     -0.51      0.00
  -14    4    6      1.32      0.00
   21    5    6      2.48      0.00
  -12    7    6     -1.36      0.00
  -10   10    6      0.14      0.00
   -9   11    6     -0.95      0.00
   -8   12    6     -3.07      0.00
   -7   13    6      1.51      0.00
   -6   14    6     -0.81      0.00
   -5   15    6      1.31      0.00
   -4   16    6     -1.65      0.00
   21   16    6      0.90      0.00
   -1   18    6      1.01      0.00
   20   18    6     -1.00      0.00
   19   19    6      0.60      0.00
    2   20    6      1.19      0.00
   18   20    6      0.27      0.00
    5   21    6     -1.67      0.00
   17   21    6     -0.50      0.00
    8   22    6     -0.35      0.00
    9   22    6     -2.27      0.00
   13   22    6     -1.91      0.00
   14   22    6     -2.26      0.00
   15   22    6     -1.47      0.00
  -12  -21    7      0.37      0.00
   -3  -21    7      1.63      0.00
   -2  -21    7     -0.21      0.00
  -14  -20    7     -2.09      0.00
    0  -20    7     -0.16      0.00
  -15  -19    7      1.52      0.00
    2  -19    7      3.92      0.00
    4  -18    7      1.55      0.00
  -17  -16    7     -0.06      0.00
    7  -16    7     -2.00      0.00
  -17  -15    7     -0.36      0.00
    8  -15    7     -1.26      0.00
  -18  -11    7      1.79      0.00
  -18  -10    7     -0.46      0.00
   13  -10    7      0.44      0.00
  -18   -9    7     -0.68      0.00
   14   -9    7      2.33      0.00
   16   -6    7     -0.32      0.00
  -17   -4    7     -0.43      0.00
   18   -3    7      0.41      0.00
  -16   -1    7     -0.34      0.00
   19   -1    7     -2.41      0.00
  -15    1    7      1.07      0.00
  -14    3    7      4.18      0.00
   21    4    7      2.04      0.00
  -13    5    7      0.33      0.00
   21    5    7      4.09      0.00
  -11    8    7     -1.93      0.00
   21   16    7      3.70      0.00
   -2   17    7     -0.32      0.00
   20   18    7     -2.06      0.00
    1   19    7     -3.49      0.00
   19   19    7     -1.42      0.00
    3   20    7      5.24      0.00
   18   20    7     -0.73      0.00
    5   21    7     -0.02      0.00
    6   21    7     -2.75      0.00
   17   21    7     -1.34      0.00
    9   22    7     -2.45      0.00
   10   22    7      0.55      0.00
   11   22    7     -0.44      0.00
   12   22    7      1.17      0.00
   13   22    7      1.99      0.00
   14   22    7      1.79      0.00
  -11  -21    8     -2.03      0.00
  -10  -21    8      1.30      0.00
   -4  -21    8     -2.52      0.00
   -3  -21    8      0.10      0.00
  -13  -20    8      0.00      0.00
    0  -20    8     -1.09      0.00
  -14  -19    8      3.93      0.00
    2  -19    8      0.66      0.00
  -15  -18    8      0.43      0.00
    4  -18    8     -1.24      0.00
  -16  -16    8      0.09      0.00
    7  -16    8      0.23      0.00
    8  -15    8     -2.72      0.00
  -17  -14    8     -1.32      0.00
    9  -14    8     -0.22      0.00
  -17  -13    8     -1.12      0.00
   13  -10    8      1.43      0.00
   14   -9    8      1.21      0.00
  -17   -7    8     -3.65      0.00
  -17   -6    8      2.60      0.00
   16   -6    8      1.12      0.00
   18   -3    8     -2.59      0.00
  -16   -2    8      1.59      0.00
   19   -1    8      3.29      0.00
  -15    0    8     -0.76      0.00
   20    1    8      0.22      0.00
  -14    2    8      4.63      0.00
  -13    4    8     -0.14      0.00
   21    4    8      1.75      0.00
  -12    6    8     -0.62      0.00
  -11    7    8      0.29      0.00
   -9   10    8     -1.66      0.00
   -8   11    8     -1.11      0.00
   -7   12    8     -1.08      0.00
   -6   13    8     -1.19      0.00
   -5   14    8     -1.32      0.00
   -4   15    8      3.57      0.00
   -3   16    8      4.02      0.00
   19   16    8      6.96      0.00
   21   16    8      2.26      0.00
    0   18    8     -2.43      0.00
   20   18    8     -3.31      0.00
    2   19    8      4.93      0.00
   19   19    8     -1.12      0.00
    4   20    8     -0.49      0.00
   18   20    8      5.77      0.00
    6   21    8      1.96      0.00
    7   21    8      1.40      0.00
   16   21    8      4.90      0.00
   10   22    8     -2.69      0.00
   11   22    8     -0.46      0.00
   12   22    8     -1.42      0.00
   13   22    8     -0.26      0.00
   -9  -21    9     -1.95      0.00
   -8  -21    9      1.83      0.00
   -7  -21    9      2.22      0.00
   -6  -21    9      3.60      0.00
   -5  -21    9      1.11      0.00
   -4  -21    9     -1.01      0.00
  -12  -20    9     -2.33      0.00
   -1  -20    9      1.17      0.00
  -13  -19    9      2.02      0.00
    2  -19    9     -0.93      0.00
  -14  -18    9     -2.43      0.00
  -15  -17    9     -0.80      0.00
    5  -17    9     -0.23      0.00
  -16  -15    9     -1.82      0.00
    8  -15    9     -2.22      0.00
    9  -14    9     -1.21      0.00
   13  -10    9      1.42      0.00
   14   -9    9     -0.06      0.00
   16   -6    9      0.61      0.00
   17   -5    9     -2.98      0.00
  -16   -4    9      0.34      0.00
   18   -3    9      0.31      0.00
  -15   -1    9      0.35      0.00
   19   -1    9     -0.44      0.00
  -14    1    9      2.32      0.00
   20    1    9     -1.59      0.00
  -13    3    9     -2.88      0.00
   21    4    9     -1.76      0.00
  -12    5    9      2.17      0.00
  -10    8    9      3.00      0.00
   -2   16    9     -0.08      0.00
   21   16    9      2.92      0.00
   -1   17    9      0.65      0.00
    1   18    9     -4.80      0.00
   20   18    9     -1.68      0.00
   19   19    9     -4.96      0.00
    5   20    9      1.27      0.00
   18   20    9     -4.30      0.00
    7   21    9      0.23      0.00
    8   21    9     -2.84      0.00
   15   21    9      1.03      0.00
   16   21    9      0.55      0.00
  -11  -20   10      0.89      0.00
  -10  -20   10     -1.48      0.00
   -2  -20   10     -1.47      0.00
   -1  -20   10     -1.42      0.00
  -12  -19   10     -1.11      0.00
    1  -19   10     -0.19      0.00
  -13  -18   10      4.12      0.00
    3  -18   10      3.31      0.00
  -14  -17   10     -1.24      0.00
    5  -17   10      1.26      0.00
  -15  -16   10      0.50      0.00
  -15  -15   10      1.07      0.00
    8  -15   10      0.59      0.00
    9  -14   10     -3.84      0.00
  -16  -13   10     -0.31      0.00
   10  -13   10      0.29      0.00
  -16  -12   10     -2.00      0.00
   11  -12   10      2.31      0.00
  -16  -11   10     -3.99      0.00
   12  -11   10     -3.84      0.00
   13  -10   10     -2.34      0.00
   14   -9   10      1.10      0.00
  -16   -8   10     -2.89      0.00
  -16   -7   10      0.31      0.00
  -16   -6   10     -2.03      0.00
   16   -6   10     -1.21      0.00
  -15   -3   10     -0.20      0.00
   18   -3   10     -0.30      0.00
   19   -1   10      0.43      0.00
  -14    0   10     -1.10      0.00
   20    1   10     -3.12      0.00
  -13    2   10      0.49      0.00
  -12    4   10      3.28      0.00
   21    4   10      1.56      0.00
  -10    7   10     -0.81      0.00
   -7   11   10     -1.12      0.00
   -6   12   10     -2.44      0.00
   -5   13   10     -0.02      0.00
   -4   14   10      2.70      0.00
   -3   15   10      1.56      0.00
   21   15   10     -0.41      0.00
   21   16   10      2.33      0.00
    0   17   10     -0.15      0.00
    3   19   10      0.19      0.00
    6   20   10     -1.32      0.00
   17   20   10      1.02      0.00
    8   21   10     -0.20      0.00
    9   21   10      5.70      0.00
   10   21   10     -0.51      0.00
   14   21   10     -0.90      0.00
   15   21   10      1.27      0.00
   -9  -20   11      1.37      0.00
   -8  -20   11     -2.20      0.00
   -3  -20   11     -0.24      0.00
   -2  -20   11      1.09      0.00
  -11  -19   11     -1.00      0.00
    1  -19   11     -0.38      0.00
  -12  -18   11     -1.27      0.00
    3  -18   11     -0.59      0.00
  -13  -17   11     -0.87      0.00
    5  -17   11     -1.74      0.00
  -14  -16   11      0.24      0.00
    6  -16   11      1.09      0.00
  -15  -14   11     -2.32      0.00
    9  -14   11     -1.38      0.00
  -15  -13   11      2.28      0.00
   10  -13   11      0.53      0.00
   11  -12   11     -1.32      0.00
   12  -11   11     -3.72      0.00
   13  -10   11      0.92      0.00
   14   -9   11     -0.44      0.00
   16   -6   11      0.03      0.00
  -15   -5   11     -0.01      0.00
   18   -3   11     -1.48      0.00
   19   -1   11      0.76      0.00
  -13    1   11     -1.69      0.00
   20    1   11     -0.28      0.00
  -12    3   11      4.01      0.00
   21    4   11     -1.16      0.00
  -11    5   11     -0.06      0.00
  -10    6   11      0.10      0.00
   -8    9   11      4.39      0.00
   -5   12   11     -1.34      0.00
   -2   15   11      1.40      0.00
   21   15   11     -5.54      0.00
   -1   16   11     -2.66      0.00
    1   17   11      3.59      0.00
   20   17   11      3.09      0.00
    2   18   11     -2.12      0.00
   19   18   11     -2.19      0.00
    4   19   11     -2.78      0.00
   18   19   11     -0.52      0.00
    7   20   11     -4.01      0.00
   17   20   11     -1.61      0.00
   10   21   11     -1.07      0.00
   11   21   11      3.05      0.00
   12   21   11     -0.61      0.00
   13   21   11     -1.18      0.00
   14   21   11      1.43      0.00
   -7  -20   12     -2.41      0.00
   -6  -20   12      4.16      0.00
   -5  -20   12     -0.41      0.00
   -4  -20   12      4.57      0.00
  -10  -19   12     -0.54      0.00
   -9  -19   12      0.84      0.00
   -1  -19   12      0.27      0.00
    0  -19   12     -0.57      0.00
  -11  -18   12     -0.33      0.00
    2  -18   12      0.93      0.00
  -12  -17   12      1.07      0.00
    4  -17   12      1.64      0.00
  -13  -16   12     -4.07      0.00
    6  -16   12     -0.27      0.00
  -14  -14   12      1.57      0.00
   10  -13   12     -0.68      0.00
   11  -12   12      0.81      0.00
  -15  -11   12     -2.81      0.00
   12  -11   12      1.35      0.00
  -15  -10   12     -1.88      0.00
   13  -10   12     -0.72      0.00
  -15   -9   12     -3.12      0.00
  -15   -8   12      2.26      0.00
   16   -6   12     -0.06      0.00
  -14   -4   12      1.98      0.00
   17   -4   12      0.77      0.00
  -14   -3   12     -2.16      0.00
   18   -3   12     -3.00      0.00
   19   -1   12     -1.33      0.00
   20    1   12      3.83      0.00
  -12    2   12     -0.46      0.00
   21    4   12     -0.79      0.00
   21    5   12      1.73      0.00
   -9    7   12     -1.35      0.00
   -8    8   12     -4.21      0.00
   21   14   12     -1.43      0.00
   21   15   12      0.73      0.00
    0   16   12     -0.18      0.00
   20   17   12     -0.42      0.00
    3   18   12      3.50      0.00
   19   18   12     -2.27      0.00
    5   19   12      4.92      0.00
   18   19   12      0.62      0.00
    8   20   12      5.14      0.00
    9   20   12      3.16      0.00
   15   20   12      4.40      0.00
   16   20   12     -1.51      0.00
   -8  -19   13      0.81      0.00
   -7  -19   13     -1.99      0.00
   -2  -19   13     -1.04      0.00
   -1  -19   13      3.25      0.00
  -10  -18   13     -2.23      0.00
    1  -18   13      3.13      0.00
    2  -18   13     -0.51      0.00
  -11  -17   13     -1.94      0.00
    4  -17   13     -2.56      0.00
  -12  -16   13      1.13      0.00
  -13  -15   13      1.01      0.00
    7  -15   13      0.10      0.00
  -13  -14   13      3.58      0.00
  -14  -12   13      3.00      0.00
  -14  -11   13      0.66      0.00
  -14  -10   13     -2.11      0.00
  -14   -9   13     -0.60      0.00
  -14   -8   13      2.28      0.00
  -14   -7   13     -0.61      0.00
   15   -7   13     -0.97      0.00
  -14   -6   13      0.43      0.00
   16   -6   13     -0.21      0.00
   17   -4   13     -0.78      0.00
  -13   -2   13      0.24      0.00
   19   -1   13     -0.73      0.00
  -12    0   13      2.95      0.00
   20    2   13      2.50      0.00
  -10    4   13      0.25      0.00
   21    5   13     -3.66      0.00
   -9    6   13      2.79      0.00
   -6   10   13     -2.19      0.00
   -5   11   13      2.56      0.00
   -4   12   13     -0.64      0.00
   -3   13   13     -0.10      0.00
   21   13   13     -1.79      0.00
   -2   14   13      1.92      0.00
   21   14   13     -1.89      0.00
    1   16   13     -1.88      0.00
   20   16   13     -1.76      0.00
    4   18   13     -1.79      0.00
    7   19   13      3.21      0.00
   17   19   13      5.63      0.00
   10   20   13     -0.19      0.00
   11   20   13     -3.04      0.00
   12   20   13      0.05      0.00
   13   20   13      2.94      0.00
   14   20   13     -2.17      0.00
   15   20   13      1.85      0.00
   -5  -19   14      0.84      0.00
   -4  -19   14     -0.62      0.00
   -8  -18   14      1.17      0.00
    0  -18   14     -2.44      0.00
    1  -18   14     -1.12      0.00
  -10  -17   14      3.19      0.00
    3  -17   14      3.11      0.00
  -11  -16   14      0.46      0.00
    5  -16   14      0.28      0.00
  -12  -15   14     -2.83      0.00
    8  -14   14      0.31      0.00
    9  -13   14     -1.13      0.00
  -13  -12   14     -0.86      0.00
   14   -8   14     -0.60      0.00
   15   -7   14     -1.67      0.00
  -13   -6   14      1.06      0.00
  -13   -5   14      2.41      0.00
   17   -4   14     -2.50      0.00
   18   -2   14      1.38      0.00
  -12   -1   14      2.12      0.00
   19    0   14      0.56      0.00
  -11    1   14     -0.40      0.00
   20    2   14     -1.76      0.00
  -10    3   14     -2.32      0.00
   -9    5   14     -2.49      0.00
   21    5   14     -0.43      0.00
   -8    6   14     -1.25      0.00
   21    6   14     -0.90      0.00
   -6    9   14     -0.58      0.00
   -5   10   14     -1.41      0.00
   -4   11   14     -7.30      0.00
   21   11   14     -0.27      0.00
   -3   12   14      2.42      0.00
   21   12   14      3.42      0.00
   -2   13   14     -3.31      0.00
   21   13   14     -3.59      0.00
   -1   14   14      3.04      0.00
   20   15   14     -1.77      0.00
    2   16   14     -2.41      0.00
   19   17   14     -2.89      0.00
   18   18   14      2.11      0.00
    8   19   14      2.03      0.00
    9   19   14      2.84      0.00
   16   19   14     -0.74      0.00
   -6  -18   15     -0.75      0.00
   -5  -18   15      2.26      0.00
   -4  -18   15     -3.92      0.00
   -3  -18   15     -0.85      0.00
   -2  -18   15     -3.54      0.00
   -1  -18   15      0.00      0.00
   -8  -17   15     -2.29      0.00
    2  -17   15      0.85      0.00
  -10  -16   15      2.77      0.00
    4  -16   15     -0.80      0.00
  -11  -15   15      0.92      0.00
    6  -15   15     -0.61      0.00
  -11  -14   15     -0.09      0.00
  -12  -13   15      0.27      0.00
    9  -13   15     -2.44      0.00
  -12  -12   15     -1.39      0.00
   10  -12   15     -0.24      0.00
   11  -11   15     -2.54      0.00
   12  -10   15     -0.31      0.00
   13   -9   15     -3.70      0.00
   14   -8   15      2.77      0.00
   16   -5   15      0.12      0.00
  -12   -4   15     -0.23      0.00
   18   -2   15      1.59      0.00
  -11   -1   15      2.16      0.00
   19    0   15     -0.39      0.00
   20    3   15      0.15      0.00
   -8    5   15     -1.02      0.00
   21    6   15      0.21      0.00
   21    7   15     -0.05      0.00
   -6    8   15      4.03      0.00
   21    8   15     -0.90      0.00
   -5    9   15      1.45      0.00
   21    9   15     -3.50      0.00
   21   10   15     -0.85      0.00
   21   11   15      0.05      0.00
   21   12   15      1.19      0.00
   -1   13   15     -2.05      0.00
   20   13   15      1.70      0.00
    0   14   15     -0.71      0.00
   20   14   15      0.59      0.00
   20   15   15      1.37      0.00
    3   16   15     -4.07      0.00
   19   16   15      2.32      0.00
    5   17   15     -0.04      0.00
   18   17   15     -1.52      0.00
    7   18   15     -2.46      0.00
   17   18   15     -1.26      0.00
   10   19   15     -0.32      0.00
   11   19   15     -0.06      0.00
   12   19   15     -4.01      0.00
   13   19   15     -0.69      0.00
   14   19   15      0.93      0.00
   -7  -17   16      1.81      0.00
   -6  -17   16     -5.66      0.00
   -1  -17   16      1.80      0.00
    0  -17   16      3.77      0.00
    1  -17   16     -5.33      0.00
   -8  -16   16     -0.03      0.00
    3  -16   16     -3.58      0.00
   -9  -15   16      1.91      0.00
    5  -15   16     -1.54      0.00
  -10  -14   16     -1.30      0.00
    7  -14   16     -0.37      0.00
    8  -13   16      2.54      0.00
  -11  -12   16     -0.16      0.00
   15   -6   16      2.69      0.00
   16   -5   16      1.28      0.00
  -11   -3   16     -0.55      0.00
   17   -3   16     -1.18      0.00
  -10    0   16      0.70      0.00
   19    1   16      0.17      0.00
   -9    2   16     -0.48      0.00
   20    3   16     -1.77      0.00
   -8    4   16     -3.06      0.00
   20    4   16      1.40      0.00
   -6    7   16     -0.59      0.00
   -5    8   16      2.63      0.00
   21    8   16     -1.08      0.00
   21    9   16     -1.64      0.00
   21   10   16      1.57      0.00
   19   12   16      3.04      0.00
    0   13   16     -3.13      0.00
   20   13   16     -4.42      0.00
    1   14   16     -0.48      0.00
   20   14   16     -1.19      0.00
   19   15   16     -1.35      0.00
    4   16   16     -0.97      0.00
    6   17   16      2.63      0.00
   17   17   16      0.02      0.00
    9   18   16     -0.49      0.00
   10   18   16     -3.64      0.00
   14   18   16      0.70      0.00
   15   18   16      1.32      0.00
   16   18   16     -0.51      0.00
   -3  -17   17     -1.67      0.00
   -2  -17   17     -1.91      0.00
   -6  -16   17     -2.39      0.00
    1  -16   17     -0.33      0.00
    2  -16   17     -3.16      0.00
   -8  -15   17      1.72      0.00
    4  -15   17      0.96      0.00
   -9  -14   17      1.55      0.00
    6  -14   17     -0.05      0.00
  -10  -12   17     -1.07      0.00
    9  -12   17     -0.64      0.00
   10  -11   17      0.16      0.00
   11  -10   17     -1.33      0.00
   13   -8   17      1.18      0.00
   14   -7   17      1.33      0.00
   15   -6   17      2.47      0.00
   16   -4   17      0.83      0.00
  -10   -3   17     -1.66      0.00
   17   -3   17     -0.35      0.00
   18   -1   17     -3.72      0.00
   -9    0   17      1.86      0.00
   19    1   17      1.30      0.00
   -8    2   17     -1.58      0.00
   -7    4   17      0.60      0.00
   20    4   17     -2.55      0.00
   20    5   17      0.20      0.00
   -5    7   17     -3.67      0.00
   20   11   17     -2.65      0.00
   20   12   17     -2.46      0.00
    1   13   17      0.04      0.00
   18   13   17      1.16      0.00
   20   13   17      2.17      0.00
    2   14   17     -2.81      0.00
   18   14   17      0.74      0.00
   19   14   17      1.97      0.00
    4   15   17      0.97      0.00
    6   16   17      4.48      0.00
   18   16   17     -0.59      0.00
    8   17   17     -4.48      0.00
   16   17   17     -1.14      0.00
   -4  -16   18      0.23      0.00
   -3  -16   18      0.62      0.00
   -2  -16   18      2.74      0.00
   -1  -16   18      0.02      0.00
    0  -16   18     -1.76      0.00
   -6  -15   18      1.98      0.00
    3  -15   18      2.05      0.00
   -7  -14   18     -1.00      0.00
    5  -14   18      0.23      0.00
   -8  -13   18     -3.96      0.00
    7  -13   18      1.49      0.00
   -9  -12   18     -3.73      0.00
    8  -12   18     -0.54      0.00
   -9  -11   18      2.27      0.00
   12   -9   18     -1.53      0.00
   15   -5   18      4.51      0.00
   16   -4   18     -2.69      0.00
   -9   -3   18      1.97      0.00
   -9   -2   18     -2.13      0.00
   17   -2   18      0.66      0.00
   -8    0   18     -2.01      0.00
   18    0   18      0.55      0.00
   -7    2   18      4.35      0.00
   19    2   18      2.37      0.00
   19    3   18     -0.28      0.00
   -6    4   18     -5.15      0.00
   -5    6   18      2.80      0.00
   20    6   18     -0.20      0.00
   -4    7   18      5.51      0.00
   20    7   18     -0.42      0.00
   20    8   18      0.76      0.00
   20    9   18      1.62      0.00
   20   10   18      0.84      0.00
   20   11   18     -3.40      0.00
    1   12   18     -2.99      0.00
   19   12   18      1.73      0.00
    2   13   18      0.57      0.00
   19   13   18     -0.29      0.00
    5   15   18     -0.64      0.00
   17   15   18     -2.00      0.00
   18   15   18      1.48      0.00
    7   16   18      0.05      0.00
    8   16   18     -0.26      0.00
   16   16   18     -2.93      0.00
   11   17   18     -1.06      0.00
   12   17   18      1.74      0.00
   13   17   18      2.69      0.00
   14   17   18      2.11      0.00
   -3  -15   19     -4.15      0.00
   -2  -15   19     -1.48      0.00
   -1  -15   19      1.59      0.00
    0  -15   19     -1.11      0.00
    1  -15   19      4.06      0.00
   -5  -14   19      0.24      0.00
    3  -14   19      1.21      0.00
    4  -14   19     -0.68      0.00
    6  -13   19     -1.94      0.00
   -7  -12   19      2.10      0.00
    7  -12   19      0.17      0.00
   -8  -11   19     -1.47      0.00
    9  -11   19      1.02      0.00
   -8  -10   19      1.38      0.00
   10  -10   19     -1.57      0.00
   11   -9   19     -2.17      0.00
   12   -8   19     -2.66      0.00
   13   -7   19     -4.62      0.00
   14   -6   19      1.68      0.00
   -8   -3   19      1.66      0.00
   16   -3   19      2.98      0.00
   -8   -2   19     -2.28      0.00
   17   -1   19      1.55      0.00
   -7    0   19     -2.69      0.00
   18    1   19      0.83      0.00
   -5    4   19      2.58      0.00
   19    4   19     -0.09      0.00
   -4    6   19     -1.22      0.00
   -3    7   19      0.33      0.00
   -2    8   19      2.18      0.00
    1   11   19     -0.93      0.00
   19   11   19      1.21      0.00
    2   12   19      0.96      0.00
   19   12   19     -0.84      0.00
   18   13   19      1.49      0.00
    5   14   19     -1.11      0.00
   17   14   19     -2.69      0.00
    7   15   19      1.64      0.00
   16   15   19     -0.71      0.00
   10   16   19      1.24      0.00
   11   16   19     -6.30      0.00
   12   16   19      1.60      0.00
   13   16   19     -1.51      0.00
   14   16   19     -1.89      0.00
   -2  -14   20      3.27      0.00
   -1  -14   20      4.25      0.00
    0  -14   20     -1.29      0.00
    1  -14   20      0.24      0.00
   -4  -13   20     -0.83      0.00
    4  -13   20      0.16      0.00
    6  -12   20      1.38      0.00
   -6  -11   20     -1.89      0.00
    8  -11   20     -3.23      0.00
   -7  -10   20     -4.75      0.00
    9  -10   20      3.13      0.00
   -7   -9   20     -5.22      0.00
   13   -6   20      1.80      0.00
   14   -5   20     -1.67      0.00
   -7   -4   20      0.66      0.00
   15   -4   20     -1.33      0.00
   -7   -3   20      0.86      0.00
   -7   -2   20      2.28      0.00
   16   -2   20      1.55      0.00
   -6    0   20      5.17      0.00
   17    0   20      0.80      0.00
   -5    2   20      0.74      0.00
   18    2   20     -1.11      0.00
   18    3   20     -0.03      0.00
   -4    4   20     -2.34      0.00
   19    6   20     -0.50      0.00
   -2    7   20      1.20      0.00
   19    7   20      1.86      0.00
   -1    8   20      1.40      0.00
   19    8   20      1.03      0.00
    0    9   20     -2.34      0.00
   19    9   20      0.03      0.00
    1   10   20      0.00      0.00
    2   11   20      5.46      0.00
   17   12   20      0.52      0.00
   18   12   20     -1.60      0.00
    5   13   20     -0.64      0.00
   16   13   20      0.42      0.00
   17   13   20     -1.28      0.00
    7   14   20      1.57      0.00
   14   14   20      1.28      0.00
   16   14   20      1.73      0.00
   10   15   20      1.74      0.00
   11   15   20     -2.86      0.00
   12   15   20      0.68      0.00
   13   15   20      1.24      0.00
   14   15   20      2.88      0.00
   -1  -13   21      2.58      0.00
    0  -13   21     -1.14      0.00
    1  -13   21     -3.01      0.00
   -3  -12   21     -0.64      0.00
    4  -12   21     -0.39      0.00
    5  -12   21      0.61      0.00
   -4  -11   21     -1.47      0.00
    6  -11   21      0.32      0.00
   -5  -10   21      1.54      0.00
    8  -10   21     -6.42      0.00
   -6   -8   21     -3.97      0.00
   -6   -7   21      1.01      0.00
   -6   -6   21     -0.16      0.00
   -6   -5   21     -1.23      0.00
   -6   -4   21     -0.27      0.00
   14   -4   21      0.27      0.00
   -6   -3   21     -0.81      0.00
   15   -3   21      0.29      0.00
   16   -1   21      0.00      0.00
   -5    0   21     -1.41      0.00
   17    1   21      1.22      0.00
   -4    2   21      3.00      0.00
   -3    4   21     -3.59      0.00
   18    4   21     -0.06      0.00
   -2    5   21     -2.38      0.00
   18    5   21      1.11      0.00
   18    6   21      0.71      0.00
   18    7   21     -0.87      0.00
   18    8   21     -0.36      0.00
    1    9   21     -6.14      0.00
   18    9   21     -1.05      0.00
   18   10   21     -1.97      0.00
    4   11   21      0.22      0.00
   17   11   21      1.41      0.00
    5   12   21      1.56      0.00
   17   12   21      2.62      0.00
    7   13   21     -1.38      0.00
   13   13   21     -0.43      0.00
   15   13   21      2.00      0.00
   16   13   21     -1.94      0.00
   10   14   21      0.02      0.00
   11   14   21      6.78      0.00
   12   14   21      0.19      0.00
   13   14   21      0.16      0.00
   14   14   21      1.02      0.00
   -2  -11   22     -1.95      0.00
   -1  -11   22      1.23      0.00
    3  -11   22      2.47      0.00
    4  -11   22     -0.62      0.00
   -3  -10   22     -3.66      0.00
    6  -10   22      1.14      0.00
   -4   -9   22      1.06      0.00
    8   -9   22      3.12      0.00
   -4   -8   22      4.37      0.00
    9   -8   22     -1.84      0.00
   13   -4   22      1.48      0.00
   14   -3   22      1.96      0.00
   -4   -2   22     -0.57      0.00
   -4   -1   22      4.81      0.00
   15   -1   22     -1.61      0.00
   -3    1   22      1.92      0.00
   16    1   22     -1.63      0.00
   -2    3   22      0.54      0.00
   17    3   22     -0.62      0.00
   17    4   22      0.66      0.00
   -1    5   22      4.59      0.00
   17    5   22      0.65      0.00
    0    6   22     -1.40      0.00
   17    6   22     -0.17      0.00
    1    7   22     -4.08      0.00
   17    7   22      2.90      0.00
    2    8   22     -1.19      0.00
   17    8   22      1.01      0.00
    3    9   22     -0.79      0.00
   17    9   22     -2.15      0.00
    4   10   22     -1.13      0.00
    6   11   22      1.80      0.00
   16   11   22      3.25      0.00
    8   12   22      8.89      0.00
   14   12   22      2.13      0.00
   15   12   22     -1.77      0.00
   11   13   22      3.88      0.00
   12   13   22     -0.55      0.00
    0  -10   23      1.88      0.00
    1  -10   23     -0.15      0.00
    2  -10   23     -0.03      0.00
    3  -10   23     -1.84      0.00
    4  -10   23     -0.46      0.00
   -1   -9   23      2.89      0.00
    6   -9   23     -1.83      0.00
   -2   -8   23      2.28      0.00
    8   -8   23      1.52      0.00
    9   -7   23     -4.72      0.00
   -3   -6   23      1.63      0.00
   10   -6   23      0.89      0.00
   -3   -5   23     -2.90      0.00
   11   -5   23      1.39      0.00
   -3   -4   23     -2.39      0.00
   12   -4   23      1.36      0.00
   -3   -3   23     -1.56      0.00
   13   -3   23      0.66      0.00
   -3   -2   23     -4.89      0.00
   14   -1   23     -1.10      0.00
   -2    0   23     -4.63      0.00
   15    0   23      0.15      0.00
   15    1   23      3.60      0.00
   -1    2   23     -2.14      0.00
   16    3   23      1.13      0.00
    0    4   23     -1.00      0.00
   16    4   23     -0.65      0.00
    1    5   23     -1.66      0.00
   16    5   23     -3.99      0.00
   16    6   23     -3.65      0.00
   16    7   23     -0.02      0.00
    4    8   23      4.52      0.00
   16    8   23     -1.60      0.00
    5    9   23     -0.86      0.00
   15    9   23     -1.84      0.00
    7   10   23     -0.61      0.00
   15   10   23     -0.46      0.00
    9   11   23     -0.76      0.00
   10   11   23     -1.67      0.00
   11   11   23     -2.31      0.00
   12   11   23      2.74      0.00
   13   11   23      1.20      0.00
   14   11   23     -1.03      0.00
    1   -8   24      0.42      0.00
    2   -8   24      4.09      0.00
    3   -8   24     -3.77      0.00
    4   -8   24     -0.65      0.00
    5   -8   24     -3.51      0.00
    0   -7   24      1.47      0.00
    1   -7   24     -3.45      0.00
    6   -7   24      2.06      0.00
    7   -7   24      0.21      0.00
   -1   -6   24     -0.49      0.00
    0   -6   24      3.78      0.00
    8   -6   24     -1.21      0.00
    9   -6   24     -0.39      0.00
   -1   -5   24     -1.84      0.00
   10   -5   24     -0.35      0.00
   -1   -4   24     -1.18      0.00
   11   -4   24      1.59      0.00
   -1   -3   24     -1.02      0.00
   12   -3   24     -0.67      0.00
   -1   -2   24     -0.03      0.00
   12   -2   24      2.72      0.00
   -1   -1   24      1.46      0.00
   13   -1   24     -0.02      0.00
    0    0   24      1.79      0.00
    0    1   24      0.03      0.00
   14    1   24     -0.49      0.00
   14    2   24     -3.08      0.00
    1    3   24      1.66      0.00
    2    4   24     -1.75      0.00
   15    4   24      1.64      0.00
    3    5   24     -1.07      0.00
   15    5   24     -0.30      0.00
    4    6   24      0.44      0.00
   15    6   24     -0.06      0.00
    5    7   24     -1.35      0.00
   14    7   24      2.41      0.00
    6    8   24     -0.07      0.00
   14    8   24     -0.38      0.00
    8    9   24     -0.98      0.00
    9    9   24     -3.15      0.00
   10    9   24     -0.64      0.00
   11    9   24     -4.17      0.00
   12    9   24     -2.83      0.00
   13    9   24     -2.97      0.00
    4   -6   25     -0.23      0.00
    5   -6   25      0.52      0.00
    2   -5   25     -3.35      0.00
    3   -5   25     -0.86      0.00
    4   -5   25     -1.38      0.00
    5   -5   25      2.78      0.00
    6   -5   25     -3.66      0.00
    7   -5   25      1.45      0.00
    2   -4   25      2.68      0.00
    3   -4   25     -2.68      0.00
    8   -4   25      0.19      0.00
    9   -4   25     -5.51      0.00
    1   -3   25     -3.53      0.00
    2   -3   25     -0.24      0.00
    9   -3   25      0.98      0.00
   10   -3   25      3.15      0.00
    2   -2   25     -2.45      0.00
   10   -2   25      2.33      0.00
   11   -2   25     -0.98      0.00
    2   -1   25     -4.85      0.00
   11   -1   25      1.04      0.00
    2    0   25      0.97      0.00
   12    0   25      1.31      0.00
    2    1   25     -1.65      0.00
   12    1   25     -4.13      0.00
    3    2   25     -1.57      0.00
   12    2   25      1.33      0.00
   13    2   25      1.50      0.00
    4    3   25      1.14      0.00
   13    3   25     -0.51      0.00
    4    4   25     -1.12      0.00
   13    4   25      0.98      0.00
    5    5   25     -0.59      0.00
    6    5   25     -2.20      0.00
   12    5   25     -0.51      0.00
   13    5   25     -3.37      0.00
    7    6   25     -2.33      0.00
    8    6   25      6.98      0.00
   11    6   25      2.27      0.00
   12    6   25      3.54      0.00
    8    7   25      0.28      0.00
    9    7   25     -2.58      0.00
   10    7   25     -1.60      0.00
   11    7   25      2.92      0.00
   12    7   25      2.87      0.00
    0    0    0      0.00      0.00
# SQUEEZE RESULTS
# Note: Data are Listed for all Voids in the P1 Unit Cell
# i.e. Centre of Gravity, Solvent Accessible Volume,
# Recovered number of Electrons in the Void and
# Details about the Squeezed Material
loop_
  _platon_squeeze_void_nr
  _platon_squeeze_void_average_x
  _platon_squeeze_void_average_y
  _platon_squeeze_void_average_z
  _platon_squeeze_void_volume
  _platon_squeeze_void_count_electrons
  _platon_squeeze_void_content
   1 -0.014 -0.002  0.007      1417       659 ' '
   2  0.499  0.508  0.093        21         7 ' '
   3  0.500  0.492  0.907        21         9 ' '
_platon_squeeze_details
(replace by semicolon in column 1 when used as .sqf)
TITL T         P -1         R = 0.18
CELL   16.3200   16.9740   19.2920     88.17     70.16     62.67
SPGR P-1
# Solvent Accessible Volume =    1470.1
# Electrons Found in S.A.V. =     668.2
# Note: Atoms in Void as Cxxx and Qxxx all others
C101 0.176 0.577 0.689 !      12.83 eA-3
C102 0.347 0.426 0.635 !      10.96 eA-3
C103 0.526 0.995 0.908 !      10.23 eA-3
C104 0.839 0.577 0.325 !       8.88 eA-3
C105 0.533 0.919 0.219 !       8.41 eA-3
C106 0.668 0.976 0.749 !       7.53 eA-3
C107 0.439 0.598 0.500 !       7.31 eA-3
C108 0.316 0.063 0.230 !       7.20 eA-3
C109 0.009 0.962 0.443 !       6.78 eA-3
C110 0.692 0.149 0.097 !       6.67 eA-3
C111 0.080 0.893 0.048 !       6.61 eA-3
C112 0.536 0.143 0.209 !       6.42 eA-3
Q113 0.456 0.872 0.895 !       6.04 eA-3
Q114 0.081 0.535 0.628 !       5.94 eA-3
C115 0.998 0.080 0.553 !       5.91 eA-3
C116 0.125 0.057 0.410 !       5.45 eA-3
C117 0.512 0.075 0.762 !       5.37 eA-3
C118 0.122 0.771 0.920 !       5.30 eA-3
C119 0.114 0.808 0.909 !       5.22 eA-3
C120 0.451 0.952 0.170 !       5.11 eA-3
C121 0.232 0.462 0.644 !       5.07 eA-3
Q122 0.888 0.941 0.615 !       4.94 eA-3
C123 0.987 0.783 0.032 !       4.70 eA-3
C124 0.279 0.021 0.829 !       4.56 eA-3
C125 0.878 0.110 0.988 !       4.28 eA-3
C126 0.407 0.969 0.192 !       4.10 eA-3
C127 0.846 0.519 0.319 !       3.86 eA-3
C128 0.225 0.045 0.863 !       3.77 eA-3
C129 0.960 0.826 0.045 !       3.64 eA-3
C130 0.283 0.895 0.891 !       3.54 eA-3
C131 0.358 0.908 0.858 !       3.44 eA-3
Q132 0.093 0.499 0.877 !       3.36 eA-3
C133 0.093 0.822 0.953 !       3.33 eA-3
Q134 0.998 0.915 0.551 !       3.29 eA-3
C135 0.236 0.534 0.646 !       3.26 eA-3
Q136 0.468 0.532 0.641 !       3.24 eA-3
C137 0.640 0.093 0.205 !       3.19 eA-3
C138 0.436 0.921 0.248 !       3.16 eA-3
C139 0.669 0.555 0.327 !       3.15 eA-3
C140 0.748 0.996 0.185 !       3.08 eA-3
C141 0.608 0.095 0.173 !       2.99 eA-3
Q142 0.186 0.644 0.438 !       2.98 eA-3
C143 0.029 0.927 0.076 !       2.97 eA-3
C144 0.314 0.055 0.798 !       2.96 eA-3
C145 0.095 0.759 0.965 !       2.94 eA-3
C146 0.970 0.157-0.001 !       2.92 eA-3
C147 0.031 0.439 0.721 !       2.88 eA-3
C148 0.218 0.917 0.921 !       2.85 eA-3
Q149 0.750 0.069 0.854 !       2.85 eA-3
C150 0.077 0.169 0.953 !       2.82 eA-3
C151 0.359 0.863 0.825 !       2.79 eA-3
C152 0.097 0.065 0.459 !       2.77 eA-3
C153 0.154 0.470 0.620 !       2.75 eA-3
C154 0.044 0.788 0.011 !       2.73 eA-3
C155 0.151 0.220 0.823 !       2.69 eA-3
C156 0.187 0.199 0.876 !       2.63 eA-3
C157 0.724 0.632 0.328 !       2.62 eA-3
Q158 0.656 0.171 0.887 !       2.61 eA-3
Q159 0.472 0.488 0.459 !       2.61 eA-3
Q160 0.723 0.263 0.312 !       2.58 eA-3
Q161 0.721 0.491 0.535 !       2.55 eA-3
C162 0.694 0.944 0.158 !       2.55 eA-3
C163 0.607 0.934 0.198 !       2.55 eA-3
C164 0.767 0.579 0.345 !       2.52 eA-3
C165 0.274 0.391 0.629 !       2.52 eA-3
Q166 0.955 0.983 0.548 !       2.52 eA-3
Q167 0.034 0.051 0.440 !       2.50 eA-3
C168 1.000 0.061 0.501 !       2.50 eA-3
C169 0.886 0.833 0.107 !       2.48 eA-3
C170 0.738 0.829 0.205 !       2.48 eA-3
Q171 0.140 0.840 0.093 !       2.47 eA-3
C172 0.328 0.939 0.872 !       2.47 eA-3
C173 0.436 0.104 0.184 !       2.47 eA-3
C174 0.891 0.975 0.563 !       2.46 eA-3
C175 0.391 0.854 0.830 !       2.46 eA-3
Q176 0.800 0.280 0.305 !       2.45 eA-3
Q177 0.843 0.390 0.546 !       2.44 eA-3
C178 0.064 0.030 0.489 !       2.42 eA-3
Q179 0.501 0.267 0.228 !       2.41 eA-3
C180 0.644 0.890 0.799 !       2.40 eA-3
C181 0.360 0.924 0.817 !       2.40 eA-3
Q182 0.061 0.193 0.466 !       2.40 eA-3
Q183 0.265 0.687 0.270 !       2.39 eA-3
C184 0.798 0.302 0.062 !       2.39 eA-3
C185 0.346 0.855 0.879 !       2.39 eA-3
Q186 0.518 0.531 0.855 !       2.38 eA-3
C187 0.533 0.097 0.206 !       2.38 eA-3
C188 0.296 1.005 0.777 !       2.35 eA-3
C189 0.025 0.995 0.471 !       2.33 eA-3
C190 0.670 0.099 0.140 !       2.31 eA-3
C191 0.980 0.131 0.925 !       2.31 eA-3
C192 0.761 0.688 0.293 !       2.31 eA-3
Q193 0.529 0.498 0.439 !       2.30 eA-3
C194 0.048 0.949 0.512 !       2.30 eA-3
C195 0.905 0.887 0.516 !       2.29 eA-3
C196 0.126 0.845 0.005 !       2.28 eA-3
Q197 0.642 0.652 0.451 !       2.28 eA-3
C198 0.844 0.343 0.219 !       2.27 eA-3
C199 0.083 0.119 0.455 !       2.27 eA-3
(replace by semicolon in column 1 when used as .sqf)
;
_shelx_fab_checksum              91780
loop_
_space_group_symop_operation_xyz
'x, y, z'
'-x, -y, -z'
loop_
_atom_site_label
_atom_site_type_symbol
_atom_site_fract_x
_atom_site_fract_y
_atom_site_fract_z
_atom_site_U_iso_or_equiv
_atom_site_adp_type
_atom_site_occupancy
_atom_site_site_symmetry_order
_atom_site_calc_flag
_atom_site_refinement_flags_posn
_atom_site_refinement_flags_adp
_atom_site_refinement_flags_occupancy
_atom_site_disorder_assembly
_atom_site_disorder_group
Cd1 Cd 0.73510(4) 0.28748(4) 0.73816(3) 0.03317(19) Uani 1 1 d . . . . .
Cd2 Cd 0.82699(4) 0.37565(4) 0.55617(4) 0.0365(2) Uani 1 1 d . . . . .
Cd3 Cd 0.64130(5) 0.20179(4) 0.92410(4) 0.0405(2) Uani 1 1 d . . . . .
O1 O 0.8082(5) 0.2602(5) 0.5049(4) 0.0560(19) Uani 1 1 d . . . . .
O2 O 0.7215(4) 0.3215(4) 0.6214(3) 0.0348(14) Uani 1 1 d . . . . .
O3 O 0.7830(6) -0.4807(4) 0.6082(5) 0.067(2) Uani 1 1 d . . . . .
O4 O 0.7115(5) -0.4927(4) 0.5337(4) 0.0555(18) Uani 1 1 d . . . . .
O5 O -0.0774(5) 0.3321(5) 0.6226(4) 0.0557(19) Uani 1 1 d . . . . .
O6 O -0.1006(4) 0.2290(4) 0.6871(4) 0.0473(16) Uani 1 1 d . . . . .
O7 O 0.5566(5) 0.2314(4) 0.8479(4) 0.0497(17) Uani 1 1 d . . . . .
O8 O 0.5703(4) 0.3453(5) 0.7937(4) 0.060(2) Uani 1 1 d . . . . .
O9 O -0.3335(6) 0.3092(6) 0.9705(4) 0.072(2) Uani 1 1 d . . . . .
O10 O -0.2499(5) 0.2556(4) 0.8541(4) 0.0457(16) Uani 1 1 d . . . . .
O11 O -0.2306(9) 1.0611(6) 0.8705(8) 0.162(6) Uani 1 1 d . . . . .
O12 O -0.3438(8) 1.0678(6) 0.9594(8) 0.150(6) Uani 1 1 d . . . . .
O1W O 0.7074(6) 0.4308(5) 0.7517(4) 0.073(2) Uani 1 1 d . . . . .
H1W1 H 0.649473 0.468672 0.758136 0.088 Uiso 1 1 d R U . . .
H2W1 H 0.744161 0.451282 0.727665 0.088 Uiso 1 1 d R U . . .
O2W O 0.7610(5) 0.1466(4) 0.7190(4) 0.064(2) Uani 1 1 d . . . . .
H1W2 H 0.733515 0.116309 0.717595 0.077 Uiso 1 1 d R U . . .
H2W2 H 0.819694 0.111349 0.712744 0.077 Uiso 1 1 d R U . . .
N1 N 0.9490(6) 0.3575(6) 0.4485(4) 0.052(2) Uani 1 1 d . . . . .
N2 N 1.4914(7) 0.2622(7) 0.0229(5) 0.068(3) Uani 1 1 d . . . . .
C1 C 0.9848(8) 0.4154(8) 0.4320(7) 0.069(4) Uani 1 1 d . . . . .
H1A H 0.954845 0.467162 0.465906 0.083 Uiso 1 1 calc R U . . .
C2 C 1.0655(8) 0.4030(9) 0.3661(7) 0.071(3) Uani 1 1 d . . . . .
H2A H 1.092058 0.442139 0.357803 0.085 Uiso 1 1 calc R U . . .
C3 C 1.1018(9) 0.3280(10) 0.3150(6) 0.075(4) Uani 1 1 d . . . . .
C4 C 1.0635(12) 0.2736(10) 0.3280(9) 0.133(8) Uani 1 1 d . . . . .
H4A H 1.086179 0.225404 0.292292 0.159 Uiso 1 1 calc R U . . .
C5 C 0.9893(10) 0.2891(9) 0.3953(8) 0.103(5) Uani 1 1 d . . . . .
H5A H 0.965387 0.248091 0.404250 0.124 Uiso 1 1 calc R U . . .
C6 C 1.1892(11) 0.3081(11) 0.2438(7) 0.092(4) Uani 1 1 d . . . . .
H6A H 1.213622 0.254929 0.213271 0.110 Uiso 1 1 calc R U . . .
C7 C 1.2349(9) 0.3545(11) 0.2192(7) 0.088(4) Uani 1 1 d . . . . .
H7A H 1.212243 0.409202 0.246864 0.106 Uiso 1 1 calc R U . . .
C8 C 1.3205(8) 0.3242(9) 0.1501(7) 0.066(3) Uani 1 1 d . . . . .
C9 C 1.3613(10) 0.3781(8) 0.1222(7) 0.087(4) Uani 1 1 d . . . . .
H9A H 1.331901 0.436107 0.146572 0.104 Uiso 1 1 calc R U . . .
C10 C 1.4430(9) 0.3493(8) 0.0602(7) 0.078(4) Uani 1 1 d . . . . .
H10A H 1.467665 0.388452 0.041694 0.093 Uiso 1 1 calc R U . . .
C11 C 1.4526(11) 0.2132(10) 0.0452(8) 0.100(5) Uani 1 1 d . . . . .
H11A H 1.481582 0.156500 0.018453 0.120 Uiso 1 1 calc R U . . .
C12 C 1.3632(9) 0.2417(9) 0.1119(8) 0.088(5) Uani 1 1 d . . . . .
H12A H 1.336241 0.203506 0.127620 0.106 Uiso 1 1 calc R U . . .
C13 C 0.7426(6) 0.2697(6) 0.5660(6) 0.038(2) Uani 1 1 d . . . . .
C14 C 0.6867(6) 0.2175(6) 0.5726(5) 0.038(2) Uani 1 1 d . . . . .
C15 C 0.5930(6) 0.2508(6) 0.6267(6) 0.045(2) Uani 1 1 d . . . . .
H15A H 0.565224 0.304290 0.658011 0.053 Uiso 1 1 calc R U . . .
C16 C 0.5420(7) 0.2048(6) 0.6337(6) 0.047(2) Uani 1 1 d . . . . .
H16A H 0.481066 0.224206 0.672420 0.056 Uiso 1 1 calc R U . . .
C17 C 0.5799(7) 0.1293(6) 0.5838(6) 0.045(2) Uani 1 1 d . . . . .
C18 C 0.6706(6) 0.0978(6) 0.5284(6) 0.047(3) Uani 1 1 d . . . . .
H18A H 0.697169 0.045758 0.495748 0.057 Uiso 1 1 calc R U . . .
C19 C 0.7226(6) 0.1453(6) 0.5219(5) 0.047(2) Uani 1 1 d . . . . .
H19A H 0.782496 0.127370 0.482367 0.056 Uiso 1 1 calc R U . . .
C20 C 0.7251(7) -0.4468(6) 0.5715(6) 0.045(2) Uani 1 1 d . . . . .
C21 C 0.6695(7) -0.3462(6) 0.5808(6) 0.045(2) Uani 1 1 d . . . . .
C22 C 0.5941(7) -0.3051(6) 0.5528(6) 0.052(3) Uani 1 1 d . . . . .
H22A H 0.579260 -0.340354 0.528410 0.062 Uiso 1 1 calc R U . . .
C23 C 0.5409(7) -0.2129(6) 0.5604(6) 0.053(3) Uani 1 1 d . . . . .
H23A H 0.485934 -0.186139 0.546529 0.063 Uiso 1 1 calc R U . . .
C24 C 0.5702(6) -0.1605(6) 0.5892(6) 0.046(2) Uani 1 1 d . . . . .
C25 C 0.6415(7) -0.2018(6) 0.6179(7) 0.058(3) Uani 1 1 d . . . . .
H25A H 0.657425 -0.166975 0.641589 0.070 Uiso 1 1 calc R U . . .
C26 C 0.6923(7) -0.2950(6) 0.6134(7) 0.058(3) Uani 1 1 d . . . . .
H26A H 0.741950 -0.321279 0.633075 0.070 Uiso 1 1 calc R U . . .
C27 C -0.0491(6) 0.2626(6) 0.6518(5) 0.038(2) Uani 1 1 d . . . . .
C28 C 0.0594(7) 0.2149(7) 0.6417(6) 0.048(2) Uani 1 1 d . . . . .
C29 C 0.0963(7) 0.1422(7) 0.6765(7) 0.069(4) Uani 1 1 d . . . . .
H29A H 0.053521 0.123087 0.707697 0.083 Uiso 1 1 calc R U . . .
C30 C 0.1967(7) 0.0963(7) 0.6663(7) 0.064(3) Uani 1 1 d . . . . .
H30A H 0.220871 0.045526 0.688673 0.077 Uiso 1 1 calc R U . . .
C31 C 0.2604(7) 0.1267(7) 0.6225(6) 0.051(3) Uani 1 1 d . . . . .
C32 C 0.2235(7) 0.1998(7) 0.5880(6) 0.055(3) Uani 1 1 d . . . . .
H32A H 0.265767 0.220058 0.557877 0.065 Uiso 1 1 calc R U . . .
C33 C 0.1238(7) 0.2440(7) 0.5976(6) 0.059(3) Uani 1 1 d . . . . .
H33A H 0.100005 0.293715 0.574004 0.071 Uiso 1 1 calc R U . . .
C34 C 0.5211(6) 0.0789(6) 0.5951(6) 0.048(3) Uani 1 1 d . . . . .
C35 C 0.5675(7) -0.0147(6) 0.5874(6) 0.051(3) Uani 1 1 d . . . . .
H35A H 0.635636 -0.045803 0.575789 0.061 Uiso 1 1 calc R U . . .
C36 C 0.5177(7) -0.0625(6) 0.5961(6) 0.050(3) Uani 1 1 d . . . . .
C37 C 0.4157(7) -0.0133(6) 0.6071(6) 0.049(3) Uani 1 1 d . . . . .
H37A H 0.380380 -0.044492 0.611028 0.059 Uiso 1 1 calc R U . . .
C38 C 0.3669(6) 0.0783(6) 0.6123(6) 0.046(3) Uani 1 1 d . . . . .
C39 C 0.4192(6) 0.1242(6) 0.6062(6) 0.045(2) Uani 1 1 d . . . . .
H39A H 0.386961 0.186268 0.609361 0.054 Uiso 1 1 calc R U . . .
C40 C 0.5219(6) 0.3076(6) 0.8261(5) 0.038(2) Uani 1 1 d . . . . .
C41 C 0.4113(6) 0.3562(6) 0.8415(5) 0.035(2) Uani 1 1 d . . . . .
C42 C 0.3530(6) 0.3170(6) 0.8734(5) 0.040(2) Uani 1 1 d . . . . .
H42A H 0.380938 0.259533 0.885599 0.048 Uiso 1 1 calc R U . . .
C43 C 0.2523(7) 0.3634(6) 0.8872(6) 0.050(3) Uani 1 1 d . . . . .
H43A H 0.212585 0.337603 0.910469 0.060 Uiso 1 1 calc R U . . .
C44 C 0.2099(6) 0.4480(5) 0.8668(5) 0.035(2) Uani 1 1 d . . . . .
C45 C 0.2698(6) 0.4861(7) 0.8359(6) 0.049(3) Uani 1 1 d . . . . .
H45A H 0.242913 0.543668 0.823608 0.059 Uiso 1 1 calc R U . . .
C46 C 0.3699(7) 0.4390(7) 0.8230(6) 0.054(3) Uani 1 1 d . . . . .
H46A H 0.409849 0.465049 0.800993 0.065 Uiso 1 1 calc R U . . .
C47 C -0.2698(7) 0.3064(6) 0.9103(5) 0.040(2) Uani 1 1 d . . . . .
C48 C -0.2119(7) 0.3539(7) 0.9046(6) 0.051(3) Uani 1 1 d . . . . .
C49 C -0.1245(7) 0.3319(7) 0.8480(5) 0.052(3) Uani 1 1 d . . . . .
H49A H -0.099784 0.286111 0.809491 0.063 Uiso 1 1 calc R U . . .
C50 C -0.0731(8) 0.3756(7) 0.8471(6) 0.054(3) Uani 1 1 d . . . . .
H50A H -0.011519 0.357279 0.809478 0.065 Uiso 1 1 calc R U . . .
C51 C -0.1110(7) 0.4482(6) 0.9017(6) 0.048(3) Uani 1 1 d . . . . .
C52 C -0.1996(7) 0.4714(7) 0.9589(6) 0.057(3) Uani 1 1 d . . . . .
H52A H -0.224833 0.518798 0.996212 0.069 Uiso 1 1 calc R U . . .
C53 C -0.2512(8) 0.4263(7) 0.9620(6) 0.057(3) Uani 1 1 d . . . . .
H53A H -0.311148 0.442483 1.000986 0.068 Uiso 1 1 calc R U . . .
C54 C -0.2612(9) 1.0195(6) 0.9172(8) 0.073(4) Uani 1 1 d . . . . .
C55 C -0.2079(8) 0.9261(6) 0.9170(7) 0.057(3) Uani 1 1 d . . . . .
C56 C -0.2513(9) 0.8822(9) 0.9602(9) 0.097(5) Uani 1 1 d . . . . .
H56A H -0.317033 0.914962 0.992009 0.116 Uiso 1 1 calc R U . . .
C57 C -0.2015(8) 0.7877(6) 0.9597(7) 0.070(4) Uani 1 1 d . . . . .
H57A H -0.233733 0.760565 0.992427 0.083 Uiso 1 1 calc R U . . .
C58 C -0.1041(7) 0.7358(6) 0.9099(6) 0.055(3) Uani 1 1 d . . . . .
C59 C -0.0627(9) 0.7808(7) 0.8607(8) 0.082(4) Uani 1 1 d . . . . .
H59A H -0.000600 0.747677 0.823646 0.098 Uiso 1 1 calc R U . . .
C60 C -0.1122(9) 0.8758(8) 0.8652(8) 0.082(4) Uani 1 1 d . . . . .
H60A H -0.080651 0.904230 0.833550 0.098 Uiso 1 1 calc R U . . .
C61 C 0.0992(6) 0.4979(6) 0.8822(5) 0.042(2) Uani 1 1 d . . . . .
C62 C 0.0484(6) 0.4509(6) 0.8861(5) 0.040(2) Uani 1 1 d . . . . .
H62A H 0.081781 0.388576 0.879049 0.048 Uiso 1 1 calc R U . . .
C63 C -0.0530(7) 0.4966(6) 0.9008(6) 0.046(2) Uani 1 1 d . . . . .
C64 C -0.1014(6) 0.5901(6) 0.9111(5) 0.044(2) Uani 1 1 d . . . . .
H64A H -0.169464 0.620948 0.922539 0.053 Uiso 1 1 calc R U . . .
C65 C -0.0508(6) 0.6378(6) 0.9049(6) 0.042(2) Uani 1 1 d . . . . .
C66 C 0.0495(7) 0.5904(6) 0.8912(6) 0.048(3) Uani 1 1 d . . . . .
H66A H 0.084542 0.621692 0.888054 0.058 Uiso 1 1 calc R U . . .
N3 N -0.0611(7) 1.0094(6) 0.7129(7) 0.128(5) Uani 1 1 d G U . . .
C67 C -0.0336(8) 1.0251(6) 0.7696(6) 0.138(6) Uani 1 1 d G U . . .
H67A H -0.074848 1.077282 0.804007 0.166 Uiso 1 1 calc R U . . .
C68 C 0.0557(9) 0.9627(8) 0.7750(6) 0.123(5) Uani 1 1 d G U . . .
H68A H 0.074117 0.973167 0.812914 0.147 Uiso 1 1 calc R U . . .
C69 C 0.1174(6) 0.8847(7) 0.7236(7) 0.141(5) Uani 1 1 d DG U . . .
C70 C 0.0898(8) 0.8690(6) 0.6669(6) 0.129(6) Uani 1 1 d G U . . .
H70A H 0.131067 0.816851 0.632504 0.155 Uiso 1 1 calc R U . . .
C71 C 0.0005(9) 0.9314(7) 0.6615(5) 0.155(6) Uani 1 1 d G U . . .
H71A H -0.017897 0.920966 0.623595 0.185 Uiso 1 1 calc R U . . .
C72 C 0.2239(13) 0.8234(13) 0.7149(15) 0.270(12) Uani 1 1 d D U . . .
H72A H 0.250415 0.851685 0.733960 0.324 Uiso 1 1 calc R U . . .
C73 C 0.2823(13) 0.7458(12) 0.6887(11) 0.282(13) Uani 1 1 d D U . . .
H73A H 0.268122 0.724159 0.652980 0.338 Uiso 1 1 calc R U . . .
C74 C 0.3710(8) 0.6785(9) 0.7011(9) 0.211(9) Uani 1 1 d DG U . . .
C75 C 0.4074(11) 0.6993(7) 0.7494(9) 0.250(11) Uani 1 1 d G U . . .
H75A H 0.374845 0.756991 0.775316 0.300 Uiso 1 1 calc R U . . .
C76 C 0.4923(12) 0.6340(10) 0.7588(9) 0.254(11) Uani 1 1 d G U . . .
H76A H 0.516645 0.647911 0.791048 0.305 Uiso 1 1 calc R U . . .
N4 N 0.5409(8) 0.5478(8) 0.7200(9) 0.200(8) Uani 1 1 d G U . . .
C77 C 0.5045(10) 0.5269(7) 0.6717(8) 0.171(8) Uani 1 1 d G U . . .
H77A H 0.537036 0.469225 0.645778 0.205 Uiso 1 1 calc R U . . .
C78 C 0.4196(11) 0.5923(10) 0.6623(8) 0.167(7) Uani 1 1 d G U . . .
H78A H 0.395236 0.578304 0.630046 0.200 Uiso 1 1 calc R U . . .
loop_
_atom_site_aniso_label
_atom_site_aniso_U_11
_atom_site_aniso_U_22
_atom_site_aniso_U_33
_atom_site_aniso_U_23
_atom_site_aniso_U_13
_atom_site_aniso_U_12
Cd1 0.0237(3) 0.0329(3) 0.0419(4) 0.0094(3) -0.0116(3) -0.0132(3)
Cd2 0.0299(4) 0.0320(4) 0.0479(4) 0.0100(3) -0.0135(3) -0.0157(3)
Cd3 0.0367(4) 0.0388(4) 0.0480(5) 0.0112(3) -0.0132(3) -0.0214(3)
O1 0.052(4) 0.059(4) 0.050(4) -0.004(3) 0.006(4) -0.037(4)
O2 0.040(3) 0.035(3) 0.046(4) 0.012(3) -0.019(3) -0.029(3)
O3 0.073(5) 0.023(3) 0.123(7) 0.014(4) -0.064(5) -0.018(3)
O4 0.056(4) 0.036(4) 0.081(5) 0.021(4) -0.039(4) -0.018(3)
O5 0.035(4) 0.060(5) 0.083(5) 0.029(4) -0.036(4) -0.023(3)
O6 0.026(3) 0.041(4) 0.063(5) 0.011(3) -0.011(3) -0.011(3)
O7 0.047(4) 0.043(4) 0.058(4) 0.012(3) -0.028(4) -0.015(3)
O8 0.022(3) 0.065(5) 0.088(6) 0.013(4) -0.014(4) -0.022(3)
O9 0.078(5) 0.101(6) 0.057(5) -0.010(4) -0.002(4) -0.073(5)
O10 0.050(4) 0.057(4) 0.051(4) 0.018(3) -0.028(3) -0.037(4)
O11 0.142(10) 0.035(5) 0.229(14) 0.028(7) 0.005(10) -0.032(6)
O12 0.078(7) 0.037(5) 0.229(14) 0.043(7) -0.003(8) 0.020(5)
O1W 0.081(6) 0.041(4) 0.098(6) -0.002(4) -0.035(5) -0.027(4)
O2W 0.044(4) 0.032(4) 0.113(7) 0.010(4) -0.024(4) -0.019(3)
N1 0.046(5) 0.074(6) 0.040(5) -0.003(4) -0.005(4) -0.039(5)
N2 0.075(7) 0.099(8) 0.069(7) 0.028(6) -0.025(5) -0.075(7)
C1 0.055(7) 0.075(8) 0.078(8) 0.012(6) 0.003(6) -0.050(7)
C2 0.048(7) 0.085(9) 0.082(9) 0.027(8) -0.021(7) -0.037(7)
C3 0.058(7) 0.124(12) 0.037(7) 0.005(7) -0.009(6) -0.043(8)
C4 0.145(14) 0.092(11) 0.117(13) -0.054(9) 0.063(11) -0.095(11)
C5 0.089(10) 0.086(10) 0.104(11) -0.041(9) 0.030(9) -0.059(9)
C6 0.103(11) 0.150(14) 0.048(8) 0.004(8) -0.016(7) -0.088(11)
C7 0.067(8) 0.136(13) 0.070(9) 0.030(8) -0.012(7) -0.065(9)
C8 0.055(7) 0.086(9) 0.079(9) 0.032(7) -0.035(7) -0.043(7)
C9 0.081(9) 0.055(8) 0.088(10) -0.008(7) 0.019(8) -0.038(7)
C10 0.079(9) 0.050(7) 0.093(10) 0.008(7) -0.003(8) -0.040(7)
C11 0.115(12) 0.092(10) 0.088(10) -0.024(8) 0.021(9) -0.083(10)
C12 0.076(9) 0.085(10) 0.104(11) 0.001(8) 0.012(8) -0.069(8)
C13 0.029(5) 0.027(5) 0.060(7) 0.008(4) -0.020(5) -0.014(4)
C14 0.032(5) 0.030(5) 0.053(6) 0.007(4) -0.008(4) -0.022(4)
C15 0.034(5) 0.031(5) 0.077(7) 0.006(5) -0.022(5) -0.021(4)
C16 0.035(5) 0.043(6) 0.069(7) 0.014(5) -0.018(5) -0.025(5)
C17 0.040(5) 0.035(5) 0.067(7) 0.004(5) -0.026(5) -0.018(4)
C18 0.030(5) 0.044(5) 0.075(7) -0.009(5) -0.012(5) -0.028(4)
C19 0.024(5) 0.050(6) 0.059(7) -0.007(5) -0.002(4) -0.021(4)
C20 0.045(6) 0.033(5) 0.081(8) 0.019(5) -0.045(6) -0.025(5)
C21 0.040(5) 0.033(5) 0.070(7) 0.017(5) -0.028(5) -0.019(4)
C22 0.043(6) 0.045(6) 0.093(8) 0.024(5) -0.045(6) -0.029(5)
C23 0.040(6) 0.035(5) 0.091(8) 0.012(5) -0.029(6) -0.022(5)
C24 0.031(5) 0.037(5) 0.070(7) 0.019(5) -0.020(5) -0.016(4)
C25 0.049(6) 0.024(5) 0.111(10) 0.011(5) -0.048(6) -0.012(5)
C26 0.053(6) 0.033(5) 0.111(9) 0.027(6) -0.063(7) -0.017(5)
C27 0.025(4) 0.035(5) 0.046(6) 0.007(4) -0.011(4) -0.010(4)
C28 0.045(6) 0.055(6) 0.058(7) 0.021(5) -0.029(5) -0.029(5)
C29 0.034(5) 0.071(8) 0.120(10) 0.063(7) -0.035(6) -0.038(6)
C30 0.049(6) 0.063(7) 0.102(9) 0.055(7) -0.050(7) -0.031(6)
C31 0.030(5) 0.044(6) 0.083(8) 0.010(5) -0.021(5) -0.021(5)
C32 0.038(5) 0.053(6) 0.076(8) 0.027(6) -0.014(5) -0.030(5)
C33 0.028(5) 0.053(6) 0.089(9) 0.028(6) -0.023(6) -0.013(5)
C34 0.019(4) 0.035(5) 0.080(8) -0.005(5) -0.011(5) -0.011(4)
C35 0.039(5) 0.035(5) 0.090(8) -0.001(5) -0.037(6) -0.017(5)
C36 0.040(5) 0.030(5) 0.080(8) 0.004(5) -0.027(5) -0.013(4)
C37 0.029(5) 0.026(5) 0.101(9) 0.012(5) -0.030(5) -0.016(4)
C38 0.026(5) 0.035(5) 0.082(8) 0.010(5) -0.027(5) -0.013(4)
C39 0.031(5) 0.036(5) 0.069(7) 0.001(5) -0.021(5) -0.015(4)
C40 0.027(4) 0.037(5) 0.045(6) 0.004(4) -0.009(4) -0.015(4)
C41 0.018(4) 0.032(5) 0.049(6) 0.002(4) -0.010(4) -0.007(4)
C42 0.041(5) 0.042(5) 0.052(6) 0.022(4) -0.028(5) -0.023(5)
C43 0.041(6) 0.041(6) 0.070(7) 0.010(5) -0.021(5) -0.021(5)
C44 0.035(5) 0.029(5) 0.050(6) 0.013(4) -0.022(4) -0.017(4)
C45 0.030(5) 0.048(6) 0.069(7) 0.022(5) -0.017(5) -0.019(5)
C46 0.041(6) 0.049(6) 0.076(8) 0.026(5) -0.022(5) -0.026(5)
C47 0.038(5) 0.055(6) 0.036(6) -0.001(5) -0.008(4) -0.033(5)
C48 0.038(5) 0.065(7) 0.051(6) 0.008(5) -0.020(5) -0.021(5)
C49 0.051(6) 0.079(8) 0.042(6) 0.003(5) -0.008(5) -0.049(6)
C50 0.051(6) 0.073(8) 0.050(6) -0.001(6) -0.018(5) -0.039(6)
C51 0.041(6) 0.047(6) 0.074(7) 0.022(5) -0.033(5) -0.027(5)
C52 0.036(5) 0.069(7) 0.052(7) -0.023(5) -0.002(5) -0.021(5)
C53 0.051(6) 0.067(7) 0.056(7) -0.008(6) -0.008(5) -0.038(6)
C54 0.055(7) 0.015(5) 0.106(11) 0.000(6) -0.017(7) 0.008(5)
C55 0.045(6) 0.031(5) 0.090(9) 0.020(5) -0.027(6) -0.012(5)
C56 0.042(7) 0.080(9) 0.173(15) 0.065(10) -0.045(8) -0.031(7)
C57 0.043(6) 0.027(5) 0.098(9) 0.024(5) -0.001(6) -0.002(5)
C58 0.047(6) 0.033(5) 0.081(8) 0.006(5) -0.017(6) -0.021(5)
C59 0.070(8) 0.036(6) 0.106(10) 0.016(6) -0.007(8) -0.016(6)
C60 0.062(8) 0.068(8) 0.114(11) 0.040(8) -0.022(8) -0.038(7)
C61 0.035(5) 0.037(5) 0.051(6) 0.007(4) -0.008(5) -0.020(4)
C62 0.031(5) 0.029(5) 0.061(6) 0.019(4) -0.020(5) -0.014(4)
C63 0.040(5) 0.042(6) 0.065(7) 0.012(5) -0.025(5) -0.023(5)
C64 0.028(5) 0.033(5) 0.064(7) 0.011(5) -0.012(5) -0.012(4)
C65 0.034(5) 0.030(5) 0.068(7) 0.021(4) -0.018(5) -0.021(4)
C66 0.044(6) 0.046(6) 0.069(7) 0.013(5) -0.024(5) -0.030(5)
N3 0.135(10) 0.051(6) 0.181(13) 0.009(7) -0.039(9) -0.041(6)
C67 0.088(9) 0.125(12) 0.192(15) -0.017(11) -0.015(10) -0.065(7)
C68 0.111(10) 0.087(10) 0.158(13) -0.008(8) -0.016(9) -0.059(7)
C69 0.099(9) 0.092(10) 0.176(14) -0.006(9) 0.025(9) -0.052(7)
C70 0.129(11) 0.062(8) 0.074(9) -0.006(7) 0.042(7) -0.003(7)
C71 0.158(13) 0.074(10) 0.119(12) 0.006(8) 0.011(10) -0.008(9)
C72 0.222(16) 0.121(14) 0.33(2) -0.059(16) -0.123(16) 0.048(12)
C73 0.214(19) 0.176(17) 0.31(2) -0.119(17) -0.157(16) 0.074(13)
C74 0.165(16) 0.109(11) 0.32(2) 0.008(13) -0.117(14) -0.012(10)
C75 0.23(2) 0.129(14) 0.35(3) 0.024(15) -0.184(17) 0.002(13)
C76 0.156(18) 0.142(15) 0.39(3) -0.029(17) -0.135(16) 0.015(13)
N4 0.125(12) 0.085(9) 0.35(2) 0.034(12) -0.046(12) -0.046(9)
C77 0.106(13) 0.078(10) 0.26(2) 0.029(11) 0.018(12) -0.044(8)
C78 0.143(14) 0.093(10) 0.217(17) 0.056(11) -0.014(12) -0.058(9)
loop_
_atom_type_symbol
_atom_type_description
_atom_type_scat_dispersion_real
_atom_type_scat_dispersion_imag
_atom_type_scat_source
C C 0.0033 0.0016 'International Tables Vol C Tables 4.2.6.8 and 6.1.1.4'
H H 0.0000 0.0000 'International Tables Vol C Tables 4.2.6.8 and 6.1.1.4'
N N 0.0061 0.0033 'International Tables Vol C Tables 4.2.6.8 and 6.1.1.4'
O O 0.0106 0.0060 'International Tables Vol C Tables 4.2.6.8 and 6.1.1.4'
Cd Cd -0.8075 1.2024 'International Tables Vol C Tables 4.2.6.8 and 6.1.1.4'
loop_
_geom_angle_atom_site_label_1
_geom_angle_atom_site_label_2
_geom_angle_atom_site_label_3
_geom_angle
_geom_angle_site_symmetry_1
_geom_angle_site_symmetry_3
_geom_angle_publ_flag
O6 Cd1 O8 177.9(2) 1_655 . ?
O6 Cd1 O2W 86.1(2) 1_655 . ?
O8 Cd1 O2W 93.9(3) . . ?
O6 Cd1 O1W 94.3(3) 1_655 . ?
O8 Cd1 O1W 85.9(3) . . ?
O2W Cd1 O1W 176.9(3) . . ?
O6 Cd1 O10 88.8(2) 1_655 1_655 ?
O8 Cd1 O10 89.1(2) . 1_655 ?
O2W Cd1 O10 86.5(3) . 1_655 ?
O1W Cd1 O10 96.6(3) . 1_655 ?
O6 Cd1 O2 90.7(2) 1_655 . ?
O8 Cd1 O2 91.5(2) . . ?
O2W Cd1 O2 94.5(2) . . ?
O1W Cd1 O2 82.5(2) . . ?
O10 Cd1 O2 178.83(19) 1_655 . ?
O5 Cd2 N1 94.9(3) 1_655 . ?
O5 Cd2 O2 97.0(2) 1_655 . ?
N1 Cd2 O2 145.1(3) . . ?
O5 Cd2 O4 139.1(3) 1_655 1_565 ?
N1 Cd2 O4 93.7(3) . 1_565 ?
O2 Cd2 O4 98.4(2) . 1_565 ?
O5 Cd2 O3 82.8(3) 1_655 1_565 ?
N1 Cd2 O3 100.1(3) . 1_565 ?
O2 Cd2 O3 113.9(3) . 1_565 ?
O4 Cd2 O3 56.3(2) 1_565 1_565 ?
O5 Cd2 O1 115.8(3) 1_655 . ?
N1 Cd2 O1 90.1(3) . . ?
O2 Cd2 O1 55.2(2) . . ?
O4 Cd2 O1 104.1(3) 1_565 . ?
O3 Cd2 O1 158.1(2) 1_565 . ?
O5 Cd2 C20 111.8(3) 1_655 1_565 ?
N1 Cd2 C20 96.7(3) . 1_565 ?
O2 Cd2 C20 108.9(3) . 1_565 ?
O4 Cd2 C20 27.4(2) 1_565 1_565 ?
O3 Cd2 C20 29.0(2) 1_565 1_565 ?
O1 Cd2 C20 131.1(3) . 1_565 ?
O5 Cd2 C13 109.5(3) 1_655 . ?
N1 Cd2 C13 117.7(3) . . ?
O2 Cd2 C13 27.6(2) . . ?
O4 Cd2 C13 101.5(2) 1_565 . ?
O3 Cd2 C13 138.1(3) 1_565 . ?
O1 Cd2 C13 27.6(2) . . ?
C20 Cd2 C13 122.6(3) 1_565 . ?
O7 Cd3 O12 104.8(4) . 1_645 ?
O7 Cd3 O11 101.6(4) . 1_645 ?
O12 Cd3 O11 52.1(4) 1_645 1_645 ?
O7 Cd3 O9 121.8(3) . 1_655 ?
O12 Cd3 O9 131.9(4) 1_645 1_655 ?
O11 Cd3 O9 121.4(4) 1_645 1_655 ?
O7 Cd3 N2 87.9(3) . 1_456 ?
O12 Cd3 N2 84.4(4) 1_645 1_456 ?
O11 Cd3 N2 136.5(4) 1_645 1_456 ?
O9 Cd3 N2 85.9(3) 1_655 1_456 ?
O7 Cd3 O10 95.4(2) . 1_655 ?
O12 Cd3 O10 136.3(3) 1_645 1_655 ?
O11 Cd3 O10 86.3(3) 1_645 1_655 ?
O9 Cd3 O10 54.9(2) 1_655 1_655 ?
N2 Cd3 O10 135.4(3) 1_456 1_655 ?
O7 Cd3 C47 111.2(3) . 1_655 ?
O12 Cd3 C47 140.8(4) 1_645 1_655 ?
O11 Cd3 C47 104.4(4) 1_645 1_655 ?
O9 Cd3 C47 27.3(2) 1_655 1_655 ?
N2 Cd3 C47 111.4(3) 1_456 1_655 ?
O10 Cd3 C47 27.6(2) 1_655 1_655 ?
O7 Cd3 C54 107.2(3) . 1_645 ?
O12 Cd3 C54 25.6(4) 1_645 1_645 ?
O11 Cd3 C54 26.7(4) 1_645 1_645 ?
O9 Cd3 C54 129.1(4) 1_655 1_645 ?
N2 Cd3 C54 109.9(4) 1_456 1_645 ?
O10 Cd3 C54 111.3(3) 1_655 1_645 ?
C47 Cd3 C54 123.5(3) 1_655 1_645 ?
C13 O1 Cd2 89.0(5) . . ?
C13 O2 Cd2 93.8(5) . . ?
C13 O2 Cd1 129.0(5) . . ?
Cd2 O2 Cd1 111.9(2) . . ?
C20 O3 Cd2 88.8(5) . 1_545 ?
C20 O4 Cd2 92.1(5) . 1_545 ?
C27 O5 Cd2 129.5(6) . 1_455 ?
C27 O6 Cd1 130.3(6) . 1_455 ?
C40 O7 Cd3 121.9(6) . . ?
C40 O8 Cd1 128.8(6) . . ?
C47 O9 Cd3 94.9(6) . 1_455 ?
C47 O10 Cd1 131.0(6) . 1_455 ?
C47 O10 Cd3 92.1(5) . 1_455 ?
Cd1 O10 Cd3 112.1(2) 1_455 1_455 ?
C54 O11 Cd3 97.1(8) . 1_465 ?
C54 O12 Cd3 98.9(9) . 1_465 ?
Cd1 O1W H1W1 113.4 . . ?
Cd1 O1W H2W1 127.4 . . ?
H1W1 O1W H2W1 107.7 . . ?
Cd1 O2W H1W2 143.7 . . ?
Cd1 O2W H2W2 108.5 . . ?
H1W2 O2W H2W2 107.7 . . ?
C5 N1 C1 114.7(10) . . ?
C5 N1 Cd2 122.0(8) . . ?
C1 N1 Cd2 123.3(7) . . ?
C11 N2 C10 118.1(11) . . ?
C11 N2 Cd3 118.0(9) . 1_654 ?
C10 N2 Cd3 124.0(7) . 1_654 ?
N1 C1 C2 124.4(11) . . ?
N1 C1 H1A 117.8 . . ?
C2 C1 H1A 117.8 . . ?
C3 C2 C1 115.0(11) . . ?
C3 C2 H2A 122.5 . . ?
C1 C2 H2A 122.5 . . ?
C4 C3 C2 121.5(11) . . ?
C4 C3 C6 119.7(13) . . ?
C2 C3 C6 118.8(12) . . ?
C3 C4 C5 118.6(12) . . ?
C3 C4 H4A 120.7 . . ?
C5 C4 H4A 120.7 . . ?
N1 C5 C4 125.6(12) . . ?
N1 C5 H5A 117.2 . . ?
C4 C5 H5A 117.2 . . ?
C7 C6 C3 129.3(14) . . ?
C7 C6 H6A 115.3 . . ?
C3 C6 H6A 115.3 . . ?
C6 C7 C8 122.4(15) . . ?
C6 C7 H7A 118.8 . . ?
C8 C7 H7A 118.8 . . ?
C12 C8 C9 117.5(11) . . ?
C12 C8 C7 121.4(12) . . ?
C9 C8 C7 121.0(13) . . ?
C10 C9 C8 121.5(12) . . ?
C10 C9 H9A 119.3 . . ?
C8 C9 H9A 119.3 . . ?
C9 C10 N2 121.5(10) . . ?
C9 C10 H10A 119.3 . . ?
N2 C10 H10A 119.3 . . ?
N2 C11 C12 122.3(12) . . ?
N2 C11 H11A 118.8 . . ?
C12 C11 H11A 118.8 . . ?
C8 C12 C11 118.8(11) . . ?
C8 C12 H12A 120.6 . . ?
C11 C12 H12A 120.6 . . ?
O1 C13 O2 121.8(8) . . ?
O1 C13 C14 118.8(8) . . ?
O2 C13 C14 119.4(8) . . ?
O1 C13 Cd2 63.4(5) . . ?
O2 C13 Cd2 58.6(4) . . ?
C14 C13 Cd2 175.0(6) . . ?
C19 C14 C15 120.3(8) . . ?
C19 C14 C13 120.9(8) . . ?
C15 C14 C13 118.4(8) . . ?
C16 C15 C14 119.3(9) . . ?
C16 C15 H15A 120.4 . . ?
C14 C15 H15A 120.4 . . ?
C15 C16 C17 120.3(9) . . ?
C15 C16 H16A 119.9 . . ?
C17 C16 H16A 119.9 . . ?
C16 C17 C18 120.8(9) . . ?
C16 C17 C34 118.3(9) . . ?
C18 C17 C34 120.8(8) . . ?
C17 C18 C19 118.4(9) . . ?
C17 C18 H18A 120.8 . . ?
C19 C18 H18A 120.8 . . ?
C14 C19 C18 120.5(8) . . ?
C14 C19 H19A 119.8 . . ?
C18 C19 H19A 119.8 . . ?
O4 C20 O3 122.6(8) . . ?
O4 C20 C21 121.0(8) . . ?
O3 C20 C21 116.2(8) . . ?
O4 C20 Cd2 60.5(5) . 1_545 ?
O3 C20 Cd2 62.2(5) . 1_545 ?
C21 C20 Cd2 178.4(6) . 1_545 ?
C26 C21 C22 118.9(9) . . ?
C26 C21 C20 121.9(8) . . ?
C22 C21 C20 119.2(9) . . ?
C23 C22 C21 121.1(9) . . ?
C23 C22 H22A 119.5 . . ?
C21 C22 H22A 119.5 . . ?
C22 C23 C24 119.4(9) . . ?
C22 C23 H23A 120.3 . . ?
C24 C23 H23A 120.3 . . ?
C25 C24 C23 117.8(9) . . ?
C25 C24 C36 120.7(9) . . ?
C23 C24 C36 121.2(8) . . ?
C24 C25 C26 122.5(10) . . ?
C24 C25 H25A 118.8 . . ?
C26 C25 H25A 118.8 . . ?
C21 C26 C25 119.8(9) . . ?
C21 C26 H26A 120.1 . . ?
C25 C26 H26A 120.1 . . ?
O5 C27 O6 126.4(8) . . ?
O5 C27 C28 116.2(8) . . ?
O6 C27 C28 117.4(8) . . ?
C29 C28 C33 118.3(9) . . ?
C29 C28 C27 120.8(9) . . ?
C33 C28 C27 120.9(8) . . ?
C28 C29 C30 121.4(9) . . ?
C28 C29 H29A 119.3 . . ?
C30 C29 H29A 119.3 . . ?
C31 C30 C29 119.8(9) . . ?
C31 C30 H30A 120.1 . . ?
C29 C30 H30A 120.1 . . ?
C32 C31 C30 118.9(8) . . ?
C32 C31 C38 121.4(9) . . ?
C30 C31 C38 119.7(9) . . ?
C31 C32 C33 120.8(9) . . ?
C31 C32 H32A 119.6 . . ?
C33 C32 H32A 119.6 . . ?
C28 C33 C32 120.9(9) . . ?
C28 C33 H33A 119.6 . . ?
C32 C33 H33A 119.6 . . ?
C35 C34 C39 117.4(8) . . ?
C35 C34 C17 121.2(8) . . ?
C39 C34 C17 121.1(8) . . ?
C36 C35 C34 123.1(9) . . ?
C36 C35 H35A 118.5 . . ?
C34 C35 H35A 118.5 . . ?
C35 C36 C37 116.7(8) . . ?
C35 C36 C24 120.5(8) . . ?
C37 C36 C24 122.7(8) . . ?
C38 C37 C36 122.7(8) . . ?
C38 C37 H37A 118.7 . . ?
C36 C37 H37A 118.7 . . ?
C37 C38 C39 118.6(8) . . ?
C37 C38 C31 120.7(8) . . ?
C39 C38 C31 120.7(8) . . ?
C38 C39 C34 121.3(8) . . ?
C38 C39 H39A 119.3 . . ?
C34 C39 H39A 119.3 . . ?
O8 C40 O7 125.8(8) . . ?
O8 C40 C41 117.3(8) . . ?
O7 C40 C41 116.9(8) . . ?
C46 C41 C42 119.5(8) . . ?
C46 C41 C40 119.4(8) . . ?
C42 C41 C40 121.2(8) . . ?
C41 C42 C43 119.7(8) . . ?
C41 C42 H42A 120.2 . . ?
C43 C42 H42A 120.2 . . ?
C44 C43 C42 120.9(9) . . ?
C44 C43 H43A 119.5 . . ?
C42 C43 H43A 119.5 . . ?
C43 C44 C45 118.1(8) . . ?
C43 C44 C61 120.2(8) . . ?
C45 C44 C61 121.7(7) . . ?
C44 C45 C46 120.1(9) . . ?
C44 C45 H45A 120.0 . . ?
C46 C45 H45A 120.0 . . ?
C41 C46 C45 121.7(9) . . ?
C41 C46 H46A 119.2 . . ?
C45 C46 H46A 119.2 . . ?
O10 C47 O9 118.0(8) . . ?
O10 C47 C48 119.2(8) . . ?
O9 C47 C48 122.5(9) . . ?
O10 C47 Cd3 60.3(5) . 1_455 ?
O9 C47 Cd3 57.8(5) . 1_455 ?
C48 C47 Cd3 173.1(7) . 1_455 ?
C49 C48 C53 119.4(10) . . ?
C49 C48 C47 123.4(9) . . ?
C53 C48 C47 117.2(9) . . ?
C50 C49 C48 120.8(10) . . ?
C50 C49 H49A 119.6 . . ?
C48 C49 H49A 119.6 . . ?
C49 C50 C51 120.9(10) . . ?
C49 C50 H50A 119.5 . . ?
C51 C50 H50A 119.5 . . ?
C52 C51 C50 118.7(9) . . ?
C52 C51 C63 120.4(10) . . ?
C50 C51 C63 120.8(9) . . ?
C53 C52 C51 121.1(10) . . ?
C53 C52 H52A 119.4 . . ?
C51 C52 H52A 119.4 . . ?
C52 C53 C48 118.9(10) . . ?
C52 C53 H53A 120.5 . . ?
C48 C53 H53A 120.5 . . ?
O12 C54 O11 110.9(10) . . ?
O12 C54 C55 124.7(13) . . ?
O11 C54 C55 124.2(12) . . ?
O12 C54 Cd3 55.4(6) . 1_465 ?
O11 C54 Cd3 56.2(6) . 1_465 ?
C55 C54 Cd3 176.1(10) . 1_465 ?
C56 C55 C60 118.1(10) . . ?
C56 C55 C54 121.3(11) . . ?
C60 C55 C54 120.2(11) . . ?
C55 C56 C57 123.2(12) . . ?
C55 C56 H56A 118.4 . . ?
C57 C56 H56A 118.4 . . ?
C58 C57 C56 119.8(10) . . ?
C58 C57 H57A 120.1 . . ?
C56 C57 H57A 120.1 . . ?
C57 C58 C59 116.6(9) . . ?
C57 C58 C65 122.1(9) . . ?
C59 C58 C65 121.1(10) . . ?
C58 C59 C60 122.2(11) . . ?
C58 C59 H59A 118.9 . . ?
C60 C59 H59A 118.9 . . ?
C55 C60 C59 119.8(11) . . ?
C55 C60 H60A 120.1 . . ?
C59 C60 H60A 120.1 . . ?
C62 C61 C66 119.7(8) . . ?
C62 C61 C44 120.1(8) . . ?
C66 C61 C44 120.2(8) . . ?
C61 C62 C63 120.0(8) . . ?
C61 C62 H62A 120.0 . . ?
C63 C62 H62A 120.0 . . ?
C64 C63 C62 118.9(8) . . ?
C64 C63 C51 119.0(8) . . ?
C62 C63 C51 122.0(8) . . ?
C65 C64 C63 121.6(8) . . ?
C65 C64 H64A 119.2 . . ?
C63 C64 H64A 119.2 . . ?
C66 C65 C64 118.0(8) . . ?
C66 C65 C58 122.8(8) . . ?
C64 C65 C58 119.2(8) . . ?
C65 C66 C61 121.7(8) . . ?
C65 C66 H66A 119.1 . . ?
C61 C66 H66A 119.1 . . ?
C67 N3 C71 120.0 . . ?
C68 C67 N3 120.0 . . ?
C68 C67 H67A 120.0 . . ?
N3 C67 H67A 120.0 . . ?
C67 C68 C69 120.0 . . ?
C67 C68 H68A 120.0 . . ?
C69 C68 H68A 120.0 . . ?
C70 C69 C68 120.0 . . ?
C70 C69 C72 115.4(13) . . ?
C68 C69 C72 123.4(13) . . ?
C69 C70 C71 120.0 . . ?
C69 C70 H70A 120.0 . . ?
C71 C70 H70A 120.0 . . ?
C70 C71 N3 120.0 . . ?
C70 C71 H71A 120.0 . . ?
N3 C71 H71A 120.0 . . ?
C73 C72 C69 134(2) . . ?
C73 C72 H72A 112.8 . . ?
C69 C72 H72A 112.8 . . ?
C72 C73 C74 134(2) . . ?
C72 C73 H73A 113.2 . . ?
C74 C73 H73A 113.2 . . ?
C75 C74 C78 120.0 . . ?
C75 C74 C73 121.8(15) . . ?
C78 C74 C73 118.2(15) . . ?
C74 C75 C76 120.0 . . ?
C74 C75 H75A 120.0 . . ?
C76 C75 H75A 120.0 . . ?
C75 C76 N4 120.0 . . ?
C75 C76 H76A 120.0 . . ?
N4 C76 H76A 120.0 . . ?
C77 N4 C76 120.0 . . ?
N4 C77 C78 120.0 . . ?
N4 C77 H77A 120.0 . . ?
C78 C77 H77A 120.0 . . ?
C77 C78 C74 120.0 . . ?
C77 C78 H78A 120.0 . . ?
C74 C78 H78A 120.0 . . ?
loop_
_geom_bond_atom_site_label_1
_geom_bond_atom_site_label_2
_geom_bond_distance
_geom_bond_site_symmetry_2
_geom_bond_publ_flag
Cd1 O6 2.230(6) 1_655 ?
Cd1 O8 2.244(6) . ?
Cd1 O2W 2.248(6) . ?
Cd1 O1W 2.268(7) . ?
Cd1 O10 2.351(6) 1_655 ?
Cd1 O2 2.366(6) . ?
Cd2 O5 2.205(6) 1_655 ?
Cd2 N1 2.246(8) . ?
Cd2 O2 2.303(5) . ?
Cd2 O4 2.315(6) 1_565 ?
Cd2 O3 2.352(6) 1_565 ?
Cd2 O1 2.406(6) . ?
Cd2 C20 2.657(9) 1_565 ?
Cd2 C13 2.692(8) . ?
Cd3 O7 2.241(6) . ?
Cd3 O12 2.281(9) 1_645 ?
Cd3 O11 2.291(10) 1_645 ?
Cd3 O9 2.309(7) 1_655 ?
Cd3 N2 2.308(9) 1_456 ?
Cd3 O10 2.365(6) 1_655 ?
Cd3 C47 2.720(9) 1_655 ?
Cd3 C54 2.737(10) 1_645 ?
O1 C13 1.248(10) . ?
O2 C13 1.251(10) . ?
O3 C20 1.287(11) . ?
O4 C20 1.222(11) . ?
O5 C27 1.248(10) . ?
O6 C27 1.233(10) . ?
O7 C40 1.274(10) . ?
O8 C40 1.236(10) . ?
O9 C47 1.254(10) . ?
O10 C47 1.259(10) . ?
O11 C54 1.240(15) . ?
O12 C54 1.198(14) . ?
O1W H1W1 0.8300 . ?
O1W H2W1 0.8299 . ?
O2W H1W2 0.8298 . ?
O2W H2W2 0.8300 . ?
N1 C5 1.323(14) . ?
N1 C1 1.337(12) . ?
N2 C11 1.247(13) . ?
N2 C10 1.391(14) . ?
C1 C2 1.422(14) . ?
C1 H1A 0.9300 . ?
C2 C3 1.391(17) . ?
C2 H2A 0.9300 . ?
C3 C4 1.309(17) . ?
C3 C6 1.515(16) . ?
C4 C5 1.372(16) . ?
C4 H4A 0.9300 . ?
C5 H5A 0.9300 . ?
C6 C7 1.295(16) . ?
C6 H6A 0.9300 . ?
C7 C8 1.454(16) . ?
C7 H7A 0.9300 . ?
C8 C12 1.346(16) . ?
C8 C9 1.361(15) . ?
C9 C10 1.343(15) . ?
C9 H9A 0.9300 . ?
C10 H10A 0.9300 . ?
C11 C12 1.461(16) . ?
C11 H11A 0.9300 . ?
C12 H12A 0.9300 . ?
C13 C14 1.513(11) . ?
C14 C19 1.352(12) . ?
C14 C15 1.381(12) . ?
C15 C16 1.356(11) . ?
C15 H15A 0.9300 . ?
C16 C17 1.377(13) . ?
C16 H16A 0.9300 . ?
C17 C18 1.362(12) . ?
C17 C34 1.519(12) . ?
C18 C19 1.392(11) . ?
C18 H18A 0.9300 . ?
C19 H19A 0.9300 . ?
C20 C21 1.502(12) . ?
C21 C26 1.333(13) . ?
C21 C22 1.391(12) . ?
C22 C23 1.380(13) . ?
C22 H22A 0.9300 . ?
C23 C24 1.390(13) . ?
C23 H23A 0.9300 . ?
C24 C25 1.347(13) . ?
C24 C36 1.465(12) . ?
C25 C26 1.398(12) . ?
C25 H25A 0.9300 . ?
C26 H26A 0.9300 . ?
C27 C28 1.513(12) . ?
C28 C29 1.370(13) . ?
C28 C33 1.383(13) . ?
C29 C30 1.396(13) . ?
C29 H29A 0.9300 . ?
C30 C31 1.388(13) . ?
C30 H30A 0.9300 . ?
C31 C32 1.370(13) . ?
C31 C38 1.484(12) . ?
C32 C33 1.389(12) . ?
C32 H32A 0.9300 . ?
C33 H33A 0.9300 . ?
C34 C35 1.398(12) . ?
C34 C39 1.413(11) . ?
C35 C36 1.360(13) . ?
C35 H35A 0.9300 . ?
C36 C37 1.418(13) . ?
C37 C38 1.372(12) . ?
C37 H37A 0.9300 . ?
C38 C39 1.373(12) . ?
C39 H39A 0.9300 . ?
C40 C41 1.521(11) . ?
C41 C46 1.349(12) . ?
C41 C42 1.373(12) . ?
C42 C43 1.385(12) . ?
C42 H42A 0.9300 . ?
C43 C44 1.390(12) . ?
C43 H43A 0.9300 . ?
C44 C45 1.375(12) . ?
C44 C61 1.522(12) . ?
C45 C46 1.381(12) . ?
C45 H45A 0.9300 . ?
C46 H46A 0.9300 . ?
C47 C48 1.477(13) . ?
C48 C49 1.358(13) . ?
C48 C53 1.425(14) . ?
C49 C50 1.347(12) . ?
C49 H49A 0.9300 . ?
C50 C51 1.398(14) . ?
C50 H50A 0.9300 . ?
C51 C52 1.373(13) . ?
C51 C63 1.508(12) . ?
C52 C53 1.362(13) . ?
C52 H52A 0.9300 . ?
C53 H53A 0.9300 . ?
C54 C55 1.415(13) . ?
C55 C56 1.339(15) . ?
C55 C60 1.393(15) . ?
C56 C57 1.426(14) . ?
C56 H56A 0.9300 . ?
C57 C58 1.399(14) . ?
C57 H57A 0.9300 . ?
C58 C59 1.390(14) . ?
C58 C65 1.470(12) . ?
C59 C60 1.424(15) . ?
C59 H59A 0.9300 . ?
C60 H60A 0.9300 . ?
C61 C62 1.374(12) . ?
C61 C66 1.381(12) . ?
C62 C63 1.392(12) . ?
C62 H62A 0.9300 . ?
C63 C64 1.394(12) . ?
C64 C65 1.374(12) . ?
C64 H64A 0.9300 . ?
C65 C66 1.382(12) . ?
C66 H66A 0.9300 . ?
N3 C67 1.3900 . ?
N3 C71 1.3900 . ?
C67 C68 1.3900 . ?
C67 H67A 0.9300 . ?
C68 C69 1.3900 . ?
C68 H68A 0.9300 . ?
C69 C70 1.3900 . ?
C69 C72 1.512(16) . ?
C70 C71 1.3900 . ?
C70 H70A 0.9300 . ?
C71 H71A 0.9300 . ?
C72 C73 1.208(16) . ?
C72 H72A 0.9300 . ?
C73 C74 1.469(15) . ?
C73 H73A 0.9300 . ?
C74 C75 1.3900 . ?
C74 C78 1.3900 . ?
C75 C76 1.3900 . ?
C75 H75A 0.9300 . ?
C76 N4 1.3900 . ?
C76 H76A 0.9300 . ?
N4 C77 1.3900 . ?
C77 C78 1.3900 . ?
C77 H77A 0.9300 . ?
C78 H78A 0.9300 . ?
loop_
_geom_hbond_atom_site_label_D
_geom_hbond_atom_site_label_H
_geom_hbond_atom_site_label_A
_geom_hbond_distance_DH
_geom_hbond_distance_HA
_geom_hbond_distance_DA
_geom_hbond_angle_DHA
_geom_hbond_site_symmetry_A
O1W H1W1 N4 0.83 2.03 2.792(13) 152.3 .
O1W H2W1 O3 0.83 2.56 3.250(12) 141.3 1_565
O2W H2W2 N3 0.83 1.92 2.727(10) 163.6 1_645
C5 H5A O1 0.93 2.56 3.237(14) 129.9 .
C11 H11A O12 0.93 2.38 2.979(17) 122.2 1_744
C70 H70A O1 0.93 2.64 3.455(11) 146.6 2_666
loop_
_publcif_info_exptl_table_extra_item
sin_theta_over_lambda_max
loop_
_publcif_info_exptl_table_header_item
?
