#------------------------------------------------------------------------------
#$Date: 2020-04-04 13:20:06 +0300 (Sat, 04 Apr 2020) $
#$Revision: 250129 $
#$URL: file:///home/coder/svn-repositories/cod/cif/7/12/63/7126335.cif $
#------------------------------------------------------------------------------
#
# This file is available in the Crystallography Open Database (COD),
# http://www.crystallography.net/
#
# All data on this site have been placed in the public domain by the
# contributors.
#
data_7126335
loop_
_publ_author_name
'Craig, Gavin A.'
'Larpent, Patrick'
'Urabe, Hinano'
'Legrand, Alexandre'
'Bonneau, Mickaele'
'Kusaka, Shinpei'
'Furukawa, Shuhei'
_publ_section_title
;
 Hysteresis in the gas sorption isotherms of metal-organic cages
 accompanied by subtle changes in molecular packing.
;
_journal_issue                   25
_journal_name_full
'Chemical communications (Cambridge, England)'
_journal_page_first              3689
_journal_page_last               3692
_journal_paper_doi               10.1039/d0cc00932f
_journal_volume                  56
_journal_year                    2020
_chemical_formula_moiety         'C108.5 H79 Cu4 N2 O24, 1.4(C4 H9 N O)'
_chemical_formula_sum            'C128.5 H124 Cu4 N7 O29'
_chemical_formula_weight         2484.50
_space_group_crystal_system      monoclinic
_space_group_IT_number           14
_space_group_name_Hall           '-P 2yn'
_space_group_name_H-M_alt        'P 1 21/n 1'
_atom_sites_solution_hydrogens   mixed
_audit_creation_date             2019-10-11
_audit_creation_method
;
Olex2 1.2
(compiled 2018.05.29 svn.r3508 for OlexSys, GUI svn.r5506)
;
_audit_update_record
;
2019-11-18 deposited with the CCDC.	2020-02-24 downloaded from the CCDC.
;
_cell_angle_alpha                90
_cell_angle_beta                 111.254(3)
_cell_angle_gamma                90
_cell_formula_units_Z            2
_cell_length_a                   14.2345(3)
_cell_length_b                   29.3603(5)
_cell_length_c                   16.5980(4)
_cell_measurement_reflns_used    28687
_cell_measurement_temperature    100
_cell_measurement_theta_max      28.5460
_cell_measurement_theta_min      2.0990
_cell_volume                     6465.0(3)
_computing_cell_refinement       'CrysAlisPro 1.171.39.43c (Rigaku OD, 2018)'
_computing_data_collection       'CrysAlisPro 1.171.39.43c (Rigaku OD, 2018)'
_computing_data_reduction        'CrysAlisPro 1.171.39.43c (Rigaku OD, 2018)'
_computing_molecular_graphics    'Olex2 (Dolomanov et al., 2009)'
_computing_publication_material  'Olex2 (Dolomanov et al., 2009)'
_computing_structure_refinement  'ShelXL (Sheldrick, 2015)'
_computing_structure_solution    'SHELXT 2014/5 (Sheldrick, 2014)'
_diffrn_ambient_temperature      100
_diffrn_detector                 'CCD plate'
_diffrn_measured_fraction_theta_full 0.998
_diffrn_measured_fraction_theta_max 0.916
_diffrn_measurement_details
;
List of Runs (angles in degrees, time in seconds):

  # Type    Start    End  Width  t~exp~   \w     \q     \k     \f   Frames
#--------------------------------------------------------------------------
  1  \w   -110.00  67.00   0.30   16.00    --  -20.60  45.00 -18.92  590
  2  \w   -110.00  67.00   0.30   16.00    --  -20.60  45.00 -18.92  590
  3  \w     18.00  67.20   0.30   16.00    --  -20.60  45.00  -6.80  164
  4  \w    -86.00 -60.20   0.30   16.00    --  -20.60  45.00  60.00   86
  5  \w    -19.00  63.20   0.30   16.00    --  -20.60  45.00  60.00  274
  6  \w   -109.00  67.10   0.30   16.00    --  -20.60  45.00 179.59  587
;
_diffrn_measurement_device       'four-circle diffractometer'
_diffrn_measurement_device_type  'XtaLAB AFC10 (RCD3): fixed-chi single'
_diffrn_measurement_method       '\w scans'
_diffrn_orient_matrix_type
'CrysAlisPro convention (1999,Acta A55,543-557)'
_diffrn_orient_matrix_UB_11      0.0086064000
_diffrn_orient_matrix_UB_12      0.0147329000
_diffrn_orient_matrix_UB_13      0.0358596000
_diffrn_orient_matrix_UB_21      0.0072802000
_diffrn_orient_matrix_UB_22      0.0184840000
_diffrn_orient_matrix_UB_23      -0.0246376000
_diffrn_orient_matrix_UB_31      -0.0522509000
_diffrn_orient_matrix_UB_32      0.0049703000
_diffrn_orient_matrix_UB_33      -0.0145318000
_diffrn_radiation_monochromator  mirror
_diffrn_radiation_probe          x-ray
_diffrn_radiation_type           MoK\a
_diffrn_radiation_wavelength     0.71073
_diffrn_reflns_av_R_equivalents  0.0370
_diffrn_reflns_av_unetI/netI     0.0265
_diffrn_reflns_Laue_measured_fraction_full 0.998
_diffrn_reflns_Laue_measured_fraction_max 0.916
_diffrn_reflns_limit_h_max       19
_diffrn_reflns_limit_h_min       -19
_diffrn_reflns_limit_k_max       36
_diffrn_reflns_limit_k_min       -39
_diffrn_reflns_limit_l_max       22
_diffrn_reflns_limit_l_min       -22
_diffrn_reflns_number            78471
_diffrn_reflns_point_group_measured_fraction_full 0.998
_diffrn_reflns_point_group_measured_fraction_max 0.916
_diffrn_reflns_theta_full        25.242
_diffrn_reflns_theta_max         29.075
_diffrn_reflns_theta_min         1.912
_diffrn_source                   'Rotating-anode X-ray tube'
_diffrn_source_type              'Rigaku (Mo) X-ray Source'
_exptl_absorpt_coefficient_mu    0.723
_exptl_absorpt_correction_T_max  1.00000
_exptl_absorpt_correction_T_min  0.92561
_exptl_absorpt_correction_type   multi-scan
_exptl_absorpt_process_details
;
CrysAlisPro 1.171.39.43c (Rigaku Oxford Diffraction, 2018)
Empirical absorption correction using spherical harmonics,
 implemented in SCALE3 ABSPACK scaling algorithm.
;
_exptl_crystal_colour            blue
_exptl_crystal_colour_primary    blue
_exptl_crystal_density_diffrn    1.276
_exptl_crystal_description       block
_exptl_crystal_F_000             2584
_exptl_crystal_preparation       'Gas sorption measurements'
_exptl_crystal_size_max          0.15
_exptl_crystal_size_mid          0.1
_exptl_crystal_size_min          0.1
_refine_diff_density_max         0.979
_refine_diff_density_min         -0.598
_refine_diff_density_rms         0.084
_refine_ls_extinction_method     none
_refine_ls_goodness_of_fit_ref   1.072
_refine_ls_hydrogen_treatment    constr
_refine_ls_matrix_type           full
_refine_ls_number_parameters     737
_refine_ls_number_reflns         15871
_refine_ls_number_restraints     112
_refine_ls_restrained_S_all      1.083
_refine_ls_R_factor_all          0.0754
_refine_ls_R_factor_gt           0.0602
_refine_ls_shift/su_max          0.005
_refine_ls_shift/su_mean         0.000
_refine_ls_structure_factor_coef Fsqd
_refine_ls_weighting_details
'w=1/[\s^2^(Fo^2^)+(0.0784P)^2^+9.0344P] where P=(Fo^2^+2Fc^2^)/3'
_refine_ls_weighting_scheme      calc
_refine_ls_wR_factor_gt          0.1634
_refine_ls_wR_factor_ref         0.1746
_reflns_Friedel_coverage         0.000
_reflns_number_gt                12704
_reflns_number_total             15871
_reflns_threshold_expression     'I > 2\s(I)'
_cod_data_source_file            d0cc00932f2.cif
_cod_data_source_block           gac354_sq
_cod_original_formula_sum        'C128.50 H124 Cu4 N7 O29'
_cod_database_code               7126335
_shelx_shelxl_version_number     2018/3
_chemical_oxdiff_formula         'Cu4 C100 H65 O10 N2'
_shelx_space_group_comment
;
The symmetry employed for this shelxl refinement is uniquely defined
by the following loop, which should always be used as a source of
symmetry information in preference to the above space-group names.
They are only intended as comments.
;
_shelx_estimated_absorpt_t_max   0.931
_shelx_estimated_absorpt_t_min   0.899
_reflns_odcompleteness_completeness 99.59
_reflns_odcompleteness_iscentric 1
_reflns_odcompleteness_theta     27.04
_olex2_refinement_description
;
1. Fixed Uiso
 At 1.2 times of:
  All C(H) groups
 At 1.5 times of:
  All C(H,H,H) groups, All O(H,H) groups
2. Restrained distances
 O60-H60A = O60-H60B
 0.88 with sigma of 0.01
 H60A-H60B
 1.33 with sigma of 0.02
 C80-N82 = N2S-C5S
 1.35 with sigma of 0.01
 N82-C83 = N2S-C8S = N2S-C7S
 1.46 with sigma of 0.01
 N82-C84
 1.46 with sigma of 0.01
 C81-C84
 2.88 with sigma of 0.02
 C83-C84
 2.5 with sigma of 0.02
 C5S-C6S
 1.5 with sigma of 0.01
3. Rigid bond restraints
 O70, C71, N72, C74, C75, C73
 with sigma for 1-2 distances of 0.005 and sigma for 1-3 distances of 0.005
 O1S, N1S, C3S, C2S, C4S, C1S
 with sigma for 1-2 distances of 0.01 and sigma for 1-3 distances of 0.01
4. Uiso/Uaniso restraints and constraints
O70 \\sim C71 \\sim N72 \\sim C74 \\sim C75 \\sim C73: within 1.7A with sigma
of 0.02 and sigma for terminal atoms of 0.02
O1S \\sim N1S \\sim C3S \\sim C2S \\sim C4S \\sim C1S: within 1.7A with sigma
of 0.02 and sigma for terminal atoms of 0.02
Uanis(N72) \\sim Ueq, Uanis(C74) \\sim Ueq, Uanis(C75) \\sim Ueq: with sigma of
0.007 and sigma for terminal atoms of 0.014
Uanis(O70) = Uanis(O80)
Uanis(N82) = Uanis(N72)
Uanis(C80) = Uanis(C71)
Uanis(C81) = Uanis(C73)
Uanis(C83) = Uanis(C74)
Uanis(C84) = Uanis(C75)
5. Others
 Sof(O80)=Sof(C80)=Sof(C81)=Sof(H81A)=Sof(H81B)=Sof(H81C)=Sof(C83)=Sof(H83A)=
 Sof(H83B)=Sof(H83C)=Sof(N82)=Sof(C84)=Sof(H84A)=Sof(H84B)=Sof(H84C)=1-FVAR(1)
 Sof(O70)=Sof(C71)=Sof(N72)=Sof(C74)=Sof(H74A)=Sof(H74B)=Sof(H74C)=Sof(C75)=
 Sof(H75A)=Sof(H75B)=Sof(H75C)=Sof(C73)=Sof(H73A)=Sof(H73B)=Sof(H73C)=FVAR(1)
 Fixed Sof: H60A(0.75) O1S(0.5) N1S(0.5) C3S(0.5) H3SA(0.5) H3SB(0.5)
 H3SC(0.5) C2S(0.5) H2SA(0.5) H2SB(0.5) H2SC(0.5) C4S(0.5) H4SA(0.5) H4SB(0.5)
 H4SC(0.5) C1S(0.5) C61(0.25) H61A(0.25) H61B(0.25) H61C(0.25) O4S(0.2)
 C5S(0.2) N2S(0.2) C7S(0.2) H7SA(0.2) H7SB(0.2) H7SC(0.2) C6S(0.2) H6SA(0.2)
 H6SB(0.2) H6SC(0.2) C8S(0.2) H8SA(0.2) H8SB(0.2) H8SC(0.2)
6.a Fixed occupancy and ADP/Uiso:
 H60A, H60B
6.b Riding coordinates:
 C81(H81A,H81B,H81C), C83(H83A,H83B,H83C)
6.c Me refined with riding coordinates:
 C74(H74A,H74B,H74C), C84(H84A,H84B,H84C), C7S(H7SA,H7SB,H7SC), C6S(H6SA,H6SB,
 H6SC), C8S(H8SA,H8SB,H8SC)
6.d Aromatic/amide H refined with riding coordinates:
 C6(H6), C14(H14), C23(H23), C21(H21), C48(H48), C20(H20), C12(H12), C2(H2),
 C10(H10), C37(H37), C39(H39), C4(H4), C19(H19), C27(H27), C35(H35), C45(H45),
 C44(H44), C11(H11), C46(H46), C36(H36), C31(H31), C29(H29)
6.e Idealised Me refined as rotating group:
 C25(H25A,H25B,H25C), C50(H50A,H50B,H50C), C75(H75A,H75B,H75C), C73(H73A,H73B,
 H73C), C3S(H3SA,H3SB,H3SC), C2S(H2SA,H2SB,H2SC), C4S(H4SA,H4SB,H4SC), C61(H61A,
 H61B,H61C)
;
_shelx_res_file
;
TITL gac354_a.res in P2(1)/n
    gac354_sq.res
    created by SHELXL-2018/3 at 16:23:30 on 11-Oct-2019
CELL 0.71073 14.2345 29.3603 16.598 90 111.254 90
ZERR 2 0.0003 0.0005 0.0004 0 0.003 0
LATT 1
SYMM 0.5-X,0.5+Y,0.5-Z
SFAC C H Cu N O
UNIT 257 248 8 14 58
DFIX 0.88 0.01 O60 H60a O60 H60b
DFIX 1.33 H60a H60b
DFIX 1.35 0.01 C80 N82 N2S C5S
DFIX 1.46 0.01 N82 C83 N2S C8S N2S C7S
DFIX 1.46 0.01 N82 C84
DFIX 2.88 C81 C84
DFIX 2.5 C83 C84
DFIX 1.5 0.01 C5S C6S
DELU 0.005 0.005 O70 C71 N72 C74 C75 C73
DELU O1S N1S C3S C2S C4S C1S
SIMU 0.02 0.02 1.7 O70 C71 N72 C74 C75 C73
SIMU 0.02 0.02 1.7 O1S N1S C3S C2S C4S C1S
ISOR 0.007 0.014 N72 C74 C75
EADP O70 O80
EADP N82 N72
EADP C80 C71
EADP C81 C73
EADP C83 C74
EADP C84 C75

L.S. 10 0 106
PLAN  10
SIZE 0.1 0.1 0.15
ABIN
fmap 2 53 53
acta
MERG 2
OMIT 1 2 1
OMIT 1 4 0
OMIT 0 3 1
OMIT -1 2 1
OMIT -2 0 4
REM <olex2.extras>
REM <HklSrc "%.\\gac354_sq.hkl">
REM </olex2.extras>

WGHT    0.078400    9.034399
FVAR       0.20794   0.73256
CU1   3   -0.161887    0.643809    0.116025    11.00000    0.03477    0.02731 =
         0.03573    0.00136    0.01461    0.00026
CU2   3    0.092171    0.406481    0.743242    11.00000    0.03475    0.02616 =
         0.03678    0.00112    0.01274    0.00055
O9    5   -0.019750    0.657965    0.139087    11.00000    0.03531    0.04524 =
         0.04491    0.00406    0.01272   -0.00413
O7    5    0.292594    0.376794    0.883361    11.00000    0.03554    0.04088 =
         0.04921    0.01004    0.01851    0.00080
O2    5   -0.163705    0.693525    0.194138    11.00000    0.05647    0.03262 =
         0.04442   -0.00271    0.02122    0.00311
O4    5    0.148833    0.413161    0.941293    11.00000    0.04747    0.03110 =
         0.04541   -0.00280    0.01818    0.00069
O10   5    0.038861    0.610965    0.252639    11.00000    0.03503    0.04495 =
         0.05526    0.00826    0.01414   -0.00145
O8    5    0.233465    0.416303    0.759276    11.00000    0.03633    0.04287 =
         0.04621    0.00768    0.01632   -0.00272
O5    5    0.100988    0.456824    0.822207    11.00000    0.05807    0.02864 =
         0.04684   -0.00442    0.02148    0.00283
O3    5   -0.095022    0.651190    0.313745    11.00000    0.06017    0.03293 =
         0.04040   -0.00386    0.01808    0.00085
O1    5    0.197027    0.812552    0.928692    11.00000    0.05297    0.03096 =
         0.04360   -0.00968    0.02057   -0.00446
O60   5    0.029713    0.444511    0.625683    11.00000    0.07467    0.05900 =
         0.05904    0.02102    0.00629    0.00198
PART 1
AFIX   2
H60A  2    0.064456    0.455613    0.594731    10.75000   -1.50000
AFIX   2
H60B  2   -0.013418    0.429071    0.581178    11.00000   -1.50000
AFIX   0
PART 0
C13   1   -0.125583    0.728391    0.330581    11.00000    0.03348    0.03379 =
         0.04835   -0.00741    0.02088   -0.00772
C22   1    0.125659    0.491891    0.955836    11.00000    0.02543    0.03181 =
         0.05019   -0.00732    0.01593   -0.00307
C49   1    0.049324    0.639922    0.200583    11.00000    0.03948    0.03278 =
         0.03724   -0.00641    0.01572   -0.00536
O6    5    0.780555    0.640590    0.691117    11.00000    0.04778    0.09142 =
         0.06898    0.03008   -0.00099   -0.02579
C6    1    0.149837    0.736578    0.910481    11.00000    0.04071    0.03568 =
         0.04398   -0.00856    0.01751    0.00079
AFIX  43
H6    2    0.177315    0.733580    0.970297    11.00000   -1.20000
AFIX   0
C24   1    0.125355    0.450504    0.901980    11.00000    0.02919    0.02992 =
         0.04789   -0.00572    0.01494   -0.00189
C5    1    0.107851    0.698742    0.859197    11.00000    0.03792    0.03276 =
         0.05861   -0.01110    0.02046   -0.00129
C40   1    0.303129    0.400279    0.823692    11.00000    0.03959    0.02299 =
         0.04463   -0.00420    0.01908   -0.00165
C14   1   -0.083320    0.724089    0.419494    11.00000    0.03377    0.03890 =
         0.04607   -0.00790    0.01447   -0.00413
AFIX  43
H14   2   -0.059262    0.695939    0.444006    11.00000   -1.20000
AFIX   0
C38   1    0.408992    0.410106    0.830522    11.00000    0.03889    0.02456 =
         0.04597   -0.00053    0.01880    0.00010
C23   1    0.119123    0.534753    0.918959    11.00000    0.03130    0.03240 =
         0.04975   -0.00639    0.01635   -0.00237
AFIX  43
H23   2    0.116676    0.537659    0.862438    11.00000   -1.20000
AFIX   0
C1    1    0.150814    0.778737    0.872639    11.00000    0.03540    0.03365 =
         0.04770   -0.01138    0.02003   -0.00165
C8    1   -0.028357    0.757329    0.564727    11.00000    0.04218    0.04717 =
         0.05259   -0.01744    0.01738   -0.00449
C15   1   -0.128329    0.687855    0.275004    11.00000    0.03736    0.03412 =
         0.03925   -0.00310    0.01794   -0.00286
C18   1    0.116230    0.573422    0.966622    11.00000    0.03273    0.03184 =
         0.05949   -0.00953    0.01735   -0.00414
C16   1    0.110998    0.654639    0.898530    11.00000    0.04171    0.03464 =
         0.06047   -0.01361    0.01966   -0.00117
C21   1    0.129543    0.487176    1.039968    11.00000    0.03299    0.03708 =
         0.05060   -0.00362    0.01537   -0.00302
AFIX  43
H21   2    0.135529    0.458470    1.065026    11.00000   -1.20000
AFIX   0
C9    1   -0.076546    0.761680    0.472623    11.00000    0.03743    0.04653 =
         0.04949   -0.01436    0.01793   -0.00653
C47   1    0.156134    0.653232    0.213394    11.00000    0.03672    0.04107 =
         0.04028   -0.00599    0.01244   -0.00735
C48   1    0.233548    0.637555    0.285354    11.00000    0.04044    0.04773 =
         0.04414    0.00302    0.01386   -0.00834
AFIX  43
H48   2    0.219266    0.618873    0.324698    11.00000   -1.20000
AFIX   0
C20   1    0.124439    0.525515    1.086228    11.00000    0.04146    0.04950 =
         0.04781   -0.00888    0.02004   -0.00494
AFIX  43
H20   2    0.125387    0.522474    1.142290    11.00000   -1.20000
AFIX   0
C7    1    0.014788    0.752552    0.640360    11.00000    0.04278    0.04622 =
         0.05458   -0.01713    0.01964   -0.00639
C12   1   -0.165280    0.769946    0.293124    11.00000    0.04282    0.03775 =
         0.04789   -0.00369    0.02041   -0.00370
AFIX  43
H12   2   -0.194730    0.772658    0.233348    11.00000   -1.20000
AFIX   0
C17   1    0.112785    0.617915    0.929143    11.00000    0.04076    0.03642 =
         0.06046   -0.01339    0.02027   -0.00398
C2    1    0.107965    0.784134    0.783796    11.00000    0.03612    0.03677 =
         0.04778   -0.00693    0.01974    0.00080
AFIX  43
H2    2    0.108405    0.812406    0.758669    11.00000   -1.20000
AFIX   0
C10   1   -0.116298    0.803500    0.433902    11.00000    0.04933    0.04285 =
         0.06013   -0.02145    0.02365   -0.00695
AFIX  43
H10   2   -0.112618    0.828911    0.468368    11.00000   -1.20000
AFIX   0
C37   1    0.488729    0.388187    0.891680    11.00000    0.04201    0.04271 =
         0.06546    0.01944    0.02469    0.00254
AFIX  43
H37   2    0.476887    0.366991    0.928545    11.00000   -1.20000
AFIX   0
C34   1    0.525381    0.451679    0.782948    11.00000    0.04631    0.03783 =
         0.05528    0.00833    0.02303   -0.00345
C3    1    0.063871    0.746288    0.732267    11.00000    0.03606    0.04499 =
         0.04652   -0.01426    0.01518   -0.00174
C39   1    0.427086    0.441439    0.775661    11.00000    0.04219    0.03161 =
         0.04670    0.00279    0.01940   -0.00180
AFIX  43
H39   2    0.373219    0.455784    0.733580    11.00000   -1.20000
AFIX   0
C4    1    0.065569    0.703771    0.769978    11.00000    0.04045    0.03788 =
         0.05567   -0.01848    0.01532   -0.00520
AFIX  43
H4    2    0.038283    0.678634    0.735292    11.00000   -1.20000
AFIX   0
C43   1    0.333062    0.649468    0.299646    11.00000    0.03674    0.06463 =
         0.04966    0.00715    0.00758   -0.00981
C19   1    0.117985    0.568041    1.050556    11.00000    0.04243    0.04222 =
         0.06104   -0.01890    0.02147   -0.00615
AFIX  43
H19   2    0.114746    0.593544    1.082680    11.00000   -1.20000
AFIX   0
C28   1    0.540565    0.605716    0.525091    11.00000    0.03800    0.05879 =
         0.05382    0.00963    0.01860   -0.00586
C27   1    0.629017    0.630885    0.565295    11.00000    0.03986    0.05428 =
         0.05391    0.01634    0.01869   -0.00627
AFIX  43
H27   2    0.643517    0.656079    0.537882    11.00000   -1.20000
AFIX   0
C33   1    0.545179    0.486361    0.730047    11.00000    0.04365    0.05533 =
         0.06265    0.01259    0.02083   -0.00626
C35   1    0.604670    0.429436    0.843791    11.00000    0.03702    0.06018 =
         0.08157    0.02564    0.02387   -0.00366
AFIX  43
H35   2    0.670461    0.435686    0.848367    11.00000   -1.20000
AFIX   0
C30   1    0.585607    0.555209    0.646823    11.00000    0.04604    0.05735 =
         0.06735    0.01816    0.02912   -0.00366
C45   1    0.275107    0.691393    0.165295    11.00000    0.04503    0.07051 =
         0.05619    0.01416    0.01404   -0.01490
AFIX  43
H45   2    0.289230    0.708935    0.124419    11.00000   -1.20000
AFIX   0
C44   1    0.352970    0.676505    0.238603    11.00000    0.04013    0.08125 =
         0.05978    0.01552    0.00871   -0.01732
AFIX  43
H44   2    0.419049    0.684618    0.247146    11.00000   -1.20000
AFIX   0
C32   1    0.562481    0.516565    0.690732    11.00000    0.05025    0.06177 =
         0.06914    0.02010    0.02483   -0.00638
C25   1    0.204811    0.856214    0.892709    11.00000    0.06481    0.03598 =
         0.05382   -0.00841    0.03161   -0.00977
AFIX 137
H25A  2    0.138515    0.868238    0.862878    11.00000   -1.50000
H25B  2    0.239251    0.852957    0.852875    11.00000   -1.50000
H25C  2    0.241874    0.876648    0.938309    11.00000   -1.50000
AFIX   0
C11   1   -0.160532    0.807141    0.345573    11.00000    0.04979    0.03378 =
         0.06232   -0.00772    0.02087   -0.00158
AFIX  43
H11   2   -0.187527    0.834875    0.320834    11.00000   -1.20000
AFIX   0
C46   1    0.177145    0.680265    0.152969    11.00000    0.04089    0.05154 =
         0.04211    0.00392    0.00948   -0.00829
AFIX  43
H46   2    0.124861    0.690760    0.104335    11.00000   -1.20000
AFIX   0
C36   1    0.586471    0.397711    0.898262    11.00000    0.04175    0.06910 =
         0.08668    0.04108    0.02070    0.00887
AFIX  43
H36   2    0.640174    0.382763    0.939408    11.00000   -1.20000
AFIX   0
C41   1    0.470577    0.620544    0.442402    11.00000    0.04297    0.06784 =
         0.05773    0.01223    0.01640   -0.00941
C26   1    0.693972    0.617836    0.645710    11.00000    0.03809    0.06252 =
         0.06138    0.01622    0.01261   -0.00952
C31   1    0.672403    0.580546    0.687863    11.00000    0.04542    0.06293 =
         0.05888    0.02080    0.01563   -0.00389
AFIX  43
H31   2    0.715748    0.572635    0.743092    11.00000   -1.20000
AFIX   0
C42   1    0.411004    0.634162    0.376168    11.00000    0.03893    0.07314 =
         0.05200    0.01095    0.00738   -0.01472
C29   1    0.520174    0.567555    0.565489    11.00000    0.03768    0.06271 =
         0.06154    0.01290    0.01769   -0.01057
AFIX  43
H29   2    0.462592    0.550349    0.537843    11.00000   -1.20000
AFIX   0
C50   1    0.806894    0.677412    0.645628    11.00000    0.05711    0.08910 =
         0.08825    0.02373    0.00669   -0.02995
AFIX 137
H50A  2    0.815357    0.665754    0.594646    11.00000   -1.50000
H50B  2    0.868703    0.691173    0.682513    11.00000   -1.50000
H50C  2    0.754136    0.699791    0.629480    11.00000   -1.50000
AFIX   0
PART 1
O70   5   -0.229442    0.683532    0.002919    21.00000    0.04821    0.04519 =
         0.05288    0.01407    0.01649    0.02232
C71   1   -0.217602    0.689704   -0.060570    21.00000    0.07361    0.05887 =
         0.07170    0.02113    0.03490    0.01007
N72   4   -0.286991    0.714926   -0.124098    21.00000    0.10511    0.10781 =
         0.08274    0.04550    0.04172    0.03781
C74   1   -0.278363    0.725574   -0.204852    21.00000    0.20743    0.18517 =
         0.10743    0.07445    0.07989    0.06515
AFIX  33
H74A  2   -0.335314    0.743478   -0.238999    21.00000   -1.50000
H74B  2   -0.217527    0.742526   -0.194979    21.00000   -1.50000
H74C  2   -0.276433    0.697896   -0.235006    21.00000   -1.50000
AFIX   0
C75   1   -0.371568    0.735496   -0.110967    21.00000    0.12761    0.20079 =
         0.18895    0.03339    0.07635    0.08663
AFIX 137
H75A  2   -0.401359    0.757777   -0.155228    21.00000   -1.50000
H75B  2   -0.349516    0.749996   -0.055360    21.00000   -1.50000
H75C  2   -0.420510    0.712501   -0.113512    21.00000   -1.50000
AFIX   0
C73   1   -0.133173    0.668380   -0.078953    21.00000    0.07842    0.09920 =
         0.08034    0.02292    0.04348    0.02217
AFIX 137
H73A  2   -0.101157    0.646021   -0.035442    21.00000   -1.50000
H73B  2   -0.085039    0.691335   -0.078697    21.00000   -1.50000
H73C  2   -0.158619    0.653968   -0.134631    21.00000   -1.50000
AFIX   0

O1S   5    0.861764    0.580532    0.567288    10.50000    0.06911    0.05018 =
         0.07257    0.01450    0.01388    0.00680
N1S   4    0.796380    0.513521    0.574398    10.50000    0.07252    0.04359 =
         0.09702    0.03101    0.03874    0.01667
C3S   1    0.721563    0.517768    0.491430    10.50000    0.05202    0.04709 =
         0.10230    0.01423    0.02863    0.00396
AFIX 137
H3SA  2    0.659983    0.528141    0.496495    10.50000   -1.50000
H3SB  2    0.710533    0.488715    0.462971    10.50000   -1.50000
H3SC  2    0.743165    0.539342    0.458261    10.50000   -1.50000
AFIX   0
C2S   1    0.922506    0.541532    0.703694    10.50000    0.06804    0.08414 =
         0.09206    0.03239    0.00915    0.03809
AFIX 137
H2SA  2    0.884922    0.553543    0.736637    10.50000   -1.50000
H2SB  2    0.984607    0.558030    0.717532    10.50000   -1.50000
H2SC  2    0.936821    0.509919    0.717481    10.50000   -1.50000
AFIX   0
C4S   1    0.781464    0.473191    0.618241    10.50000    0.07448    0.05302 =
         0.12477    0.04024    0.04545    0.01788
AFIX 137
H4SA  2    0.831408    0.472182    0.675584    10.50000   -1.50000
H4SB  2    0.787581    0.446617    0.586801    10.50000   -1.50000
H4SC  2    0.715494    0.473987    0.621462    10.50000   -1.50000
AFIX   0
C1S   1    0.859679    0.546557    0.605704    10.50000    0.06904    0.05016 =
         0.09124    0.02044    0.02613    0.01917

PART 0
PART 2
O80   5   -0.200739    0.674985   -0.001941   -21.00000    0.04821    0.04519 =
         0.05288    0.01407    0.01649    0.02232
C80   1   -0.263047    0.706284   -0.031243   -21.00000    0.07361    0.05887 =
         0.07170    0.02113    0.03490    0.01007
C81   1   -0.337937    0.719863    0.011098   -21.00000    0.07842    0.09920 =
         0.08034    0.02292    0.04348    0.02217
AFIX   3
H81A  2   -0.324837    0.703273    0.063908   -21.00000   -1.50000
H81B  2   -0.406307    0.714693   -0.026792   -21.00000   -1.50000
H81C  2   -0.327807    0.751803    0.023648   -21.00000   -1.50000
AFIX   0
C83   1   -0.173029    0.718264   -0.135450   -21.00000    0.20743    0.18517 =
         0.10743    0.07445    0.07989    0.06515
AFIX   3
H83A  2   -0.119859    0.698665   -0.100580   -21.00000   -1.50000
H83B  2   -0.145929    0.747775   -0.139320   -21.00000   -1.50000
H83C  2   -0.203219    0.705514   -0.192320   -21.00000   -1.50000
AFIX   0
N82   4   -0.246553    0.729532   -0.095630   -21.00000    0.10511    0.10781 =
         0.08274    0.04550    0.04172    0.03781
C84   1   -0.263566    0.778332   -0.084533   -21.00000    0.12761    0.20079 =
         0.18895    0.03339    0.07635    0.08663
AFIX  33
H84A  2   -0.252346    0.795545   -0.129395   -21.00000   -1.50000
H84B  2   -0.331654    0.782787   -0.087769   -21.00000   -1.50000
H84C  2   -0.217766    0.788409   -0.029216   -21.00000   -1.50000
AFIX   0
C61   1    0.080826    0.477042    0.604239    10.25000    0.06152
AFIX 137
H61A  2    0.111759    0.496613    0.653041    10.25000   -1.50000
H61B  2    0.035731    0.494517    0.557195    10.25000   -1.50000
H61C  2    0.132017    0.463564    0.586945    10.25000   -1.50000
AFIX   0

O4S   5    0.872240    0.564801    0.507959    10.20000    0.05561
C5S   1    0.829100    0.535206    0.534225    10.20000    0.06877
N2S   4    0.848230    0.523748    0.617020    10.20000    0.08085
C7S   1    0.941716    0.547054    0.668907    10.20000    0.11504
AFIX  33
H7SA  2    0.958208    0.539748    0.728847    10.20000   -1.50000
H7SB  2    0.995409    0.537306    0.650869    10.20000   -1.50000
H7SC  2    0.932739    0.579369    0.660976    10.20000   -1.50000
AFIX   0
C6S   1    0.744628    0.511131    0.465566    10.20000    0.10525
AFIX  33
H6SA  2    0.715699    0.488811    0.491952    10.20000   -1.50000
H6SB  2    0.693937    0.532838    0.434659    10.20000   -1.50000
H6SC  2    0.770195    0.496340    0.426153    10.20000   -1.50000
AFIX   0
C8S   1    0.817762    0.484983    0.656876    10.20000    0.09838
AFIX  33
H8SA  2    0.845894    0.488054    0.718633    10.20000   -1.50000
H8SB  2    0.745568    0.484062    0.638039    10.20000   -1.50000
H8SC  2    0.841779    0.457329    0.640178    10.20000   -1.50000
AFIX   0
HKLF 4




REM  gac354_a.res in P2(1)/n
REM wR2 = 0.1746, GooF = S = 1.072, Restrained GooF = 1.083 for all data
REM R1 = 0.0602 for 12704 Fo > 4sig(Fo) and 0.0754 for all 15871 data
REM 737 parameters refined using 112 restraints

END

WGHT      0.0800      8.8673

REM Highest difference peak  0.979,  deepest hole -0.598,  1-sigma level  0.084
Q1    1  -0.1893  0.6408  0.0621  11.00000  0.05    0.98
Q2    1   0.1310  0.4051  0.7951  11.00000  0.05    0.79
Q3    1   0.1433  0.5207  0.6372  11.00000  0.05    0.73
Q4    1  -0.2390  0.8004 -0.0061  11.00000  0.05    0.73
Q5    1   0.8421  0.5440  0.4741  11.00000  0.05    0.62
Q6    1   0.8773  0.5427  0.5622  11.00000  0.05    0.57
Q7    1   0.1195  0.4162  0.7247  11.00000  0.05    0.51
Q8    1   0.9050  0.5782  0.5314  11.00000  0.05    0.48
Q9    1   0.1026  0.7807  0.8256  11.00000  0.05    0.47
Q10   1  -0.2071  0.6349  0.1271  11.00000  0.05    0.46
;
_shelx_res_checksum              82856
_shelx_fab_file
;
    2    0    0     50.56      0.00
    4    0    0    -21.57      0.00
    6    0    0     -7.50      0.00
    8    0    0     -1.37      0.00
   10    0    0      2.53      0.00
   12    0    0     -1.91      0.00
   14    0    0     -1.03      0.00
    2    1    0    -16.38      0.00
    3    1    0      7.16      0.00
    4    1    0     -3.43      0.00
    5    1    0    -17.89      0.00
    6    1    0     -3.59      0.00
    7    1    0     -1.50      0.00
    8    1    0     -0.02      0.00
    9    1    0      2.94      0.00
   10    1    0      0.13      0.00
   11    1    0      1.51      0.00
   12    1    0      1.18      0.00
   13    1    0     -0.25      0.00
   14    1    0     -0.64      0.00
   15    1    0      0.85      0.00
   16    1    0     -2.47      0.00
    2    2    0    -26.29      0.00
    3    2    0    -10.82      0.00
    4    2    0    -15.43      0.00
    5    2    0      5.58      0.00
    6    2    0     -0.77      0.00
    7    2    0     -4.51      0.00
    8    2    0      4.59      0.00
    9    2    0     -1.58      0.00
   10    2    0      3.92      0.00
   11    2    0      0.21      0.00
   12    2    0     -0.39      0.00
   13    2    0      1.41      0.00
   14    2    0     -2.16      0.00
   15    2    0      0.25      0.00
   16    2    0     -0.88      0.00
    1    3    0    -22.75      0.00
    2    3    0     40.15      0.00
    3    3    0     -5.84      0.00
    4    3    0     16.33      0.00
    5    3    0     -9.12      0.00
    6    3    0      7.53      0.00
    7    3    0      4.55      0.00
    8    3    0     -0.17      0.00
    9    3    0      1.43      0.00
   10    3    0     -0.24      0.00
   11    3    0      0.70      0.00
   12    3    0      1.96      0.00
   13    3    0     -0.39      0.00
   14    3    0      0.31      0.00
   15    3    0     -0.83      0.00
   16    3    0     -1.64      0.00
    0    4    0    -72.93      0.00
    1    4    0    -19.75      0.00
    2    4    0      7.83      0.00
    3    4    0     22.25      0.00
    4    4    0     13.01      0.00
    5    4    0      8.26      0.00
    6    4    0     -3.52      0.00
    7    4    0     -1.52      0.00
    8    4    0     -0.82      0.00
    9    4    0     -1.18      0.00
   10    4    0      1.79      0.00
   11    4    0     -0.30      0.00
   12    4    0      0.68      0.00
   13    4    0      0.28      0.00
   14    4    0      1.71      0.00
   15    4    0      0.66      0.00
   16    4    0      0.00      0.00
   17    4    0      1.04      0.00
    1    5    0     42.82      0.00
    2    5    0     -2.87      0.00
    3    5    0      3.34      0.00
    4    5    0    -16.43      0.00
    5    5    0      2.06      0.00
    6    5    0     -1.53      0.00
    7    5    0     -0.40      0.00
    8    5    0     -1.05      0.00
    9    5    0      0.48      0.00
   10    5    0      2.09      0.00
   11    5    0      0.66      0.00
   12    5    0      1.54      0.00
   13    5    0      0.37      0.00
   14    5    0     -0.04      0.00
   15    5    0     -1.74      0.00
   16    5    0     -1.07      0.00
   17    5    0      1.60      0.00
    0    6    0    -37.60      0.00
    1    6    0     -8.88      0.00
    2    6    0     -3.63      0.00
    3    6    0      8.41      0.00
    4    6    0      6.49      0.00
    5    6    0     -3.77      0.00
    6    6    0     -1.24      0.00
    7    6    0     -0.53      0.00
    8    6    0      1.29      0.00
    9    6    0      3.31      0.00
   10    6    0      1.59      0.00
   11    6    0      1.23      0.00
   12    6    0      0.44      0.00
   13    6    0      0.39      0.00
   14    6    0     -0.17      0.00
   15    6    0     -3.05      0.00
   16    6    0     -1.12      0.00
   17    6    0     -1.89      0.00
    1    7    0    -29.71      0.00
    2    7    0    -32.09      0.00
    3    7    0    -17.83      0.00
    4    7    0     -1.74      0.00
    5    7    0      4.49      0.00
    6    7    0     -0.94      0.00
    7    7    0      3.26      0.00
    8    7    0      0.45      0.00
    9    7    0      0.46      0.00
   10    7    0      0.84      0.00
   11    7    0     -0.63      0.00
   12    7    0      1.31      0.00
   13    7    0     -0.98      0.00
   14    7    0      0.01      0.00
   15    7    0     -1.76      0.00
   16    7    0     -1.29      0.00
   17    7    0     -0.37      0.00
    0    8    0    -10.71      0.00
    1    8    0     -5.43      0.00
    2    8    0     17.61      0.00
    3    8    0     14.04      0.00
    4    8    0     -4.53      0.00
    5    8    0     -0.55      0.00
    6    8    0     -6.72      0.00
    7    8    0      1.33      0.00
    8    8    0     -2.90      0.00
    9    8    0      2.09      0.00
   10    8    0     -0.94      0.00
   11    8    0      1.26      0.00
   12    8    0     -0.99      0.00
   13    8    0      0.58      0.00
   14    8    0     -1.06      0.00
   15    8    0     -0.46      0.00
   16    8    0      0.92      0.00
   17    8    0     -2.12      0.00
    1    9    0     -6.62      0.00
    2    9    0     -7.03      0.00
    3    9    0      1.05      0.00
    4    9    0      4.57      0.00
    5    9    0    -10.22      0.00
    6    9    0     -2.32      0.00
    7    9    0     -5.58      0.00
    8    9    0     -2.10      0.00
    9    9    0     -2.51      0.00
   10    9    0      0.00      0.00
   11    9    0      2.80      0.00
   12    9    0     -0.08      0.00
   13    9    0      0.63      0.00
   14    9    0     -0.24      0.00
   15    9    0      0.16      0.00
   16    9    0     -0.13      0.00
   17    9    0      0.09      0.00
    0   10    0      6.40      0.00
    1   10    0      5.51      0.00
    2   10    0     13.24      0.00
    3   10    0    -11.11      0.00
    4   10    0    -13.19      0.00
    5   10    0    -12.04      0.00
    6   10    0     -7.77      0.00
    7   10    0     -1.87      0.00
    8   10    0     -0.16      0.00
    9   10    0      2.23      0.00
   10   10    0      3.02      0.00
   11   10    0     -0.77      0.00
   12   10    0      0.83      0.00
   13   10    0     -0.15      0.00
   14   10    0      0.72      0.00
   15   10    0      0.70      0.00
   16   10    0     -0.10      0.00
   17   10    0      0.62      0.00
    1   11    0     -2.57      0.00
    2   11    0     12.81      0.00
    3   11    0     -2.40      0.00
    4   11    0      5.42      0.00
    5   11    0    -10.51      0.00
    6   11    0      4.11      0.00
    7   11    0     -0.72      0.00
    8   11    0     -0.48      0.00
    9   11    0      3.62      0.00
   10   11    0      1.08      0.00
   11   11    0      2.61      0.00
   12   11    0     -1.09      0.00
   13   11    0      0.05      0.00
   14   11    0     -0.72      0.00
   15   11    0      1.14      0.00
   16   11    0      1.32      0.00
   17   11    0     -0.72      0.00
    0   12    0      3.30      0.00
    1   12    0      8.75      0.00
    2   12    0     -5.80      0.00
    3   12    0      2.02      0.00
    4   12    0    -11.41      0.00
    5   12    0      3.02      0.00
    6   12    0      1.16      0.00
    7   12    0      0.85      0.00
    8   12    0      5.42      0.00
    9   12    0     -2.41      0.00
   10   12    0      1.05      0.00
   11   12    0     -3.07      0.00
   12   12    0     -0.50      0.00
   13   12    0      1.06      0.00
   14   12    0      0.68      0.00
   15   12    0      0.43      0.00
   16   12    0      1.05      0.00
    1   13    0     17.70      0.00
    2   13    0      7.20      0.00
    3   13    0      4.53      0.00
    4   13    0     -1.75      0.00
    5   13    0     -6.06      0.00
    6   13    0      2.29      0.00
    7   13    0     -0.91      0.00
    8   13    0     -2.14      0.00
    9   13    0      1.33      0.00
   10   13    0     -2.59      0.00
   11   13    0     -0.31      0.00
   12   13    0     -1.34      0.00
   13   13    0     -0.75      0.00
   14   13    0     -0.49      0.00
   15   13    0      2.19      0.00
   16   13    0     -1.33      0.00
    0   14    0      2.36      0.00
    1   14    0     -0.12      0.00
    2   14    0      1.43      0.00
    3   14    0     -1.93      0.00
    4   14    0     -5.36      0.00
    5   14    0      2.84      0.00
    6   14    0     -3.34      0.00
    7   14    0     -0.25      0.00
    8   14    0     -1.55      0.00
    9   14    0     -4.18      0.00
   10   14    0     -0.08      0.00
   11   14    0     -4.66      0.00
   12   14    0      1.38      0.00
   13   14    0     -0.26      0.00
   14   14    0      0.25      0.00
   15   14    0     -1.59      0.00
   16   14    0     -0.03      0.00
    1   15    0     -0.52      0.00
    2   15    0     -0.82      0.00
    3   15    0     -1.74      0.00
    4   15    0    -10.24      0.00
    5   15    0      0.06      0.00
    6   15    0      1.55      0.00
    7   15    0      1.03      0.00
    8   15    0     -1.97      0.00
    9   15    0      0.80      0.00
   10   15    0     -2.17      0.00
   11   15    0      0.21      0.00
   12   15    0     -2.54      0.00
   13   15    0     -1.79      0.00
   14   15    0      0.30      0.00
   15   15    0     -0.38      0.00
   16   15    0     -2.34      0.00
    0   16    0     -4.99      0.00
    1   16    0      0.73      0.00
    2   16    0      1.43      0.00
    3   16    0     -0.56      0.00
    4   16    0      4.11      0.00
    5   16    0      2.35      0.00
    6   16    0      0.92      0.00
    7   16    0      1.60      0.00
    8   16    0     -2.14      0.00
    9   16    0     -0.60      0.00
   10   16    0     -1.42      0.00
   11   16    0     -0.33      0.00
   12   16    0      1.09      0.00
   13   16    0      0.68      0.00
   14   16    0     -2.37      0.00
   15   16    0     -1.20      0.00
    1   17    0     -0.63      0.00
    2   17    0     -1.59      0.00
    3   17    0     -5.58      0.00
    4   17    0     -0.58      0.00
    5   17    0      7.17      0.00
    6   17    0      5.16      0.00
    7   17    0     -2.22      0.00
    8   17    0     -1.31      0.00
    9   17    0     -0.92      0.00
   10   17    0     -0.98      0.00
   11   17    0     -2.22      0.00
   12   17    0     -0.13      0.00
   13   17    0     -0.28      0.00
   14   17    0      1.46      0.00
   15   17    0     -1.57      0.00
    0   18    0      0.12      0.00
    1   18    0     -1.58      0.00
    2   18    0      3.61      0.00
    3   18    0     -1.85      0.00
    4   18    0      4.36      0.00
    5   18    0     -2.85      0.00
    6   18    0      0.38      0.00
    7   18    0     -0.49      0.00
    8   18    0     -3.05      0.00
    9   18    0      1.14      0.00
   10   18    0     -1.90      0.00
   11   18    0      3.16      0.00
   12   18    0      0.28      0.00
   13   18    0     -0.83      0.00
   14   18    0     -2.48      0.00
   15   18    0     -1.03      0.00
    1   19    0     -1.57      0.00
    2   19    0     -5.11      0.00
    3   19    0      0.00      0.00
    4   19    0      3.51      0.00
    5   19    0      5.70      0.00
    6   19    0     -0.11      0.00
    7   19    0     -6.29      0.00
    8   19    0      2.07      0.00
    9   19    0     -3.08      0.00
   10   19    0      0.23      0.00
   11   19    0      0.31      0.00
   12   19    0      2.27      0.00
   13   19    0      2.00      0.00
   14   19    0     -0.81      0.00
    0   20    0     -4.45      0.00
    1   20    0      3.19      0.00
    2   20    0      1.39      0.00
    3   20    0      2.23      0.00
    4   20    0      1.92      0.00
    5   20    0      0.19      0.00
    6   20    0      1.75      0.00
    7   20    0      0.65      0.00
    8   20    0     -0.45      0.00
    9   20    0      1.46      0.00
   10   20    0     -0.97      0.00
   11   20    0      0.86      0.00
   12   20    0      0.24      0.00
   13   20    0     -0.76      0.00
   14   20    0      0.03      0.00
   15   20    0      0.75      0.00
    1   21    0     -0.67      0.00
    2   21    0      1.39      0.00
    3   21    0      3.63      0.00
    4   21    0      4.43      0.00
    5   21    0      3.20      0.00
    6   21    0     -3.04      0.00
    7   21    0     -2.97      0.00
    8   21    0      1.45      0.00
    9   21    0     -3.80      0.00
   10   21    0      0.83      0.00
   11   21    0      0.03      0.00
   12   21    0      0.72      0.00
   13   21    0     -0.60      0.00
   14   21    0     -0.24      0.00
   15   21    0      0.27      0.00
    0   22    0      2.83      0.00
    1   22    0      3.21      0.00
    2   22    0      0.26      0.00
    3   22    0     -0.93      0.00
    4   22    0     -2.63      0.00
    5   22    0      1.73      0.00
    6   22    0     -2.64      0.00
    7   22    0      0.48      0.00
    8   22    0     -0.64      0.00
    9   22    0     -0.14      0.00
   10   22    0     -1.56      0.00
   11   22    0      0.01      0.00
   12   22    0     -0.02      0.00
   13   22    0      0.41      0.00
   14   22    0      0.17      0.00
   15   22    0      1.85      0.00
    1   23    0      0.49      0.00
    2   23    0     -3.14      0.00
    3   23    0     -2.02      0.00
    4   23    0      1.01      0.00
    5   23    0     -3.14      0.00
    6   23    0     -3.09      0.00
    7   23    0      0.58      0.00
    8   23    0      0.03      0.00
    9   23    0      1.11      0.00
   10   23    0      1.71      0.00
   11   23    0      0.76      0.00
   12   23    0     -0.07      0.00
   13   23    0     -0.77      0.00
   14   23    0     -0.22      0.00
    0   24    0      1.51      0.00
    1   24    0     -1.42      0.00
    2   24    0     -4.02      0.00
    3   24    0     -3.51      0.00
    4   24    0     -2.29      0.00
    5   24    0      1.18      0.00
    6   24    0     -0.45      0.00
    7   24    0      2.27      0.00
    8   24    0      1.49      0.00
    9   24    0      0.22      0.00
   10   24    0      0.87      0.00
   11   24    0      0.50      0.00
   12   24    0      0.63      0.00
   13   24    0     -1.82      0.00
   14   24    0      0.43      0.00
    1   25    0     -1.73      0.00
    2   25    0     -2.23      0.00
    3   25    0      0.49      0.00
    4   25    0      3.76      0.00
    5   25    0     -0.28      0.00
    6   25    0      1.42      0.00
    7   25    0      2.80      0.00
    8   25    0      0.78      0.00
    9   25    0      2.46      0.00
   10   25    0      0.19      0.00
   11   25    0      0.27      0.00
   12   25    0     -1.44      0.00
   13   25    0      0.27      0.00
    0   26    0      1.09      0.00
    1   26    0     -2.22      0.00
    2   26    0     -0.25      0.00
    3   26    0     -0.17      0.00
    4   26    0      2.20      0.00
    5   26    0      0.30      0.00
    6   26    0      2.42      0.00
    7   26    0      0.52      0.00
    8   26    0     -0.12      0.00
    9   26    0     -1.59      0.00
   10   26    0     -0.99      0.00
   11   26    0     -0.30      0.00
   12   26    0     -1.29      0.00
   13   26    0     -0.48      0.00
    1   27    0     -0.84      0.00
    2   27    0     -1.56      0.00
    3   27    0      3.57      0.00
    4   27    0      0.30      0.00
    5   27    0     -1.00      0.00
    6   27    0     -0.08      0.00
    7   27    0      1.01      0.00
    8   27    0      0.96      0.00
    9   27    0      0.17      0.00
   10   27    0     -0.56      0.00
   11   27    0     -0.27      0.00
   12   27    0      0.12      0.00
    0   28    0     -2.83      0.00
    1   28    0     -0.89      0.00
    2   28    0     -0.95      0.00
    3   28    0     -1.10      0.00
    4   28    0      1.04      0.00
    5   28    0     -1.17      0.00
    6   28    0      2.21      0.00
    7   28    0      1.05      0.00
    8   28    0      1.01      0.00
    9   28    0     -0.14      0.00
   10   28    0      1.42      0.00
   11   28    0     -0.06      0.00
    1   29    0     -4.45      0.00
    2   29    0      0.71      0.00
    3   29    0      1.97      0.00
    4   29    0     -2.78      0.00
    5   29    0     -0.07      0.00
    6   29    0      1.01      0.00
    7   29    0      1.64      0.00
    8   29    0      0.16      0.00
    9   29    0     -0.11      0.00
   10   29    0      0.25      0.00
   11   29    0     -0.58      0.00
    0   30    0     -1.26      0.00
    1   30    0      1.06      0.00
    2   30    0     -1.81      0.00
    3   30    0      1.50      0.00
    4   30    0      1.87      0.00
    5   30    0      1.73      0.00
    6   30    0      2.68      0.00
    7   30    0      0.56      0.00
    8   30    0     -0.14      0.00
    9   30    0      0.19      0.00
   10   30    0     -0.49      0.00
   11   30    0     -0.79      0.00
    1   31    0     -0.94      0.00
    2   31    0      3.00      0.00
    3   31    0      1.26      0.00
    4   31    0     -0.84      0.00
    5   31    0      2.74      0.00
    6   31    0      0.84      0.00
    7   31    0     -0.69      0.00
    8   31    0     -1.06      0.00
    9   31    0      0.18      0.00
   10   31    0     -0.41      0.00
    0   32    0      0.22      0.00
    1   32    0     -0.54      0.00
    2   32    0      0.07      0.00
    3   32    0      0.62      0.00
    4   32    0      1.31      0.00
    5   32    0      0.92      0.00
    6   32    0     -0.45      0.00
    7   32    0     -1.05      0.00
    8   32    0     -1.25      0.00
    9   32    0     -0.25      0.00
   10   32    0     -0.32      0.00
    1   33    0     -0.29      0.00
    2   33    0      2.00      0.00
    3   33    0      0.33      0.00
    4   33    0     -0.79      0.00
    5   33    0      0.68      0.00
    6   33    0     -1.17      0.00
    7   33    0     -0.78      0.00
    8   33    0      0.76      0.00
    9   33    0      0.00      0.00
    0   34    0     -1.05      0.00
    1   34    0      0.23      0.00
    2   34    0      0.66      0.00
    3   34    0     -0.81      0.00
    4   34    0      0.36      0.00
    5   34    0     -1.09      0.00
    6   34    0     -0.05      0.00
    7   34    0     -1.16      0.00
    8   34    0     -0.33      0.00
    9   34    0     -0.56      0.00
    1   35    0      1.51      0.00
    2   35    0      2.03      0.00
    3   35    0     -0.49      0.00
    4   35    0     -1.08      0.00
    5   35    0      0.16      0.00
    6   35    0     -1.13      0.00
    7   35    0      1.06      0.00
    8   35    0      0.07      0.00
    0   36    0      0.07      0.00
    1   36    0      0.36      0.00
    2   36    0      0.52      0.00
    3   36    0     -0.57      0.00
    4   36    0      0.88      0.00
    5   36    0     -0.30      0.00
    7   36    0     -0.98      0.00
    1   37    0      1.02      0.00
    2   37    0      0.01      0.00
    3   37    0     -1.57      0.00
    4   37    0     -0.49      0.00
    0   38    0     -1.02      0.00
    1   38    0      1.00      0.00
    2   38    0     -1.15      0.00
    1   39    0      0.24      0.00
  -15    0    1      1.23      0.00
  -13    0    1      3.20      0.00
  -11    0    1     -1.05      0.00
   -9    0    1     -2.14      0.00
   -7    0    1    -11.71      0.00
   -5    0    1     18.02      0.00
   -3    0    1      5.25      0.00
    1    0    1     25.57      0.00
    3    0    1     11.16      0.00
    5    0    1     20.37      0.00
    7    0    1     -2.84      0.00
    9    0    1     -5.38      0.00
   11    0    1     -0.65      0.00
   13    0    1      1.98      0.00
   15    0    1      1.93      0.00
  -16    1    1     -1.97      0.00
  -15    1    1      1.32      0.00
  -14    1    1      1.15      0.00
  -13    1    1     -0.70      0.00
  -12    1    1      0.58      0.00
  -11    1    1     -0.82      0.00
  -10    1    1     -3.64      0.00
   -9    1    1     -0.66      0.00
   -8    1    1     -4.41      0.00
   -7    1    1      5.33      0.00
   -6    1    1     18.05      0.00
   -5    1    1      3.42      0.00
   -4    1    1      5.93      0.00
   -3    1    1     50.47      0.00
   -2    1    1    -57.32      0.00
    1    1    1      5.04      0.00
    2    1    1    -25.67      0.00
    3    1    1    -19.75      0.00
    4    1    1      9.36      0.00
    5    1    1    -12.87      0.00
    6    1    1      1.55      0.00
    7    1    1     -1.64      0.00
    8    1    1     -0.08      0.00
    9    1    1      1.50      0.00
   10    1    1     -1.63      0.00
   11    1    1     -0.10      0.00
   12    1    1     -2.31      0.00
   13    1    1      1.33      0.00
   14    1    1      1.67      0.00
   15    1    1      1.50      0.00
  -17    2    1      0.05      0.00
  -16    2    1      0.69      0.00
  -15    2    1      0.14      0.00
  -14    2    1     -0.87      0.00
  -13    2    1      1.26      0.00
  -12    2    1      0.76      0.00
  -11    2    1     -1.56      0.00
  -10    2    1     -1.02      0.00
   -9    2    1     -0.70      0.00
   -8    2    1     -7.47      0.00
   -7    2    1      1.89      0.00
   -6    2    1      5.26      0.00
   -5    2    1     15.78      0.00
   -4    2    1     -0.04      0.00
   -3    2    1     19.47      0.00
   -2    2    1     25.43      0.00
   -1    2    1   -130.83      0.00
    0    2    1    169.05      0.00
    1    2    1    -67.94      0.00
    2    2    1     15.83      0.00
    3    2    1    -12.71      0.00
    4    2    1     -4.97      0.00
    5    2    1      9.26      0.00
    6    2    1     -7.89      0.00
    7    2    1      2.16      0.00
    8    2    1      2.11      0.00
    9    2    1     -2.92      0.00
   10    2    1      2.55      0.00
   11    2    1      0.05      0.00
   12    2    1     -0.88      0.00
   13    2    1      0.18      0.00
   14    2    1     -1.29      0.00
   15    2    1      0.13      0.00
   16    2    1     -1.20      0.00
  -17    3    1     -2.67      0.00
  -16    3    1      0.35      0.00
  -15    3    1     -1.00      0.00
  -14    3    1     -0.04      0.00
  -13    3    1      0.91      0.00
  -12    3    1      0.00      0.00
  -11    3    1      1.78      0.00
  -10    3    1     -0.56      0.00
   -9    3    1      2.27      0.00
   -8    3    1     -1.12      0.00
   -7    3    1      3.51      0.00
   -6    3    1      3.37      0.00
   -5    3    1    -19.26      0.00
   -4    3    1     12.62      0.00
   -3    3    1     -3.22      0.00
   -2    3    1     -8.22      0.00
   -1    3    1     61.40      0.00
    0    3    1   -122.21      0.00
    1    3    1     -7.25      0.00
    2    3    1    -22.56      0.00
    3    3    1    -12.94      0.00
    4    3    1     13.16      0.00
    5    3    1     -5.65      0.00
    6    3    1      3.02      0.00
    7    3    1      5.27      0.00
    8    3    1     -0.87      0.00
    9    3    1      0.98      0.00
   10    3    1     -2.21      0.00
   11    3    1     -1.94      0.00
   12    3    1     -0.17      0.00
   13    3    1     -0.60      0.00
   14    3    1      0.49      0.00
   15    3    1      2.43      0.00
   16    3    1     -1.28      0.00
  -17    4    1     -0.54      0.00
  -16    4    1     -0.27      0.00
  -15    4    1     -0.65      0.00
  -14    4    1     -0.45      0.00
  -13    4    1      0.01      0.00
  -12    4    1      1.28      0.00
  -11    4    1     -2.71      0.00
  -10    4    1      1.22      0.00
   -9    4    1     -2.40      0.00
   -8    4    1     -2.71      0.00
   -7    4    1      0.95      0.00
   -6    4    1      0.35      0.00
   -5    4    1     -7.59      0.00
   -4    4    1     -6.20      0.00
   -3    4    1     15.27      0.00
   -2    4    1    -73.14      0.00
   -1    4    1     47.92      0.00
    0    4    1     39.66      0.00
    1    4    1     18.91      0.00
    2    4    1      1.38      0.00
    3    4    1      5.72      0.00
    4    4    1     -4.96      0.00
    5    4    1     -2.52      0.00
    6    4    1      0.79      0.00
    7    4    1     -2.70      0.00
    8    4    1      0.82      0.00
    9    4    1     -3.58      0.00
   10    4    1      1.66      0.00
   11    4    1     -0.62      0.00
   12    4    1     -1.87      0.00
   13    4    1     -0.23      0.00
   14    4    1      0.37      0.00
   15    4    1      2.55      0.00
   16    4    1      0.85      0.00
  -18    5    1     -1.89      0.00
  -17    5    1     -0.20      0.00
  -16    5    1     -0.16      0.00
  -15    5    1      1.02      0.00
  -14    5    1      1.71      0.00
  -13    5    1      1.72      0.00
  -12    5    1     -0.06      0.00
  -11    5    1      1.44      0.00
  -10    5    1      1.12      0.00
   -9    5    1     -0.21      0.00
   -8    5    1     -3.23      0.00
   -7    5    1      1.66      0.00
   -6    5    1    -10.25      0.00
   -5    5    1      1.05      0.00
   -4    5    1      0.78      0.00
   -3    5    1      0.41      0.00
   -2    5    1     -2.02      0.00
   -1    5    1    -24.57      0.00
    0    5    1      6.49      0.00
    1    5    1     29.46      0.00
    2    5    1     24.57      0.00
    3    5    1      6.29      0.00
    4    5    1      8.35      0.00
    5    5    1     -6.00      0.00
    6    5    1     -1.34      0.00
    7    5    1     -1.61      0.00
    8    5    1     -3.73      0.00
    9    5    1     -1.40      0.00
   10    5    1     -1.96      0.00
   11    5    1     -1.98      0.00
   12    5    1      0.57      0.00
   13    5    1     -0.20      0.00
   14    5    1      2.62      0.00
   15    5    1      0.47      0.00
   16    5    1      0.24      0.00
   17    5    1      2.20      0.00
  -18    6    1      0.30      0.00
  -17    6    1     -1.98      0.00
  -16    6    1     -0.48      0.00
  -15    6    1      0.00      0.00
  -14    6    1      1.68      0.00
  -13    6    1      0.23      0.00
  -12    6    1      0.90      0.00
  -11    6    1     -1.59      0.00
  -10    6    1      3.48      0.00
   -9    6    1      0.57      0.00
   -8    6    1      1.39      0.00
   -7    6    1      6.74      0.00
   -6    6    1      4.30      0.00
   -5    6    1     -1.79      0.00
   -4    6    1     24.45      0.00
   -3    6    1    -24.85      0.00
   -2    6    1      7.25      0.00
   -1    6    1     39.99      0.00
    0    6    1     17.24      0.00
    1    6    1     12.55      0.00
    2    6    1    -20.32      0.00
    3    6    1     -8.66      0.00
    4    6    1     -4.76      0.00
    5    6    1      0.53      0.00
    6    6    1     -1.32      0.00
    7    6    1      1.10      0.00
    8    6    1     -0.26      0.00
    9    6    1      1.34      0.00
   10    6    1      0.95      0.00
   11    6    1     -1.75      0.00
   12    6    1     -0.45      0.00
   13    6    1     -0.36      0.00
   14    6    1      1.32      0.00
   15    6    1      0.20      0.00
   16    6    1      1.83      0.00
   17    6    1     -0.08      0.00
  -18    7    1     -1.01      0.00
  -17    7    1     -0.65      0.00
  -16    7    1      1.21      0.00
  -15    7    1      0.33      0.00
  -14    7    1      0.11      0.00
  -13    7    1     -0.07      0.00
  -12    7    1     -1.97      0.00
  -11    7    1      1.06      0.00
  -10    7    1     -0.73      0.00
   -9    7    1      0.31      0.00
   -8    7    1      2.21      0.00
   -7    7    1     -0.93      0.00
   -6    7    1      3.58      0.00
   -5    7    1     -0.09      0.00
   -4    7    1      6.60      0.00
   -3    7    1    -17.88      0.00
   -2    7    1     -8.88      0.00
   -1    7    1     -0.90      0.00
    0    7    1      8.65      0.00
    1    7    1     17.28      0.00
    2    7    1     -4.21      0.00
    3    7    1     22.19      0.00
    4    7    1     -1.84      0.00
    5    7    1      9.90      0.00
    6    7    1      1.76      0.00
    7    7    1      3.30      0.00
    8    7    1      1.77      0.00
    9    7    1      0.03      0.00
   10    7    1     -0.46      0.00
   11    7    1     -0.54      0.00
   12    7    1      0.26      0.00
   13    7    1     -0.09      0.00
   14    7    1     -0.15      0.00
   15    7    1     -1.60      0.00
   16    7    1      0.20      0.00
   17    7    1      1.06      0.00
  -17    8    1      1.42      0.00
  -16    8    1     -1.37      0.00
  -15    8    1      1.15      0.00
  -14    8    1     -1.40      0.00
  -13    8    1      0.49      0.00
  -12    8    1     -1.88      0.00
  -11    8    1     -1.64      0.00
  -10    8    1      3.49      0.00
   -9    8    1     -2.10      0.00
   -8    8    1      5.19      0.00
   -7    8    1      4.92      0.00
   -6    8    1     -1.27      0.00
   -5    8    1      2.58      0.00
   -4    8    1     -3.78      0.00
   -3    8    1    -10.07      0.00
   -2    8    1     -4.58      0.00
   -1    8    1      5.73      0.00
    0    8    1    -12.47      0.00
    1    8    1    -23.09      0.00
    2    8    1    -12.72      0.00
    3    8    1      9.77      0.00
    4    8    1     14.57      0.00
    5    8    1      9.99      0.00
    6    8    1      8.29      0.00
    7    8    1      4.67      0.00
    8    8    1     -0.19      0.00
    9    8    1     -0.43      0.00
   10    8    1     -4.23      0.00
   11    8    1     -0.70      0.00
   12    8    1     -0.55      0.00
   13    8    1      0.20      0.00
   14    8    1     -0.65      0.00
   15    8    1     -1.08      0.00
   16    8    1      1.26      0.00
   17    8    1     -2.02      0.00
  -17    9    1     -0.30      0.00
  -16    9    1      1.11      0.00
  -15    9    1     -1.73      0.00
  -14    9    1     -0.49      0.00
  -13    9    1     -1.31      0.00
  -12    9    1     -1.56      0.00
  -11    9    1     -0.46      0.00
  -10    9    1     -1.68      0.00
   -9    9    1     -2.26      0.00
   -8    9    1     -0.04      0.00
   -7    9    1      1.48      0.00
   -6    9    1      4.37      0.00
   -5    9    1     10.01      0.00
   -4    9    1      5.70      0.00
   -3    9    1     -4.24      0.00
   -2    9    1     31.44      0.00
   -1    9    1     -9.23      0.00
    0    9    1     16.02      0.00
    1    9    1     -8.91      0.00
    2    9    1     13.68      0.00
    3    9    1     -2.34      0.00
    4    9    1      7.15      0.00
    5    9    1      2.38      0.00
    6    9    1      0.20      0.00
    7    9    1      0.78      0.00
    8    9    1     -0.44      0.00
    9    9    1     -1.84      0.00
   10    9    1     -0.02      0.00
   11    9    1     -1.28      0.00
   12    9    1      0.42      0.00
   13    9    1     -0.66      0.00
   14    9    1     -0.10      0.00
   15    9    1     -0.10      0.00
   16    9    1     -0.69      0.00
   17    9    1      1.09      0.00
  -17   10    1      0.42      0.00
  -16   10    1     -1.33      0.00
  -15   10    1     -1.75      0.00
  -14   10    1      0.49      0.00
  -13   10    1      0.84      0.00
  -12   10    1     -1.37      0.00
  -11   10    1     -0.40      0.00
  -10   10    1     -3.12      0.00
   -9   10    1     -2.01      0.00
   -8   10    1     -2.67      0.00
   -7   10    1      1.52      0.00
   -6   10    1     -4.18      0.00
   -5   10    1      6.72      0.00
   -4   10    1      5.42      0.00
   -3   10    1      5.02      0.00
   -2   10    1      7.97      0.00
   -1   10    1     -1.10      0.00
    0   10    1     -5.93      0.00
    1   10    1    -23.71      0.00
    2   10    1      3.30      0.00
    3   10    1      9.24      0.00
    4   10    1      4.05      0.00
    5   10    1      3.98      0.00
    6   10    1     -0.56      0.00
    7   10    1     -0.45      0.00
    8   10    1     -5.15      0.00
    9   10    1     -1.19      0.00
   10   10    1     -1.08      0.00
   11   10    1      2.02      0.00
   12   10    1     -0.67      0.00
   13   10    1     -0.02      0.00
   14   10    1     -0.96      0.00
   15   10    1     -0.92      0.00
   16   10    1      0.48      0.00
   17   10    1     -0.94      0.00
  -17   11    1     -0.94      0.00
  -16   11    1     -1.27      0.00
  -15   11    1     -1.03      0.00
  -14   11    1      0.31      0.00
  -13   11    1     -0.19      0.00
  -12   11    1     -1.06      0.00
  -11   11    1      0.85      0.00
  -10   11    1     -4.40      0.00
   -9   11    1     -3.43      0.00
   -8   11    1      1.36      0.00
   -7   11    1     -2.52      0.00
   -6   11    1     12.47      0.00
   -5   11    1      4.58      0.00
   -4   11    1      1.93      0.00
   -3   11    1     11.08      0.00
   -2   11    1     -1.22      0.00
   -1   11    1     -4.81      0.00
    0   11    1    -15.91      0.00
    1   11    1    -10.23      0.00
    2   11    1    -11.51      0.00
    3   11    1     -8.92      0.00
    4   11    1      6.10      0.00
    5   11    1     -6.09      0.00
    6   11    1      3.24      0.00
    7   11    1     -0.96      0.00
    8   11    1      3.21      0.00
    9   11    1      1.52      0.00
   10   11    1     -0.77      0.00
   11   11    1      1.97      0.00
   12   11    1     -1.25      0.00
   13   11    1      1.18      0.00
   14   11    1     -0.85      0.00
   15   11    1     -0.40      0.00
   16   11    1      0.43      0.00
  -17   12    1     -1.66      0.00
  -16   12    1     -1.18      0.00
  -15   12    1     -0.27      0.00
  -14   12    1      1.30      0.00
  -13   12    1     -0.89      0.00
  -12   12    1     -1.21      0.00
  -11   12    1     -3.22      0.00
  -10   12    1     -1.02      0.00
   -9   12    1     -2.94      0.00
   -8   12    1     -1.90      0.00
   -7   12    1      0.37      0.00
   -6   12    1     -4.16      0.00
   -5   12    1     11.81      0.00
   -4   12    1     -3.84      0.00
   -3   12    1      6.66      0.00
   -2   12    1     -2.63      0.00
   -1   12    1     -1.02      0.00
    0   12    1     -8.60      0.00
    1   12    1     -5.84      0.00
    2   12    1      3.93      0.00
    3   12    1      8.72      0.00
    4   12    1      2.72      0.00
    5   12    1      4.75      0.00
    6   12    1      0.91      0.00
    7   12    1     -1.39      0.00
    8   12    1      2.69      0.00
    9   12    1      0.48      0.00
   10   12    1      5.15      0.00
   11   12    1     -0.37      0.00
   12   12    1      1.10      0.00
   13   12    1      0.44      0.00
   14   12    1     -0.20      0.00
   15   12    1      1.15      0.00
   16   12    1     -0.32      0.00
  -16   13    1     -2.08      0.00
  -15   13    1      0.55      0.00
  -14   13    1      0.71      0.00
  -13   13    1     -1.17      0.00
  -12   13    1     -0.43      0.00
  -11   13    1     -0.88      0.00
  -10   13    1     -3.45      0.00
   -9   13    1      1.71      0.00
   -8   13    1     -2.74      0.00
   -7   13    1      3.00      0.00
   -6   13    1      2.65      0.00
   -5   13    1     -6.52      0.00
   -4   13    1     -3.34      0.00
   -3   13    1      1.74      0.00
   -2   13    1     -7.10      0.00
   -1   13    1      1.86      0.00
    0   13    1     -5.96      0.00
    1   13    1     -5.05      0.00
    2   13    1      2.54      0.00
    3   13    1      2.33      0.00
    4   13    1      8.15      0.00
    5   13    1     -2.65      0.00
    6   13    1      2.67      0.00
    7   13    1      3.62      0.00
    8   13    1      0.54      0.00
    9   13    1      0.95      0.00
   10   13    1     -1.06      0.00
   11   13    1      1.17      0.00
   12   13    1      0.66      0.00
   13   13    1      0.92      0.00
   14   13    1      0.43      0.00
   15   13    1      0.92      0.00
   16   13    1      0.95      0.00
  -16   14    1      1.08      0.00
  -15   14    1      1.16      0.00
  -14   14    1      1.48      0.00
  -13   14    1     -0.77      0.00
  -12   14    1     -1.93      0.00
  -11   14    1      0.96      0.00
  -10   14    1     -1.57      0.00
   -9   14    1     -0.79      0.00
   -8   14    1      0.63      0.00
   -7   14    1     -0.63      0.00
   -6   14    1      3.86      0.00
   -5   14    1      1.21      0.00
   -4   14    1      1.44      0.00
   -3   14    1      2.34      0.00
   -2   14    1      2.78      0.00
   -1   14    1      1.94      0.00
    0   14    1      1.44      0.00
    1   14    1      5.70      0.00
    2   14    1      0.16      0.00
    3   14    1      7.40      0.00
    4   14    1     -8.25      0.00
    5   14    1      1.15      0.00
    6   14    1     -5.64      0.00
    7   14    1     -0.91      0.00
    8   14    1      3.68      0.00
    9   14    1     -0.25      0.00
   10   14    1      3.83      0.00
   11   14    1     -0.74      0.00
   12   14    1      0.51      0.00
   13   14    1     -0.23      0.00
   14   14    1      0.79      0.00
   15   14    1      0.46      0.00
   16   14    1     -0.18      0.00
  -16   15    1     -0.44      0.00
  -15   15    1      1.99      0.00
  -14   15    1      1.48      0.00
  -13   15    1     -1.08      0.00
  -12   15    1      2.59      0.00
  -11   15    1     -2.00      0.00
  -10   15    1      0.90      0.00
   -9   15    1     -2.11      0.00
   -8   15    1      0.51      0.00
   -7   15    1      1.35      0.00
   -6   15    1     -1.73      0.00
   -5   15    1     -8.62      0.00
   -4   15    1      2.76      0.00
   -3   15    1      1.84      0.00
   -2   15    1     -4.60      0.00
   -1   15    1      3.25      0.00
    0   15    1     -5.55      0.00
    1   15    1      7.21      0.00
    2   15    1      1.62      0.00
    3   15    1      4.39      0.00
    4   15    1     -2.65      0.00
    5   15    1     -7.00      0.00
    6   15    1     -1.81      0.00
    7   15    1      1.36      0.00
    8   15    1     -2.41      0.00
    9   15    1      1.41      0.00
   10   15    1     -0.84      0.00
   11   15    1      1.63      0.00
   12   15    1      1.04      0.00
   13   15    1      1.25      0.00
   14   15    1      0.11      0.00
   15   15    1      1.20      0.00
  -16   16    1     -0.39      0.00
  -15   16    1      1.61      0.00
  -14   16    1     -0.94      0.00
  -13   16    1     -0.16      0.00
  -12   16    1      0.31      0.00
  -11   16    1      2.57      0.00
  -10   16    1     -0.30      0.00
   -9   16    1      3.01      0.00
   -8   16    1      1.29      0.00
   -7   16    1      3.77      0.00
   -6   16    1     -2.09      0.00
   -5   16    1      0.12      0.00
   -4   16    1     -1.36      0.00
   -3   16    1     -6.96      0.00
   -2   16    1     -4.97      0.00
   -1   16    1     -2.04      0.00
    0   16    1      0.99      0.00
    1   16    1     -1.00      0.00
    2   16    1      5.00      0.00
    3   16    1     -5.03      0.00
    4   16    1     -4.02      0.00
    5   16    1     -0.61      0.00
    6   16    1     -1.36      0.00
    7   16    1      3.41      0.00
    8   16    1      1.20      0.00
    9   16    1      0.83      0.00
   10   16    1      2.86      0.00
   11   16    1     -3.37      0.00
   12   16    1     -0.19      0.00
   13   16    1     -0.02      0.00
   14   16    1      2.64      0.00
   15   16    1     -0.47      0.00
  -15   17    1      0.53      0.00
  -14   17    1     -0.62      0.00
  -13   17    1     -1.21      0.00
  -12   17    1      2.13      0.00
  -11   17    1     -1.07      0.00
  -10   17    1      1.89      0.00
   -9   17    1      1.37      0.00
   -8   17    1      4.15      0.00
   -7   17    1      3.44      0.00
   -6   17    1     -3.33      0.00
   -5   17    1     -1.63      0.00
   -4   17    1      5.18      0.00
   -3   17    1     -3.45      0.00
   -2   17    1     -1.75      0.00
   -1   17    1     -3.07      0.00
    0   17    1      6.30      0.00
    1   17    1      3.42      0.00
    2   17    1      3.24      0.00
    3   17    1      1.01      0.00
    4   17    1     -5.88      0.00
    5   17    1     -3.19      0.00
    6   17    1      2.27      0.00
    7   17    1      1.99      0.00
    8   17    1     -0.62      0.00
    9   17    1      3.00      0.00
   10   17    1     -0.48      0.00
   11   17    1      1.64      0.00
   12   17    1      0.02      0.00
   13   17    1     -0.74      0.00
   14   17    1     -0.68      0.00
   15   17    1      1.02      0.00
  -15   18    1      0.70      0.00
  -14   18    1     -2.08      0.00
  -13   18    1      0.90      0.00
  -12   18    1      0.12      0.00
  -11   18    1      1.32      0.00
  -10   18    1      1.80      0.00
   -9   18    1      3.18      0.00
   -8   18    1      1.66      0.00
   -7   18    1     -1.00      0.00
   -6   18    1     -0.51      0.00
   -5   18    1     -2.45      0.00
   -4   18    1     -2.37      0.00
   -3   18    1     -7.33      0.00
   -2   18    1      3.03      0.00
   -1   18    1      5.27      0.00
    0   18    1     -0.09      0.00
    1   18    1      0.53      0.00
    2   18    1     -1.83      0.00
    3   18    1     -6.47      0.00
    4   18    1      1.18      0.00
    5   18    1     -1.77      0.00
    6   18    1      1.36      0.00
    7   18    1      0.37      0.00
    8   18    1     -0.49      0.00
    9   18    1      2.17      0.00
   10   18    1     -1.94      0.00
   11   18    1     -0.93      0.00
   12   18    1     -0.80      0.00
   13   18    1      2.08      0.00
   14   18    1     -0.51      0.00
  -15   19    1     -0.84      0.00
  -14   19    1     -0.87      0.00
  -13   19    1      0.81      0.00
  -12   19    1     -0.40      0.00
  -11   19    1      0.42      0.00
  -10   19    1      3.38      0.00
   -9   19    1      1.35      0.00
   -8   19    1      5.40      0.00
   -7   19    1      0.88      0.00
   -6   19    1     -2.94      0.00
   -5   19    1      4.35      0.00
   -4   19    1     -0.01      0.00
   -3   19    1     -2.49      0.00
   -2   19    1      0.62      0.00
   -1   19    1      1.26      0.00
    0   19    1      1.52      0.00
    1   19    1     -0.92      0.00
    2   19    1     -1.87      0.00
    3   19    1     -4.24      0.00
    4   19    1     -7.10      0.00
    5   19    1     -1.27      0.00
    6   19    1      4.74      0.00
    7   19    1     -0.91      0.00
    8   19    1      3.28      0.00
    9   19    1      1.05      0.00
   10   19    1      2.52      0.00
   11   19    1     -1.10      0.00
   12   19    1     -0.57      0.00
   13   19    1     -2.52      0.00
   14   19    1     -1.14      0.00
  -15   20    1      0.89      0.00
  -14   20    1     -0.18      0.00
  -13   20    1     -0.23      0.00
  -12   20    1      1.02      0.00
  -11   20    1      0.61      0.00
  -10   20    1      1.20      0.00
   -9   20    1      1.02      0.00
   -8   20    1     -0.88      0.00
   -7   20    1      1.25      0.00
   -6   20    1      1.23      0.00
   -5   20    1      0.82      0.00
   -4   20    1     -0.33      0.00
   -3   20    1      1.21      0.00
   -2   20    1      4.07      0.00
   -1   20    1      0.54      0.00
    0   20    1     -3.57      0.00
    1   20    1     -4.71      0.00
    2   20    1     -1.23      0.00
    3   20    1     -0.53      0.00
    4   20    1      2.06      0.00
    5   20    1     -1.40      0.00
    6   20    1      0.25      0.00
    7   20    1      0.74      0.00
    8   20    1     -0.54      0.00
    9   20    1      2.03      0.00
   10   20    1     -1.44      0.00
   11   20    1      2.02      0.00
   12   20    1      0.49      0.00
   13   20    1     -0.27      0.00
   14   20    1     -1.66      0.00
   15   20    1     -2.00      0.00
  -15   21    1     -2.33      0.00
  -14   21    1     -0.01      0.00
  -13   21    1      1.37      0.00
  -12   21    1     -1.07      0.00
  -11   21    1      2.12      0.00
  -10   21    1      0.71      0.00
   -9   21    1      0.47      0.00
   -8   21    1      1.90      0.00
   -7   21    1     -1.57      0.00
   -6   21    1     -0.38      0.00
   -5   21    1      4.03      0.00
   -4   21    1     -1.90      0.00
   -3   21    1     -1.36      0.00
   -2   21    1     -0.36      0.00
   -1   21    1     -1.85      0.00
    0   21    1      0.05      0.00
    1   21    1      1.27      0.00
    2   21    1      2.05      0.00
    3   21    1      0.40      0.00
    4   21    1     -2.63      0.00
    5   21    1      5.73      0.00
    6   21    1      3.64      0.00
    7   21    1     -2.02      0.00
    8   21    1      2.65      0.00
    9   21    1     -2.00      0.00
   10   21    1      0.22      0.00
   11   21    1     -1.07      0.00
   12   21    1     -0.52      0.00
   13   21    1      0.71      0.00
   14   21    1      0.11      0.00
   15   21    1      0.71      0.00
  -15   22    1     -0.65      0.00
  -14   22    1     -1.28      0.00
  -13   22    1     -1.18      0.00
  -12   22    1      1.04      0.00
  -11   22    1      0.06      0.00
  -10   22    1     -0.87      0.00
   -9   22    1     -1.44      0.00
   -8   22    1      1.07      0.00
   -7   22    1      1.24      0.00
   -6   22    1      3.47      0.00
   -5   22    1      0.63      0.00
   -4   22    1      3.77      0.00
   -3   22    1     -0.02      0.00
   -2   22    1      1.03      0.00
   -1   22    1     -1.02      0.00
    0   22    1     -3.21      0.00
    1   22    1      4.15      0.00
    2   22    1      4.35      0.00
    3   22    1      4.01      0.00
    4   22    1      0.82      0.00
    5   22    1     -0.22      0.00
    6   22    1     -1.79      0.00
    7   22    1     -0.59      0.00
    8   22    1     -2.35      0.00
    9   22    1     -0.09      0.00
   10   22    1     -0.64      0.00
   11   22    1     -0.37      0.00
   12   22    1      0.50      0.00
   13   22    1     -0.31      0.00
   14   22    1     -0.06      0.00
  -15   23    1     -1.42      0.00
  -14   23    1      0.06      0.00
  -13   23    1     -0.58      0.00
  -12   23    1     -0.21      0.00
  -11   23    1     -0.59      0.00
  -10   23    1     -0.20      0.00
   -9   23    1     -1.33      0.00
   -8   23    1     -0.37      0.00
   -7   23    1     -3.11      0.00
   -6   23    1      0.58      0.00
   -5   23    1      3.59      0.00
   -4   23    1     -0.87      0.00
   -3   23    1      0.68      0.00
   -2   23    1     -0.92      0.00
   -1   23    1      1.43      0.00
    0   23    1      1.99      0.00
    1   23    1      3.68      0.00
    2   23    1      1.08      0.00
    3   23    1     -3.19      0.00
    4   23    1     -0.75      0.00
    5   23    1      1.98      0.00
    6   23    1     -2.25      0.00
    7   23    1     -2.65      0.00
    8   23    1     -0.28      0.00
    9   23    1     -2.71      0.00
   10   23    1     -0.21      0.00
   11   23    1      0.00      0.00
   12   23    1      1.56      0.00
   13   23    1      0.19      0.00
   14   23    1      1.35      0.00
  -14   24    1     -0.99      0.00
  -13   24    1      0.02      0.00
  -12   24    1      0.51      0.00
  -11   24    1      0.06      0.00
  -10   24    1     -1.01      0.00
   -9   24    1      0.85      0.00
   -8   24    1      0.41      0.00
   -7   24    1      1.37      0.00
   -6   24    1     -2.08      0.00
   -5   24    1      1.66      0.00
   -4   24    1     -1.64      0.00
   -3   24    1      0.36      0.00
   -2   24    1     -1.06      0.00
   -1   24    1     -2.97      0.00
    0   24    1      0.65      0.00
    1   24    1      2.03      0.00
    2   24    1      1.85      0.00
    3   24    1     -0.92      0.00
    4   24    1     -2.28      0.00
    5   24    1      0.02      0.00
    6   24    1     -2.50      0.00
    7   24    1      0.36      0.00
    8   24    1     -0.01      0.00
    9   24    1      2.11      0.00
   10   24    1      0.56      0.00
   11   24    1      0.79      0.00
   12   24    1      0.26      0.00
   13   24    1      0.55      0.00
  -14   25    1      0.83      0.00
  -13   25    1      0.13      0.00
  -12   25    1     -1.16      0.00
  -11   25    1      1.05      0.00
  -10   25    1     -1.81      0.00
   -9   25    1      0.95      0.00
   -8   25    1     -1.63      0.00
   -7   25    1     -0.98      0.00
   -6   25    1      1.67      0.00
   -5   25    1     -0.43      0.00
   -4   25    1      0.44      0.00
   -3   25    1     -4.38      0.00
   -2   25    1      1.04      0.00
   -1   25    1     -0.15      0.00
    0   25    1      0.06      0.00
    1   25    1      0.93      0.00
    2   25    1     -3.51      0.00
    3   25    1     -2.99      0.00
    4   25    1      2.82      0.00
    5   25    1     -0.03      0.00
    6   25    1     -1.28      0.00
    7   25    1     -0.42      0.00
    8   25    1     -1.17      0.00
    9   25    1     -0.08      0.00
   10   25    1     -0.22      0.00
   11   25    1      1.61      0.00
   12   25    1     -1.00      0.00
   13   25    1     -1.13      0.00
  -13   26    1      0.50      0.00
  -12   26    1     -0.17      0.00
  -11   26    1     -0.63      0.00
  -10   26    1      0.63      0.00
   -9   26    1     -0.99      0.00
   -8   26    1      0.41      0.00
   -7   26    1     -2.98      0.00
   -6   26    1     -0.79      0.00
   -5   26    1     -1.19      0.00
   -4   26    1     -3.88      0.00
   -3   26    1      0.65      0.00
   -2   26    1     -2.39      0.00
   -1   26    1      0.53      0.00
    0   26    1      1.43      0.00
    1   26    1      2.52      0.00
    2   26    1      0.93      0.00
    3   26    1      0.30      0.00
    4   26    1      0.55      0.00
    5   26    1     -0.16      0.00
    6   26    1     -1.30      0.00
    7   26    1     -1.33      0.00
    8   26    1      0.79      0.00
    9   26    1      0.04      0.00
   10   26    1     -0.03      0.00
   11   26    1     -0.94      0.00
   12   26    1      0.29      0.00
  -12   27    1     -0.47      0.00
  -11   27    1     -0.20      0.00
  -10   27    1      0.05      0.00
   -9   27    1      0.94      0.00
   -8   27    1     -1.64      0.00
   -7   27    1      1.93      0.00
   -6   27    1     -1.74      0.00
   -5   27    1      1.52      0.00
   -4   27    1     -3.70      0.00
   -3   27    1     -0.68      0.00
   -2   27    1      3.52      0.00
   -1   27    1      1.24      0.00
    0   27    1      2.07      0.00
    1   27    1      0.89      0.00
    2   27    1     -0.77      0.00
    3   27    1      0.30      0.00
    4   27    1      2.52      0.00
    5   27    1     -0.64      0.00
    6   27    1     -2.42      0.00
    7   27    1     -1.44      0.00
    8   27    1     -1.52      0.00
    9   27    1     -0.50      0.00
   10   27    1      0.77      0.00
   11   27    1      0.99      0.00
   12   27    1     -1.48      0.00
  -12   28    1     -1.04      0.00
  -11   28    1      0.60      0.00
  -10   28    1     -0.64      0.00
   -9   28    1     -0.54      0.00
   -8   28    1      0.03      0.00
   -7   28    1     -1.75      0.00
   -6   28    1      1.24      0.00
   -5   28    1     -2.54      0.00
   -4   28    1      0.56      0.00
   -3   28    1      1.32      0.00
   -2   28    1      2.12      0.00
   -1   28    1      1.75      0.00
    0   28    1      2.16      0.00
    1   28    1      1.43      0.00
    2   28    1     -0.13      0.00
    3   28    1     -1.52      0.00
    4   28    1     -0.86      0.00
    5   28    1     -4.13      0.00
    6   28    1     -1.29      0.00
    7   28    1     -0.05      0.00
    8   28    1      0.90      0.00
    9   28    1     -0.45      0.00
   10   28    1      0.26      0.00
   11   28    1      0.79      0.00
  -12   29    1      0.13      0.00
  -11   29    1      0.84      0.00
  -10   29    1      0.76      0.00
   -9   29    1     -0.44      0.00
   -8   29    1     -0.16      0.00
   -7   29    1      0.08      0.00
   -6   29    1      0.55      0.00
   -5   29    1     -1.23      0.00
   -4   29    1     -2.38      0.00
   -3   29    1      1.26      0.00
   -2   29    1      3.25      0.00
   -1   29    1     -1.45      0.00
    0   29    1      1.45      0.00
    1   29    1      0.07      0.00
    2   29    1     -2.61      0.00
    3   29    1      1.15      0.00
    4   29    1     -0.75      0.00
    5   29    1     -1.20      0.00
    6   29    1     -0.41      0.00
    7   29    1      0.62      0.00
    8   29    1      0.81      0.00
    9   29    1      1.50      0.00
   10   29    1      1.55      0.00
   11   29    1     -0.19      0.00
  -12   30    1      0.44      0.00
  -11   30    1     -0.65      0.00
  -10   30    1      0.37      0.00
   -9   30    1     -0.33      0.00
   -8   30    1      1.60      0.00
   -7   30    1     -1.21      0.00
   -6   30    1      0.77      0.00
   -5   30    1      0.16      0.00
   -4   30    1      0.03      0.00
   -3   30    1      1.02      0.00
   -2   30    1     -1.03      0.00
   -1   30    1      0.69      0.00
    0   30    1      0.02      0.00
    1   30    1      0.52      0.00
    2   30    1     -1.67      0.00
    3   30    1     -2.10      0.00
    4   30    1     -1.32      0.00
    5   30    1     -1.80      0.00
    6   30    1      1.43      0.00
    7   30    1      1.57      0.00
    8   30    1      0.20      0.00
    9   30    1     -0.27      0.00
   10   30    1     -0.17      0.00
  -11   31    1     -0.22      0.00
  -10   31    1     -0.92      0.00
   -9   31    1     -0.07      0.00
   -8   31    1     -0.32      0.00
   -7   31    1      0.57      0.00
   -6   31    1     -1.10      0.00
   -5   31    1     -1.49      0.00
   -4   31    1     -1.57      0.00
   -3   31    1      1.55      0.00
   -2   31    1      0.37      0.00
   -1   31    1     -1.06      0.00
    0   31    1      3.21      0.00
    1   31    1     -2.58      0.00
    2   31    1     -0.36      0.00
    3   31    1      2.35      0.00
    4   31    1     -1.56      0.00
    5   31    1      0.88      0.00
    6   31    1      0.19      0.00
    7   31    1      0.58      0.00
    8   31    1     -0.23      0.00
    9   31    1      0.22      0.00
   10   31    1     -0.41      0.00
  -10   32    1      0.01      0.00
   -9   32    1      0.69      0.00
   -8   32    1     -0.37      0.00
   -7   32    1     -1.19      0.00
   -6   32    1      2.38      0.00
   -5   32    1     -1.76      0.00
   -4   32    1     -0.02      0.00
   -3   32    1     -0.51      0.00
   -2   32    1      0.02      0.00
   -1   32    1      0.77      0.00
    0   32    1      0.33      0.00
    1   32    1      0.27      0.00
    2   32    1     -1.79      0.00
    3   32    1     -0.10      0.00
    4   32    1      1.55      0.00
    5   32    1      0.37      0.00
    6   32    1      1.60      0.00
    7   32    1      0.10      0.00
    8   32    1      0.57      0.00
    9   32    1      0.42      0.00
  -10   33    1     -0.50      0.00
   -9   33    1     -0.06      0.00
   -8   33    1      0.01      0.00
   -7   33    1     -0.35      0.00
   -6   33    1     -1.41      0.00
   -5   33    1      1.22      0.00
   -4   33    1     -0.73      0.00
   -3   33    1      2.37      0.00
   -2   33    1     -1.21      0.00
   -1   33    1      1.18      0.00
    0   33    1     -0.24      0.00
    1   33    1     -3.15      0.00
    2   33    1      0.38      0.00
    3   33    1      1.03      0.00
    4   33    1     -1.54      0.00
    5   33    1      0.46      0.00
    6   33    1     -0.25      0.00
    7   33    1     -0.51      0.00
    8   33    1      0.00      0.00
    9   33    1      0.38      0.00
   -9   34    1     -0.07      0.00
   -8   34    1     -1.53      0.00
   -7   34    1      0.30      0.00
   -6   34    1      0.02      0.00
   -5   34    1     -1.93      0.00
   -4   34    1     -0.32      0.00
   -3   34    1      0.16      0.00
   -2   34    1     -1.04      0.00
   -1   34    1     -0.63      0.00
    0   34    1     -0.72      0.00
    1   34    1     -1.15      0.00
    2   34    1     -0.15      0.00
    3   34    1      0.01      0.00
    4   34    1      0.33      0.00
    5   34    1     -0.05      0.00
    6   34    1     -0.04      0.00
    7   34    1      0.72      0.00
    8   34    1      0.13      0.00
   -8   35    1     -0.33      0.00
   -7   35    1     -0.80      0.00
   -6   35    1      0.55      0.00
   -5   35    1     -0.88      0.00
   -4   35    1      0.58      0.00
   -3   35    1      0.50      0.00
   -2   35    1     -1.42      0.00
   -1   35    1      0.14      0.00
    0   35    1     -0.75      0.00
    1   35    1     -1.98      0.00
    2   35    1      0.55      0.00
    3   35    1      0.20      0.00
    4   35    1     -1.17      0.00
    5   35    1      0.96      0.00
    6   35    1     -0.17      0.00
    7   35    1     -0.59      0.00
    8   35    1      0.32      0.00
   -8   36    1     -0.46      0.00
   -5   36    1     -0.45      0.00
   -4   36    1      0.47      0.00
   -3   36    1      0.21      0.00
   -2   36    1      0.56      0.00
   -1   36    1      0.80      0.00
    0   36    1      0.26      0.00
    1   36    1      0.38      0.00
    2   36    1      1.03      0.00
    3   36    1     -1.54      0.00
    4   36    1      0.74      0.00
    5   36    1     -0.44      0.00
    7   36    1     -0.38      0.00
   -4   37    1      1.78      0.00
   -3   37    1      0.43      0.00
   -2   37    1     -0.47      0.00
   -1   37    1      1.12      0.00
    0   37    1     -1.04      0.00
    1   37    1     -0.39      0.00
    2   37    1      0.88      0.00
    3   37    1      0.21      0.00
    4   37    1      0.15      0.00
   -2   38    1      0.80      0.00
   -1   38    1      0.72      0.00
    0   38    1     -0.45      0.00
    1   38    1      0.54      0.00
    2   38    1     -0.74      0.00
   -1   39    1      0.16      0.00
    0   39    1      0.07      0.00
    1   39    1      0.88      0.00
  -16    0    2     -0.36      0.00
  -14    0    2      0.13      0.00
  -12    0    2     -0.57      0.00
  -10    0    2      0.86      0.00
   -8    0    2      4.04      0.00
   -6    0    2    -13.24      0.00
   -4    0    2    -48.55      0.00
   -2    0    2    -10.94      0.00
    0    0    2     39.99      0.00
    2    0    2     37.28      0.00
    4    0    2    -15.55      0.00
    6    0    2     -3.95      0.00
    8    0    2      2.58      0.00
   10    0    2     -1.05      0.00
   12    0    2     -1.65      0.00
   14    0    2     -0.04      0.00
  -17    1    2      1.76      0.00
  -16    1    2     -0.21      0.00
  -15    1    2      0.06      0.00
  -14    1    2      0.69      0.00
  -13    1    2     -1.07      0.00
  -12    1    2     -0.41      0.00
  -11    1    2      2.59      0.00
  -10    1    2     -2.28      0.00
   -9    1    2      5.76      0.00
   -8    1    2     -6.44      0.00
   -7    1    2    -15.43      0.00
   -6    1    2     10.84      0.00
   -5    1    2    -10.07      0.00
   -4    1    2      0.26      0.00
   -3    1    2    -12.74      0.00
   -2    1    2     -5.86      0.00
   -1    1    2    -45.39      0.00
    0    1    2     59.35      0.00
    1    1    2     35.33      0.00
    2    1    2      8.91      0.00
    3    1    2      3.25      0.00
    4    1    2      8.84      0.00
    5    1    2      7.47      0.00
    6    1    2     -8.02      0.00
    7    1    2     -5.06      0.00
    8    1    2     -1.66      0.00
    9    1    2     -0.77      0.00
   10    1    2      0.84      0.00
   11    1    2      2.14      0.00
   12    1    2      0.18      0.00
   13    1    2     -1.90      0.00
   14    1    2      0.46      0.00
   15    1    2     -1.17      0.00
  -17    2    2      0.78      0.00
  -16    2    2      0.89      0.00
  -15    2    2      1.29      0.00
  -14    2    2     -2.76      0.00
  -13    2    2      0.02      0.00
  -12    2    2     -0.90      0.00
  -11    2    2     -0.67      0.00
  -10    2    2      0.73      0.00
   -9    2    2      4.13      0.00
   -8    2    2      7.45      0.00
   -7    2    2      1.36      0.00
   -6    2    2      1.07      0.00
   -5    2    2      1.11      0.00
   -4    2    2      0.80      0.00
   -3    2    2      0.48      0.00
   -2    2    2     85.21      0.00
   -1    2    2    -27.42      0.00
    0    2    2      0.45      0.00
    1    2    2    -38.79      0.00
    2    2    2      5.94      0.00
    3    2    2    -12.77      0.00
    4    2    2    -14.93      0.00
    5    2    2     10.24      0.00
    6    2    2     -2.00      0.00
    7    2    2      2.73      0.00
    8    2    2      5.06      0.00
    9    2    2     -2.67      0.00
   10    2    2      1.35      0.00
   11    2    2     -0.38      0.00
   12    2    2      1.09      0.00
   13    2    2      3.01      0.00
   14    2    2     -1.95      0.00
   15    2    2     -0.05      0.00
  -17    3    2      0.21      0.00
  -16    3    2     -1.17      0.00
  -15    3    2     -1.24      0.00
  -14    3    2     -0.35      0.00
  -13    3    2     -1.33      0.00
  -12    3    2     -0.01      0.00
  -11    3    2     -1.42      0.00
  -10    3    2     -1.82      0.00
   -9    3    2      1.98      0.00
   -8    3    2     -6.53      0.00
   -7    3    2      4.61      0.00
   -6    3    2     11.20      0.00
   -5    3    2     -1.08      0.00
   -4    3    2    -13.19      0.00
   -3    3    2     57.45      0.00
   -2    3    2   -104.19      0.00
   -1    3    2    104.12      0.00
    0    3    2    -55.39      0.00
    1    3    2      4.90      0.00
    2    3    2     -2.74      0.00
    3    3    2    -13.78      0.00
    4    3    2     26.33      0.00
    5    3    2    -10.15      0.00
    6    3    2      2.36      0.00
    7    3    2      2.68      0.00
    8    3    2     -0.82      0.00
    9    3    2      4.43      0.00
   10    3    2      0.50      0.00
   11    3    2      2.78      0.00
   12    3    2     -1.06      0.00
   13    3    2     -1.02      0.00
   14    3    2     -1.18      0.00
   15    3    2      0.33      0.00
  -18    4    2      0.45      0.00
  -17    4    2      0.40      0.00
  -16    4    2      0.05      0.00
  -15    4    2     -2.09      0.00
  -14    4    2     -1.34      0.00
  -13    4    2      0.02      0.00
  -12    4    2      2.61      0.00
  -11    4    2     -1.28      0.00
  -10    4    2      1.00      0.00
   -9    4    2      3.59      0.00
   -8    4    2     -4.41      0.00
   -7    4    2     -2.96      0.00
   -6    4    2    -12.35      0.00
   -5    4    2      3.25      0.00
   -4    4    2    -10.26      0.00
   -3    4    2     11.11      0.00
   -2    4    2     50.57      0.00
   -1    4    2   -141.00      0.00
    0    4    2     14.17      0.00
    1    4    2    -37.45      0.00
    2    4    2     11.94      0.00
    3    4    2     -2.65      0.00
    4    4    2      3.39      0.00
    5    4    2     14.07      0.00
    6    4    2      2.44      0.00
    7    4    2      2.02      0.00
    8    4    2      1.30      0.00
    9    4    2     -4.85      0.00
   10    4    2      0.63      0.00
   11    4    2      0.02      0.00
   12    4    2      0.60      0.00
   13    4    2     -0.02      0.00
   14    4    2     -1.30      0.00
   15    4    2     -1.23      0.00
   16    4    2     -2.99      0.00
  -18    5    2      1.15      0.00
  -17    5    2     -0.50      0.00
  -16    5    2     -0.39      0.00
  -15    5    2     -2.29      0.00
  -14    5    2      0.28      0.00
  -13    5    2      1.20      0.00
  -12    5    2     -1.55      0.00
  -11    5    2     -0.49      0.00
  -10    5    2     -0.86      0.00
   -9    5    2      0.06      0.00
   -8    5    2     -3.57      0.00
   -7    5    2      3.04      0.00
   -6    5    2      4.22      0.00
   -5    5    2    -14.74      0.00
   -4    5    2     27.21      0.00
   -3    5    2    -10.06      0.00
   -2    5    2     -8.03      0.00
   -1    5    2     57.40      0.00
    0    5    2    -53.72      0.00
    1    5    2     23.33      0.00
    2    5    2    -15.36      0.00
    3    5    2    -13.33      0.00
    4    5    2     -1.56      0.00
    5    5    2    -10.36      0.00
    6    5    2     -2.77      0.00
    7    5    2      0.97      0.00
    8    5    2     -1.73      0.00
    9    5    2      3.23      0.00
   10    5    2      1.88      0.00
   11    5    2     -0.71      0.00
   12    5    2      0.24      0.00
   13    5    2     -0.45      0.00
   14    5    2      2.22      0.00
   15    5    2      0.80      0.00
   16    5    2     -0.96      0.00
  -18    6    2      0.60      0.00
  -17    6    2     -0.80      0.00
  -16    6    2     -0.49      0.00
  -15    6    2      0.44      0.00
  -14    6    2      0.65      0.00
  -13    6    2      0.36      0.00
  -12    6    2      3.09      0.00
  -11    6    2     -2.86      0.00
  -10    6    2      1.75      0.00
   -9    6    2     -4.28      0.00
   -8    6    2     -5.81      0.00
   -7    6    2     -7.76      0.00
   -6    6    2      2.33      0.00
   -5    6    2      0.33      0.00
   -4    6    2      1.69      0.00
   -3    6    2     33.14      0.00
   -2    6    2    -44.70      0.00
   -1    6    2     -2.88      0.00
    0    6    2     11.22      0.00
    1    6    2     31.82      0.00
    2    6    2    -15.87      0.00
    3    6    2     -1.00      0.00
    4    6    2     -6.46      0.00
    5    6    2     -7.55      0.00
    6    6    2     -5.37      0.00
    7    6    2     -5.97      0.00
    8    6    2     -1.04      0.00
    9    6    2     -1.20      0.00
   10    6    2      1.78      0.00
   11    6    2      1.86      0.00
   12    6    2      0.48      0.00
   13    6    2      0.75      0.00
   14    6    2      0.42      0.00
   15    6    2     -0.61      0.00
   16    6    2      0.02      0.00
   17    6    2      2.57      0.00
  -18    7    2     -1.64      0.00
  -17    7    2      0.82      0.00
  -16    7    2     -0.15      0.00
  -15    7    2      1.63      0.00
  -14    7    2      1.49      0.00
  -13    7    2      1.94      0.00
  -12    7    2     -0.57      0.00
  -11    7    2      1.72      0.00
  -10    7    2      3.12      0.00
   -9    7    2     -0.45      0.00
   -8    7    2     -0.20      0.00
   -7    7    2      2.29      0.00
   -6    7    2     -7.80      0.00
   -5    7    2      2.32      0.00
   -4    7    2     -2.94      0.00
   -3    7    2    -13.65      0.00
   -2    7    2     16.35      0.00
   -1    7    2    -16.44      0.00
    0    7    2      3.56      0.00
    1    7    2     -4.87      0.00
    2    7    2    -22.65      0.00
    3    7    2     -7.71      0.00
    4    7    2    -10.62      0.00
    5    7    2     -4.78      0.00
    6    7    2     -2.64      0.00
    7    7    2      0.23      0.00
    8    7    2      2.58      0.00
    9    7    2      2.84      0.00
   10    7    2      0.13      0.00
   11    7    2     -1.23      0.00
   12    7    2      1.17      0.00
   13    7    2      0.28      0.00
   14    7    2      1.52      0.00
   15    7    2     -1.37      0.00
   16    7    2     -0.52      0.00
   17    7    2     -0.14      0.00
  -18    8    2      0.71      0.00
  -17    8    2     -0.11      0.00
  -16    8    2      1.66      0.00
  -15    8    2      1.92      0.00
  -14    8    2     -0.22      0.00
  -13    8    2      0.79      0.00
  -12    8    2      1.02      0.00
  -11    8    2     -1.01      0.00
  -10    8    2      4.70      0.00
   -9    8    2     -1.47      0.00
   -8    8    2     -1.51      0.00
   -7    8    2      1.35      0.00
   -6    8    2     -0.40      0.00
   -5    8    2    -11.20      0.00
   -4    8    2      6.85      0.00
   -3    8    2    -24.53      0.00
   -2    8    2     -3.13      0.00
   -1    8    2      7.47      0.00
    0    8    2     26.99      0.00
    1    8    2     11.05      0.00
    2    8    2      1.94      0.00
    3    8    2     -1.80      0.00
    4    8    2     -4.45      0.00
    5    8    2     -3.61      0.00
    6    8    2     -3.89      0.00
    7    8    2      2.34      0.00
    8    8    2      0.68      0.00
    9    8    2      2.34      0.00
   10    8    2      2.36      0.00
   11    8    2      0.87      0.00
   12    8    2      0.91      0.00
   13    8    2      0.06      0.00
   14    8    2     -0.03      0.00
   15    8    2     -0.39      0.00
   16    8    2      1.90      0.00
  -17    9    2      0.68      0.00
  -16    9    2      1.65      0.00
  -15    9    2      0.05      0.00
  -14    9    2      0.71      0.00
  -13    9    2      0.16      0.00
  -12    9    2     -1.85      0.00
  -11    9    2      5.13      0.00
  -10    9    2      1.76      0.00
   -9    9    2      2.71      0.00
   -8    9    2      3.89      0.00
   -7    9    2     -6.81      0.00
   -6    9    2     -4.07      0.00
   -5    9    2    -13.75      0.00
   -4    9    2     -8.59      0.00
   -3    9    2    -12.61      0.00
   -2    9    2      2.66      0.00
   -1    9    2     -3.84      0.00
    0    9    2     21.43      0.00
    1    9    2      5.10      0.00
    2    9    2      3.18      0.00
    3    9    2      7.38      0.00
    4    9    2     -2.63      0.00
    5    9    2      3.76      0.00
    6    9    2     -0.72      0.00
    7    9    2      0.85      0.00
    8    9    2     -0.58      0.00
    9    9    2     -2.25      0.00
   10    9    2     -1.99      0.00
   11    9    2      0.28      0.00
   12    9    2      0.41      0.00
   13    9    2     -1.18      0.00
   14    9    2      0.48      0.00
   15    9    2     -0.06      0.00
   16    9    2     -1.50      0.00
  -17   10    2      2.16      0.00
  -16   10    2      0.25      0.00
  -15   10    2      0.07      0.00
  -14   10    2     -1.36      0.00
  -13   10    2      1.99      0.00
  -12   10    2     -0.25      0.00
  -11   10    2      2.01      0.00
  -10   10    2      3.72      0.00
   -9   10    2      0.11      0.00
   -8   10    2      4.12      0.00
   -7   10    2      3.66      0.00
   -6   10    2     -3.89      0.00
   -5   10    2      0.26      0.00
   -4   10    2     -8.61      0.00
   -3   10    2      3.02      0.00
   -2   10    2     -0.91      0.00
   -1   10    2     13.26      0.00
    0   10    2     17.97      0.00
    1   10    2      8.27      0.00
    2   10    2     -2.15      0.00
    3   10    2     -7.07      0.00
    4   10    2     -5.24      0.00
    5   10    2     -7.78      0.00
    6   10    2     -0.62      0.00
    7   10    2     -0.65      0.00
    8   10    2     -1.37      0.00
    9   10    2      1.90      0.00
   10   10    2     -2.62      0.00
   11   10    2      0.91      0.00
   12   10    2     -1.71      0.00
   13   10    2      0.18      0.00
   14   10    2     -0.19      0.00
   15   10    2     -0.78      0.00
   16   10    2      1.86      0.00
  -17   11    2     -0.61      0.00
  -16   11    2     -0.27      0.00
  -15   11    2     -0.95      0.00
  -14   11    2      1.50      0.00
  -13   11    2     -1.59      0.00
  -12   11    2      0.70      0.00
  -11   11    2      2.60      0.00
  -10   11    2      0.45      0.00
   -9   11    2      1.52      0.00
   -8   11    2     -0.49      0.00
   -7   11    2     -3.36      0.00
   -6   11    2     -3.42      0.00
   -5   11    2      1.14      0.00
   -4   11    2     -1.48      0.00
   -3   11    2     -4.17      0.00
   -2   11    2      6.20      0.00
   -1   11    2      1.00      0.00
    0   11    2     13.89      0.00
    1   11    2     -6.73      0.00
    2   11    2      7.73      0.00
    3   11    2    -10.22      0.00
    4   11    2      2.59      0.00
    5   11    2     -3.24      0.00
    6   11    2     -1.78      0.00
    7   11    2     -5.54      0.00
    8   11    2     -1.83      0.00
    9   11    2     -2.41      0.00
   10   11    2      1.11      0.00
   11   11    2      0.05      0.00
   12   11    2     -1.65      0.00
   13   11    2      0.11      0.00
   14   11    2      0.29      0.00
   15   11    2      0.30      0.00
   16   11    2     -1.29      0.00
  -17   12    2      1.40      0.00
  -16   12    2     -0.50      0.00
  -15   12    2     -1.89      0.00
  -14   12    2      0.24      0.00
  -13   12    2      0.75      0.00
  -12   12    2      0.14      0.00
  -11   12    2      1.17      0.00
  -10   12    2     -0.33      0.00
   -9   12    2      3.94      0.00
   -8   12    2     -0.58      0.00
   -7   12    2      3.57      0.00
   -6   12    2     -2.78      0.00
   -5   12    2     -2.00      0.00
   -4   12    2     -5.66      0.00
   -3   12    2      0.15      0.00
   -2   12    2     -8.27      0.00
   -1   12    2     -1.25      0.00
    0   12    2      3.10      0.00
    1   12    2    -11.49      0.00
    2   12    2     -8.50      0.00
    3   12    2     -0.66      0.00
    4   12    2     -3.66      0.00
    5   12    2      2.57      0.00
    6   12    2      1.88      0.00
    7   12    2      1.75      0.00
    8   12    2      0.31      0.00
    9   12    2     -2.14      0.00
   10   12    2     -1.36      0.00
   11   12    2     -1.04      0.00
   12   12    2     -1.06      0.00
   13   12    2      0.03      0.00
   14   12    2     -0.81      0.00
   15   12    2      0.44      0.00
   16   12    2     -0.29      0.00
  -16   13    2     -0.18      0.00
  -15   13    2      0.12      0.00
  -14   13    2      0.31      0.00
  -13   13    2     -0.98      0.00
  -12   13    2     -0.18      0.00
  -11   13    2      2.32      0.00
  -10   13    2      0.29      0.00
   -9   13    2      0.91      0.00
   -8   13    2      0.23      0.00
   -7   13    2     -3.16      0.00
   -6   13    2      7.92      0.00
   -5   13    2      2.02      0.00
   -4   13    2     -1.81      0.00
   -3   13    2      4.74      0.00
   -2   13    2     -0.21      0.00
   -1   13    2     10.15      0.00
    0   13    2     -9.22      0.00
    1   13    2     -0.44      0.00
    2   13    2     -3.48      0.00
    3   13    2     -0.28      0.00
    4   13    2      9.13      0.00
    5   13    2      1.17      0.00
    6   13    2      1.66      0.00
    7   13    2     -0.99      0.00
    8   13    2      1.36      0.00
    9   13    2      1.82      0.00
   10   13    2     -1.28      0.00
   11   13    2      0.79      0.00
   12   13    2     -1.69      0.00
   13   13    2      0.54      0.00
   14   13    2     -0.61      0.00
   15   13    2     -1.19      0.00
  -16   14    2     -1.51      0.00
  -15   14    2     -0.83      0.00
  -14   14    2      0.75      0.00
  -13   14    2     -0.43      0.00
  -12   14    2      0.24      0.00
  -11   14    2     -1.27      0.00
  -10   14    2      1.68      0.00
   -9   14    2     -1.75      0.00
   -8   14    2     -1.93      0.00
   -7   14    2      0.27      0.00
   -6   14    2     -4.65      0.00
   -5   14    2     -0.22      0.00
   -4   14    2     -1.38      0.00
   -3   14    2      8.43      0.00
   -2   14    2      0.48      0.00
   -1   14    2      4.81      0.00
    0   14    2     -4.87      0.00
    1   14    2     -3.13      0.00
    2   14    2     -3.20      0.00
    3   14    2      7.47      0.00
    4   14    2     -0.15      0.00
    5   14    2      7.36      0.00
    6   14    2      1.70      0.00
    7   14    2     -1.12      0.00
    8   14    2     -0.22      0.00
    9   14    2     -6.07      0.00
   10   14    2      1.50      0.00
   11   14    2     -2.34      0.00
   12   14    2      0.63      0.00
   13   14    2      0.06      0.00
   14   14    2     -0.60      0.00
   15   14    2      0.03      0.00
  -16   15    2     -0.70      0.00
  -15   15    2      0.46      0.00
  -14   15    2      0.59      0.00
  -13   15    2     -1.21      0.00
  -12   15    2      0.91      0.00
  -11   15    2     -0.48      0.00
  -10   15    2     -1.92      0.00
   -9   15    2     -1.05      0.00
   -8   15    2     -5.56      0.00
   -7   15    2      2.70      0.00
   -6   15    2      3.47      0.00
   -5   15    2     -2.76      0.00
   -4   15    2      3.83      0.00
   -3   15    2      5.33      0.00
   -2   15    2      1.91      0.00
   -1   15    2      0.17      0.00
    0   15    2     -7.49      0.00
    1   15    2     -5.63      0.00
    2   15    2      0.39      0.00
    3   15    2      2.09      0.00
    4   15    2      6.56      0.00
    5   15    2     -1.13      0.00
    6   15    2     -2.57      0.00
    7   15    2      2.46      0.00
    8   15    2     -1.68      0.00
    9   15    2     -0.14      0.00
   10   15    2     -1.29      0.00
   11   15    2     -0.73      0.00
   12   15    2     -0.52      0.00
   13   15    2     -0.88      0.00
   14   15    2      0.37      0.00
   15   15    2     -1.04      0.00
  -16   16    2     -0.06      0.00
  -15   16    2      1.53      0.00
  -14   16    2      1.06      0.00
  -13   16    2      0.61      0.00
  -12   16    2     -1.75      0.00
  -11   16    2     -0.51      0.00
  -10   16    2     -3.53      0.00
   -9   16    2     -4.11      0.00
   -8   16    2     -1.69      0.00
   -7   16    2     -2.45      0.00
   -6   16    2     -0.53      0.00
   -5   16    2      0.58      0.00
   -4   16    2      8.92      0.00
   -3   16    2      4.38      0.00
   -2   16    2     -1.00      0.00
   -1   16    2     -4.73      0.00
    0   16    2     -1.23      0.00
    1   16    2     -0.54      0.00
    2   16    2      1.69      0.00
    3   16    2      5.04      0.00
    4   16    2     -1.41      0.00
    5   16    2      3.89      0.00
    6   16    2     -3.25      0.00
    7   16    2     -1.53      0.00
    8   16    2     -2.65      0.00
    9   16    2     -2.95      0.00
   10   16    2      1.71      0.00
   11   16    2      0.19      0.00
   12   16    2      1.70      0.00
   13   16    2      0.54      0.00
   14   16    2      0.50      0.00
   15   16    2     -0.19      0.00
  -15   17    2      0.29      0.00
  -14   17    2      0.33      0.00
  -13   17    2     -0.99      0.00
  -12   17    2      1.94      0.00
  -11   17    2     -3.50      0.00
  -10   17    2     -1.03      0.00
   -9   17    2     -5.05      0.00
   -8   17    2     -1.48      0.00
   -7   17    2     -0.22      0.00
   -6   17    2     -0.45      0.00
   -5   17    2     -3.57      0.00
   -4   17    2      3.41      0.00
   -3   17    2     -1.70      0.00
   -2   17    2     -2.53      0.00
   -1   17    2     -1.35      0.00
    0   17    2     -3.63      0.00
    1   17    2      4.10      0.00
    2   17    2      1.85      0.00
    3   17    2      5.68      0.00
    4   17    2      5.02      0.00
    5   17    2     -2.55      0.00
    6   17    2     -0.37      0.00
    7   17    2      0.18      0.00
    8   17    2     -3.73      0.00
    9   17    2      0.25      0.00
   10   17    2     -2.93      0.00
   11   17    2     -0.40      0.00
   12   17    2      0.59      0.00
   13   17    2      3.21      0.00
   14   17    2      1.15      0.00
  -15   18    2      1.77      0.00
  -14   18    2     -1.17      0.00
  -13   18    2      0.85      0.00
  -12   18    2     -2.09      0.00
  -11   18    2     -0.73      0.00
  -10   18    2     -2.30      0.00
   -9   18    2     -0.36      0.00
   -8   18    2     -1.82      0.00
   -7   18    2      0.38      0.00
   -6   18    2     -1.85      0.00
   -5   18    2      4.27      0.00
   -4   18    2      4.97      0.00
   -3   18    2     -4.35      0.00
   -2   18    2     -3.02      0.00
   -1   18    2      2.04      0.00
    0   18    2      5.14      0.00
    1   18    2      0.35      0.00
    2   18    2      5.90      0.00
    3   18    2     -1.89      0.00
    4   18    2      2.85      0.00
    5   18    2     -0.58      0.00
    6   18    2     -0.54      0.00
    7   18    2     -0.76      0.00
    8   18    2     -1.20      0.00
    9   18    2     -0.78      0.00
   10   18    2      1.77      0.00
   11   18    2     -0.29      0.00
   12   18    2      0.55      0.00
   13   18    2     -0.24      0.00
   14   18    2      1.78      0.00
  -15   19    2      0.49      0.00
  -14   19    2      0.94      0.00
  -13   19    2     -0.79      0.00
  -12   19    2     -0.44      0.00
  -11   19    2     -1.70      0.00
  -10   19    2     -1.16      0.00
   -9   19    2     -2.61      0.00
   -8   19    2     -1.24      0.00
   -7   19    2     -0.70      0.00
   -6   19    2     -3.09      0.00
   -5   19    2     -1.90      0.00
   -4   19    2     -0.07      0.00
   -3   19    2      1.47      0.00
   -2   19    2      3.91      0.00
   -1   19    2     -0.97      0.00
    0   19    2      3.25      0.00
    1   19    2     -1.48      0.00
    2   19    2     -1.62      0.00
    3   19    2      3.12      0.00
    4   19    2     -1.55      0.00
    5   19    2     -4.24      0.00
    6   19    2     -1.53      0.00
    7   19    2     -1.15      0.00
    8   19    2     -1.22      0.00
    9   19    2      0.11      0.00
   10   19    2     -2.12      0.00
   11   19    2      0.57      0.00
   12   19    2      1.86      0.00
   13   19    2      1.28      0.00
   14   19    2     -0.94      0.00
   15   19    2      1.50      0.00
  -15   20    2      1.50      0.00
  -14   20    2     -0.61      0.00
  -13   20    2      0.56      0.00
  -12   20    2     -1.31      0.00
  -11   20    2      0.17      0.00
  -10   20    2      0.59      0.00
   -9   20    2      0.79      0.00
   -8   20    2     -0.94      0.00
   -7   20    2     -1.75      0.00
   -6   20    2     -0.72      0.00
   -5   20    2     -1.81      0.00
   -4   20    2     -1.20      0.00
   -3   20    2     -5.33      0.00
   -2   20    2      0.79      0.00
   -1   20    2      3.73      0.00
    0   20    2     -2.01      0.00
    1   20    2     -2.69      0.00
    2   20    2     -2.92      0.00
    3   20    2     -2.81      0.00
    4   20    2      0.78      0.00
    5   20    2     -1.04      0.00
    6   20    2      1.91      0.00
    7   20    2      1.26      0.00
    8   20    2      0.55      0.00
    9   20    2      2.34      0.00
   10   20    2     -0.94      0.00
   11   20    2      0.60      0.00
   12   20    2     -1.85      0.00
   13   20    2      0.06      0.00
   14   20    2      0.34      0.00
   15   20    2     -0.53      0.00
  -15   21    2      1.17      0.00
  -14   21    2      0.87      0.00
  -13   21    2     -0.10      0.00
  -12   21    2     -0.54      0.00
  -11   21    2      0.33      0.00
  -10   21    2      0.78      0.00
   -9   21    2     -1.66      0.00
   -8   21    2      2.23      0.00
   -7   21    2      0.68      0.00
   -6   21    2     -2.70      0.00
   -5   21    2     -0.47      0.00
   -4   21    2      0.29      0.00
   -3   21    2      2.84      0.00
   -2   21    2     -0.57      0.00
   -1   21    2     -2.72      0.00
    0   21    2     -3.71      0.00
    1   21    2     -4.60      0.00
    2   21    2      0.37      0.00
    3   21    2      2.98      0.00
    4   21    2     -2.93      0.00
    5   21    2     -1.44      0.00
    6   21    2      3.22      0.00
    7   21    2     -0.34      0.00
    8   21    2      3.06      0.00
    9   21    2     -1.62      0.00
   10   21    2      2.31      0.00
   11   21    2     -0.68      0.00
   12   21    2      0.56      0.00
   13   21    2     -1.34      0.00
   14   21    2     -1.54      0.00
  -15   22    2      0.66      0.00
  -14   22    2      0.94      0.00
  -13   22    2     -0.46      0.00
  -12   22    2      1.01      0.00
  -11   22    2     -0.31      0.00
  -10   22    2      0.48      0.00
   -9   22    2     -0.42      0.00
   -8   22    2     -1.44      0.00
   -7   22    2     -0.41      0.00
   -6   22    2     -1.11      0.00
   -5   22    2     -1.98      0.00
   -4   22    2     -1.35      0.00
   -3   22    2     -0.76      0.00
   -2   22    2      1.10      0.00
   -1   22    2      2.60      0.00
    0   22    2     -2.07      0.00
    1   22    2     -1.28      0.00
    2   22    2      0.06      0.00
    3   22    2      0.15      0.00
    4   22    2      1.37      0.00
    5   22    2      1.97      0.00
    6   22    2      0.62      0.00
    7   22    2      1.58      0.00
    8   22    2     -1.83      0.00
    9   22    2      0.53      0.00
   10   22    2     -1.79      0.00
   11   22    2     -0.57      0.00
   12   22    2      0.43      0.00
   13   22    2      0.30      0.00
   14   22    2      0.50      0.00
  -15   23    2     -1.12      0.00
  -14   23    2     -0.37      0.00
  -13   23    2      1.22      0.00
  -12   23    2     -0.30      0.00
  -11   23    2      0.64      0.00
  -10   23    2     -0.68      0.00
   -9   23    2      0.69      0.00
   -8   23    2      2.16      0.00
   -7   23    2      0.91      0.00
   -6   23    2     -1.88      0.00
   -5   23    2      2.18      0.00
   -4   23    2      1.83      0.00
   -3   23    2      0.45      0.00
   -2   23    2     -0.72      0.00
   -1   23    2     -1.30      0.00
    0   23    2     -0.47      0.00
    1   23    2      1.61      0.00
    2   23    2      4.29      0.00
    3   23    2      1.39      0.00
    4   23    2     -4.12      0.00
    5   23    2      1.21      0.00
    6   23    2      2.13      0.00
    7   23    2     -0.59      0.00
    8   23    2      1.48      0.00
    9   23    2     -1.00      0.00
   10   23    2      0.19      0.00
   11   23    2     -0.11      0.00
   12   23    2      0.24      0.00
   13   23    2      0.04      0.00
  -15   24    2      0.42      0.00
  -14   24    2      0.22      0.00
  -13   24    2     -0.20      0.00
  -12   24    2     -0.17      0.00
  -11   24    2     -0.03      0.00
  -10   24    2     -0.17      0.00
   -9   24    2     -0.80      0.00
   -8   24    2      0.77      0.00
   -7   24    2      0.97      0.00
   -6   24    2      2.04      0.00
   -5   24    2      0.42      0.00
   -4   24    2      3.04      0.00
   -3   24    2      0.74      0.00
   -2   24    2      2.46      0.00
   -1   24    2      1.50      0.00
    0   24    2     -2.36      0.00
    1   24    2     -0.70      0.00
    2   24    2     -2.12      0.00
    3   24    2     -1.72      0.00
    4   24    2     -0.29      0.00
    5   24    2      1.06      0.00
    6   24    2     -0.13      0.00
    7   24    2      1.00      0.00
    8   24    2     -1.52      0.00
    9   24    2      0.22      0.00
   10   24    2     -0.57      0.00
   11   24    2      0.48      0.00
   12   24    2      1.60      0.00
   13   24    2      0.02      0.00
  -14   25    2      1.17      0.00
  -13   25    2      1.43      0.00
  -12   25    2      0.02      0.00
  -11   25    2     -0.75      0.00
  -10   25    2      0.57      0.00
   -9   25    2      1.06      0.00
   -8   25    2      1.42      0.00
   -7   25    2     -1.29      0.00
   -6   25    2     -0.05      0.00
   -5   25    2      3.02      0.00
   -4   25    2      0.99      0.00
   -3   25    2     -1.88      0.00
   -2   25    2     -2.36      0.00
   -1   25    2     -0.65      0.00
    0   25    2     -1.61      0.00
    1   25    2      1.61      0.00
    2   25    2      0.43      0.00
    3   25    2     -2.62      0.00
    4   25    2     -1.00      0.00
    5   25    2      2.18      0.00
    6   25    2      2.84      0.00
    7   25    2      1.12      0.00
    8   25    2      1.88      0.00
    9   25    2      0.16      0.00
   10   25    2     -0.34      0.00
   11   25    2      0.45      0.00
   12   25    2      0.51      0.00
  -13   26    2      0.43      0.00
  -12   26    2      0.34      0.00
  -11   26    2      0.12      0.00
  -10   26    2     -0.41      0.00
   -9   26    2      1.11      0.00
   -8   26    2      0.22      0.00
   -7   26    2      2.91      0.00
   -6   26    2     -1.23      0.00
   -5   26    2      3.14      0.00
   -4   26    2     -1.06      0.00
   -3   26    2     -0.09      0.00
   -2   26    2     -1.17      0.00
   -1   26    2     -2.43      0.00
    0   26    2     -2.40      0.00
    1   26    2     -3.33      0.00
    2   26    2      0.43      0.00
    3   26    2      1.00      0.00
    4   26    2      2.01      0.00
    5   26    2      3.41      0.00
    6   26    2      0.36      0.00
    7   26    2      0.06      0.00
    8   26    2     -1.23      0.00
    9   26    2     -0.33      0.00
   10   26    2     -0.11      0.00
   11   26    2      0.09      0.00
   12   26    2     -1.52      0.00
  -13   27    2      1.19      0.00
  -12   27    2     -1.56      0.00
  -11   27    2      0.57      0.00
  -10   27    2     -0.93      0.00
   -9   27    2      0.43      0.00
   -8   27    2     -1.43      0.00
   -7   27    2     -0.56      0.00
   -6   27    2      0.36      0.00
   -5   27    2      0.36      0.00
   -4   27    2      0.94      0.00
   -3   27    2     -4.25      0.00
   -2   27    2      0.79      0.00
   -1   27    2     -0.66      0.00
    0   27    2     -0.58      0.00
    1   27    2      2.16      0.00
    2   27    2      0.18      0.00
    3   27    2     -1.10      0.00
    4   27    2      1.91      0.00
    5   27    2      1.12      0.00
    6   27    2     -0.11      0.00
    7   27    2     -0.66      0.00
    8   27    2     -0.47      0.00
    9   27    2     -1.35      0.00
   10   27    2     -2.12      0.00
   11   27    2      0.81      0.00
  -13   28    2      0.15      0.00
  -12   28    2      0.19      0.00
  -11   28    2     -0.29      0.00
  -10   28    2      1.39      0.00
   -9   28    2     -1.00      0.00
   -8   28    2      1.97      0.00
   -7   28    2     -1.99      0.00
   -6   28    2      0.99      0.00
   -5   28    2      0.73      0.00
   -4   28    2     -1.11      0.00
   -3   28    2      0.34      0.00
   -2   28    2      0.01      0.00
   -1   28    2     -0.52      0.00
    0   28    2     -2.88      0.00
    1   28    2      1.30      0.00
    2   28    2      1.89      0.00
    3   28    2      1.76      0.00
    4   28    2      2.87      0.00
    5   28    2     -0.21      0.00
    6   28    2     -0.92      0.00
    7   28    2     -1.79      0.00
    8   28    2     -0.56      0.00
    9   28    2      0.39      0.00
   10   28    2      1.79      0.00
   11   28    2     -1.20      0.00
  -12   29    2     -0.10      0.00
  -11   29    2      0.14      0.00
  -10   29    2      0.04      0.00
   -9   29    2      0.09      0.00
   -8   29    2     -0.26      0.00
   -7   29    2      1.60      0.00
   -6   29    2     -1.47      0.00
   -5   29    2      3.89      0.00
   -4   29    2     -0.06      0.00
   -3   29    2     -0.15      0.00
   -2   29    2      2.25      0.00
   -1   29    2     -2.32      0.00
    0   29    2      0.75      0.00
    1   29    2      0.46      0.00
    2   29    2     -1.03      0.00
    3   29    2     -1.11      0.00
    4   29    2     -0.53      0.00
    5   29    2      0.50      0.00
    6   29    2     -0.58      0.00
    7   29    2      0.12      0.00
    8   29    2     -0.02      0.00
    9   29    2     -0.96      0.00
   10   29    2      0.95      0.00
  -12   30    2      0.43      0.00
  -11   30    2      0.92      0.00
  -10   30    2     -0.10      0.00
   -9   30    2     -0.40      0.00
   -8   30    2      0.52      0.00
   -7   30    2     -2.11      0.00
   -6   30    2      1.18      0.00
   -5   30    2     -1.14      0.00
   -4   30    2      0.23      0.00
   -3   30    2      0.48      0.00
   -2   30    2     -0.16      0.00
   -1   30    2     -2.17      0.00
    0   30    2     -0.48      0.00
    1   30    2      1.82      0.00
    2   30    2      0.67      0.00
    3   30    2      0.30      0.00
    4   30    2      0.92      0.00
    5   30    2     -1.61      0.00
    6   30    2     -0.46      0.00
    7   30    2      0.11      0.00
    8   30    2      0.46      0.00
    9   30    2      1.23      0.00
   10   30    2      0.10      0.00
  -11   31    2      0.77      0.00
  -10   31    2      0.67      0.00
   -9   31    2      0.41      0.00
   -8   31    2      0.71      0.00
   -7   31    2     -1.14      0.00
   -6   31    2      0.85      0.00
   -5   31    2      1.15      0.00
   -4   31    2     -2.19      0.00
   -3   31    2     -0.99      0.00
   -2   31    2      0.87      0.00
   -1   31    2     -1.97      0.00
    0   31    2      1.76      0.00
    1   31    2      0.69      0.00
    2   31    2     -1.74      0.00
    3   31    2     -0.08      0.00
    4   31    2     -0.03      0.00
    5   31    2      1.16      0.00
    6   31    2      0.59      0.00
    7   31    2     -0.30      0.00
    8   31    2     -0.75      0.00
    9   31    2     -0.25      0.00
  -11   32    2     -0.77      0.00
  -10   32    2      0.39      0.00
   -9   32    2     -0.03      0.00
   -8   32    2      0.14      0.00
   -7   32    2     -1.30      0.00
   -6   32    2      0.07      0.00
   -5   32    2      0.55      0.00
   -4   32    2     -0.15      0.00
   -3   32    2      1.17      0.00
   -2   32    2     -0.47      0.00
   -1   32    2      1.15      0.00
    0   32    2      1.22      0.00
    1   32    2      1.93      0.00
    2   32    2      0.52      0.00
    3   32    2     -0.17      0.00
    4   32    2      0.52      0.00
    5   32    2     -1.17      0.00
    6   32    2     -0.40      0.00
    7   32    2     -0.47      0.00
    8   32    2     -0.10      0.00
    9   32    2      0.26      0.00
  -10   33    2     -0.18      0.00
   -9   33    2      0.34      0.00
   -8   33    2     -0.35      0.00
   -7   33    2      0.70      0.00
   -6   33    2     -0.03      0.00
   -5   33    2      0.30      0.00
   -4   33    2     -2.40      0.00
   -3   33    2      2.57      0.00
   -2   33    2      0.58      0.00
   -1   33    2     -0.17      0.00
    0   33    2      2.36      0.00
    1   33    2     -0.47      0.00
    2   33    2     -0.21      0.00
    3   33    2      2.94      0.00
    4   33    2     -0.02      0.00
    5   33    2      1.57      0.00
    6   33    2     -0.51      0.00
    7   33    2      0.30      0.00
    8   33    2      0.09      0.00
   -9   34    2      0.37      0.00
   -8   34    2     -0.07      0.00
   -7   34    2     -0.83      0.00
   -6   34    2      2.99      0.00
   -5   34    2     -0.28      0.00
   -4   34    2      0.25      0.00
   -3   34    2      0.24      0.00
   -2   34    2      0.57      0.00
   -1   34    2     -0.18      0.00
    0   34    2     -0.35      0.00
    1   34    2      0.97      0.00
    2   34    2     -0.32      0.00
    3   34    2     -0.41      0.00
    4   34    2      0.58      0.00
    5   34    2     -1.42      0.00
    6   34    2      0.28      0.00
    7   34    2     -0.26      0.00
    8   34    2      1.20      0.00
   -9   35    2     -0.23      0.00
   -8   35    2     -0.34      0.00
   -7   35    2     -0.34      0.00
   -6   35    2     -1.26      0.00
   -5   35    2     -0.20      0.00
   -4   35    2     -0.79      0.00
   -3   35    2      1.00      0.00
   -2   35    2     -2.44      0.00
   -1   35    2     -0.08      0.00
    0   35    2      1.43      0.00
    1   35    2     -0.94      0.00
    2   35    2      0.65      0.00
    3   35    2      0.94      0.00
    4   35    2     -1.59      0.00
    5   35    2      0.08      0.00
    7   35    2     -0.13      0.00
   -5   36    2     -1.30      0.00
   -4   36    2     -0.76      0.00
   -3   36    2     -0.11      0.00
   -2   36    2     -0.97      0.00
   -1   36    2     -1.53      0.00
    0   36    2     -0.17      0.00
    1   36    2     -0.66      0.00
    2   36    2      0.54      0.00
    3   36    2     -0.83      0.00
    4   36    2      0.02      0.00
   -4   37    2      1.70      0.00
   -3   37    2      0.42      0.00
   -2   37    2     -1.13      0.00
   -1   37    2      0.96      0.00
    0   37    2      0.49      0.00
    1   37    2     -1.18      0.00
    2   37    2     -0.43      0.00
    3   37    2     -0.03      0.00
   -2   38    2     -0.78      0.00
   -1   38    2     -0.95      0.00
    0   38    2     -0.94      0.00
    1   38    2      0.09      0.00
    2   38    2      1.31      0.00
    0   39    2     -1.40      0.00
    1   39    2     -1.24      0.00
  -17    0    3     -0.74      0.00
  -15    0    3      0.19      0.00
  -13    0    3      3.06      0.00
  -11    0    3      2.41      0.00
   -9    0    3     -5.09      0.00
   -7    0    3     -8.74      0.00
   -5    0    3      8.99      0.00
   -3    0    3    -34.83      0.00
   -1    0    3    -53.72      0.00
    1    0    3     -8.97      0.00
    3    0    3     17.89      0.00
    5    0    3     12.05      0.00
    7    0    3     -6.36      0.00
    9    0    3     -2.03      0.00
   11    0    3     -1.26      0.00
   13    0    3     -2.74      0.00
  -17    1    3      1.25      0.00
  -16    1    3     -0.01      0.00
  -15    1    3      2.48      0.00
  -14    1    3      0.52      0.00
  -13    1    3      0.05      0.00
  -12    1    3      0.35      0.00
  -11    1    3      1.70      0.00
  -10    1    3     -3.54      0.00
   -9    1    3      1.63      0.00
   -8    1    3      6.78      0.00
   -7    1    3     -6.95      0.00
   -6    1    3      7.93      0.00
   -5    1    3    -15.29      0.00
   -4    1    3      8.57      0.00
   -3    1    3    -25.54      0.00
   -2    1    3      2.22      0.00
   -1    1    3     30.91      0.00
    0    1    3      0.47      0.00
    1    1    3     16.53      0.00
    2    1    3      1.46      0.00
    3    1    3    -13.57      0.00
    4    1    3    -17.98      0.00
    5    1    3     -2.35      0.00
    6    1    3      2.55      0.00
    7    1    3     -1.15      0.00
    8    1    3      2.29      0.00
    9    1    3     -1.20      0.00
   10    1    3     -1.08      0.00
   11    1    3     -0.58      0.00
   12    1    3      0.04      0.00
   13    1    3      0.71      0.00
   14    1    3      0.97      0.00
  -18    2    3     -0.59      0.00
  -17    2    3     -0.53      0.00
  -16    2    3      0.68      0.00
  -15    2    3      1.70      0.00
  -14    2    3      0.43      0.00
  -13    2    3      0.04      0.00
  -12    2    3      0.46      0.00
  -11    2    3     -0.88      0.00
  -10    2    3     -1.86      0.00
   -9    2    3     -2.68      0.00
   -8    2    3     -4.75      0.00
   -7    2    3      7.74      0.00
   -6    2    3     -3.21      0.00
   -5    2    3     19.07      0.00
   -4    2    3    -31.60      0.00
   -3    2    3      9.89      0.00
   -2    2    3    -13.00      0.00
   -1    2    3     35.17      0.00
    0    2    3     64.14      0.00
    1    2    3    -25.10      0.00
    2    2    3     33.34      0.00
    3    2    3      1.44      0.00
    4    2    3     -5.94      0.00
    5    2    3     -3.94      0.00
    6    2    3    -13.63      0.00
    7    2    3     -2.37      0.00
    8    2    3      1.01      0.00
    9    2    3      1.74      0.00
   10    2    3      0.59      0.00
   11    2    3      0.92      0.00
   12    2    3     -2.20      0.00
   13    2    3      0.96      0.00
   14    2    3      0.46      0.00
  -18    3    3      1.08      0.00
  -17    3    3      1.05      0.00
  -16    3    3      2.30      0.00
  -15    3    3      0.02      0.00
  -14    3    3     -0.40      0.00
  -13    3    3     -0.64      0.00
  -12    3    3      0.52      0.00
  -11    3    3      2.82      0.00
  -10    3    3     -2.27      0.00
   -9    3    3      8.69      0.00
   -8    3    3      2.11      0.00
   -7    3    3     -3.12      0.00
   -6    3    3      1.46      0.00
   -5    3    3     -6.15      0.00
   -4    3    3     -8.28      0.00
   -3    3    3      6.51      0.00
   -2    3    3     19.69      0.00
   -1    3    3      3.82      0.00
    0    3    3    -17.18      0.00
    1    3    3      9.11      0.00
    2    3    3      6.03      0.00
    3    3    3    -17.56      0.00
    4    3    3      7.41      0.00
    5    3    3      4.23      0.00
    6    3    3      2.82      0.00
    7    3    3      2.67      0.00
    8    3    3     -2.07      0.00
    9    3    3     -1.03      0.00
   10    3    3     -1.44      0.00
   11    3    3      0.36      0.00
   12    3    3      1.48      0.00
   13    3    3     -1.95      0.00
   14    3    3     -1.53      0.00
   15    3    3      1.48      0.00
  -18    4    3     -0.69      0.00
  -17    4    3      0.35      0.00
  -16    4    3      1.70      0.00
  -15    4    3      0.99      0.00
  -14    4    3     -1.46      0.00
  -13    4    3     -0.09      0.00
  -12    4    3     -0.80      0.00
  -11    4    3     -1.84      0.00
  -10    4    3     -0.45      0.00
   -9    4    3      1.37      0.00
   -8    4    3      6.82      0.00
   -7    4    3      5.78      0.00
   -6    4    3      1.75      0.00
   -5    4    3     -7.90      0.00
   -4    4    3      9.06      0.00
   -3    4    3    -40.63      0.00
   -2    4    3     55.71      0.00
   -1    4    3      0.50      0.00
    0    4    3      4.02      0.00
    1    4    3     -7.20      0.00
    2    4    3     26.81      0.00
    3    4    3     10.29      0.00
    4    4    3     -6.34      0.00
    5    4    3      3.97      0.00
    6    4    3      0.39      0.00
    7    4    3      2.29      0.00
    8    4    3      4.90      0.00
    9    4    3     -1.34      0.00
   10    4    3      1.94      0.00
   11    4    3     -1.77      0.00
   12    4    3     -1.55      0.00
   13    4    3      0.58      0.00
   14    4    3      0.45      0.00
   15    4    3      1.03      0.00
  -18    5    3      0.62      0.00
  -17    5    3     -0.33      0.00
  -16    5    3     -0.95      0.00
  -15    5    3     -3.08      0.00
  -14    5    3      0.22      0.00
  -13    5    3      0.22      0.00
  -12    5    3      1.16      0.00
  -11    5    3     -1.52      0.00
  -10    5    3     -0.78      0.00
   -9    5    3      4.03      0.00
   -8    5    3     -4.83      0.00
   -7    5    3     -3.09      0.00
   -6    5    3     -0.53      0.00
   -5    5    3      1.06      0.00
   -4    5    3    -19.17      0.00
   -3    5    3     61.09      0.00
   -2    5    3    -84.38      0.00
   -1    5    3     50.45      0.00
    0    5    3    -47.24      0.00
    1    5    3     38.55      0.00
    2    5    3     10.65      0.00
    3    5    3     -1.87      0.00
    4    5    3     29.63      0.00
    5    5    3      1.52      0.00
    6    5    3      5.34      0.00
    7    5    3     -0.13      0.00
    8    5    3     -7.56      0.00
    9    5    3      0.24      0.00
   10    5    3     -3.40      0.00
   11    5    3      0.52      0.00
   12    5    3     -1.35      0.00
   13    5    3     -2.26      0.00
   14    5    3     -0.62      0.00
   15    5    3      2.00      0.00
   16    5    3     -1.01      0.00
  -18    6    3      0.07      0.00
  -17    6    3     -0.48      0.00
  -16    6    3     -1.46      0.00
  -15    6    3     -2.17      0.00
  -14    6    3     -0.52      0.00
  -13    6    3     -2.57      0.00
  -12    6    3      1.22      0.00
  -11    6    3     -3.46      0.00
  -10    6    3      1.36      0.00
   -9    6    3      2.45      0.00
   -8    6    3      3.05      0.00
   -7    6    3      5.39      0.00
   -6    6    3     -5.59      0.00
   -5    6    3     18.76      0.00
   -4    6    3     -2.87      0.00
   -3    6    3    -10.83      0.00
   -2    6    3     63.26      0.00
   -1    6    3    -61.28      0.00
    0    6    3      5.77      0.00
    1    6    3     -4.45      0.00
    2    6    3     -2.13      0.00
    3    6    3      0.62      0.00
    4    6    3     -5.11      0.00
    5    6    3      6.72      0.00
    6    6    3      2.97      0.00
    7    6    3     -0.98      0.00
    8    6    3      2.62      0.00
    9    6    3     -2.06      0.00
   10    6    3     -1.05      0.00
   11    6    3     -2.81      0.00
   12    6    3     -1.08      0.00
   13    6    3      1.23      0.00
   14    6    3      1.47      0.00
   15    6    3     -0.80      0.00
   16    6    3     -1.13      0.00
  -18    7    3     -0.97      0.00
  -17    7    3     -0.77      0.00
  -16    7    3     -1.44      0.00
  -15    7    3     -1.85      0.00
  -14    7    3     -0.55      0.00
  -13    7    3      1.90      0.00
  -12    7    3     -2.72      0.00
  -11    7    3     -3.95      0.00
  -10    7    3     -2.52      0.00
   -9    7    3     -3.34      0.00
   -8    7    3     -3.66      0.00
   -7    7    3      2.45      0.00
   -6    7    3     15.03      0.00
   -5    7    3     -3.06      0.00
   -4    7    3     35.96      0.00
   -3    7    3    -10.05      0.00
   -2    7    3    -12.68      0.00
   -1    7    3     13.44      0.00
    0    7    3    -27.48      0.00
    1    7    3      9.08      0.00
    2    7    3    -12.22      0.00
    3    7    3      7.60      0.00
    4    7    3      3.49      0.00
    5    7    3      0.25      0.00
    6    7    3     -2.81      0.00
    7    7    3     -1.66      0.00
    8    7    3     -1.87      0.00
    9    7    3      0.36      0.00
   10    7    3      1.64      0.00
   11    7    3     -1.20      0.00
   12    7    3      1.49      0.00
   13    7    3     -0.39      0.00
   14    7    3      1.64      0.00
   15    7    3      0.99      0.00
   16    7    3      1.32      0.00
  -18    8    3      0.28      0.00
  -17    8    3     -0.44      0.00
  -16    8    3     -0.83      0.00
  -15    8    3      0.98      0.00
  -14    8    3     -0.74      0.00
  -13    8    3     -0.39      0.00
  -12    8    3      0.78      0.00
  -11    8    3     -3.20      0.00
  -10    8    3      0.66      0.00
   -9    8    3     -4.33      0.00
   -8    8    3      0.60      0.00
   -7    8    3     -6.23      0.00
   -6    8    3      8.21      0.00
   -5    8    3      7.09      0.00
   -4    8    3     -8.66      0.00
   -3    8    3     20.98      0.00
   -2    8    3    -11.86      0.00
   -1    8    3    -25.27      0.00
    0    8    3    -19.55      0.00
    1    8    3     -5.33      0.00
    2    8    3    -10.10      0.00
    3    8    3      3.04      0.00
    4    8    3      6.04      0.00
    5    8    3      6.35      0.00
    6    8    3      2.85      0.00
    7    8    3      2.16      0.00
    8    8    3      0.99      0.00
    9    8    3     -0.99      0.00
   10    8    3     -2.74      0.00
   11    8    3     -0.28      0.00
   12    8    3      1.12      0.00
   13    8    3      0.19      0.00
   14    8    3     -0.72      0.00
   15    8    3     -1.05      0.00
   16    8    3     -0.01      0.00
  -18    9    3     -1.07      0.00
  -17    9    3      1.64      0.00
  -16    9    3      0.76      0.00
  -15    9    3     -0.22      0.00
  -14    9    3      0.47      0.00
  -13    9    3      2.30      0.00
  -12    9    3     -3.31      0.00
  -11    9    3     -0.12      0.00
  -10    9    3     -1.40      0.00
   -9    9    3     -3.25      0.00
   -8    9    3      1.76      0.00
   -7    9    3      4.00      0.00
   -6    9    3      1.69      0.00
   -5    9    3     10.44      0.00
   -4    9    3      4.97      0.00
   -3    9    3     -6.52      0.00
   -2    9    3     14.17      0.00
   -1    9    3    -21.60      0.00
    0    9    3      0.98      0.00
    1    9    3     -0.45      0.00
    2    9    3      1.12      0.00
    3    9    3      7.52      0.00
    4    9    3      0.67      0.00
    5    9    3      3.25      0.00
    6    9    3      3.10      0.00
    7    9    3      2.26      0.00
    8    9    3      2.17      0.00
    9    9    3      3.35      0.00
   10    9    3      0.45      0.00
   11    9    3      0.74      0.00
   12    9    3      1.66      0.00
   13    9    3     -1.40      0.00
   14    9    3      0.60      0.00
   15    9    3     -0.37      0.00
   16    9    3      0.16      0.00
  -17   10    3     -0.50      0.00
  -16   10    3     -0.08      0.00
  -15   10    3      0.36      0.00
  -14   10    3     -1.04      0.00
  -13   10    3      0.30      0.00
  -12   10    3      0.38      0.00
  -11   10    3     -1.67      0.00
  -10   10    3     -0.19      0.00
   -9   10    3     -2.65      0.00
   -8   10    3     -5.18      0.00
   -7   10    3     -0.47      0.00
   -6   10    3      1.91      0.00
   -5   10    3     -2.29      0.00
   -4   10    3      8.85      0.00
   -3   10    3      2.12      0.00
   -2   10    3      2.75      0.00
   -1   10    3     -7.89      0.00
    0   10    3      9.30      0.00
    1   10    3      0.82      0.00
    2   10    3      8.28      0.00
    3   10    3      2.71      0.00
    4   10    3      6.38      0.00
    5   10    3      1.41      0.00
    6   10    3     -0.39      0.00
    7   10    3     -0.16      0.00
    8   10    3     -1.57      0.00
    9   10    3     -0.92      0.00
   10   10    3     -0.30      0.00
   11   10    3      2.18      0.00
   12   10    3     -0.28      0.00
   13   10    3     -0.02      0.00
   14   10    3      0.09      0.00
   15   10    3     -0.57      0.00
   16   10    3      1.07      0.00
  -17   11    3     -0.01      0.00
  -16   11    3      0.08      0.00
  -15   11    3     -1.29      0.00
  -14   11    3      2.19      0.00
  -13   11    3      0.16      0.00
  -12   11    3     -2.48      0.00
  -11   11    3      1.83      0.00
  -10   11    3     -4.25      0.00
   -9   11    3      1.15      0.00
   -8   11    3      2.35      0.00
   -7   11    3     -5.12      0.00
   -6   11    3      4.38      0.00
   -5   11    3     -1.48      0.00
   -4   11    3     -1.00      0.00
   -3   11    3      0.86      0.00
   -2   11    3     -2.84      0.00
   -1   11    3     -9.48      0.00
    0   11    3     16.50      0.00
    1   11    3      0.11      0.00
    2   11    3      2.42      0.00
    3   11    3     -5.29      0.00
    4   11    3     -4.93      0.00
    5   11    3     -1.60      0.00
    6   11    3     -1.60      0.00
    7   11    3     -0.84      0.00
    8   11    3      1.95      0.00
    9   11    3     -0.01      0.00
   10   11    3     -0.28      0.00
   11   11    3      1.25      0.00
   12   11    3     -0.32      0.00
   13   11    3     -1.02      0.00
   14   11    3      0.19      0.00
   15   11    3      2.18      0.00
   16   11    3     -2.04      0.00
  -17   12    3     -0.02      0.00
  -16   12    3      0.22      0.00
  -15   12    3      0.66      0.00
  -14   12    3     -0.62      0.00
  -13   12    3      1.41      0.00
  -12   12    3     -0.16      0.00
  -11   12    3     -1.07      0.00
  -10   12    3     -1.07      0.00
   -9   12    3     -1.28      0.00
   -8   12    3     -1.33      0.00
   -7   12    3      2.64      0.00
   -6   12    3     -0.26      0.00
   -5   12    3      6.35      0.00
   -4   12    3     -6.99      0.00
   -3   12    3      3.04      0.00
   -2   12    3     -8.50      0.00
   -1   12    3      5.85      0.00
    0   12    3      2.23      0.00
    1   12    3      5.10      0.00
    2   12    3     -3.22      0.00
    3   12    3     -1.07      0.00
    4   12    3     -2.30      0.00
    5   12    3     -7.48      0.00
    6   12    3     -3.16      0.00
    7   12    3     -1.82      0.00
    8   12    3      0.66      0.00
    9   12    3      3.88      0.00
   10   12    3      0.63      0.00
   11   12    3      2.28      0.00
   12   12    3     -0.32      0.00
   13   12    3      1.61      0.00
   14   12    3      0.66      0.00
   15   12    3     -0.64      0.00
  -17   13    3     -0.67      0.00
  -16   13    3     -1.04      0.00
  -15   13    3     -0.94      0.00
  -14   13    3      1.47      0.00
  -13   13    3     -2.13      0.00
  -12   13    3      0.13      0.00
  -11   13    3     -0.08      0.00
  -10   13    3      1.01      0.00
   -9   13    3      3.82      0.00
   -8   13    3     -0.71      0.00
   -7   13    3      0.18      0.00
   -6   13    3     -0.79      0.00
   -5   13    3     -2.84      0.00
   -4   13    3     -6.49      0.00
   -3   13    3     -6.93      0.00
   -2   13    3     -6.00      0.00
   -1   13    3      6.59      0.00
    0   13    3      8.50      0.00
    1   13    3     -1.57      0.00
    2   13    3      0.94      0.00
    3   13    3     -9.89      0.00
    4   13    3     -2.00      0.00
    5   13    3     -2.07      0.00
    6   13    3      1.55      0.00
    7   13    3     -0.77      0.00
    8   13    3      2.38      0.00
    9   13    3     -0.87      0.00
   10   13    3      1.04      0.00
   11   13    3      1.18      0.00
   12   13    3     -1.65      0.00
   13   13    3      0.22      0.00
   14   13    3      0.98      0.00
   15   13    3      0.54      0.00
  -16   14    3      0.56      0.00
  -15   14    3     -0.96      0.00
  -14   14    3     -0.81      0.00
  -13   14    3      0.32      0.00
  -12   14    3      0.88      0.00
  -11   14    3      1.49      0.00
  -10   14    3      2.10      0.00
   -9   14    3      5.18      0.00
   -8   14    3      1.21      0.00
   -7   14    3      5.56      0.00
   -6   14    3      3.30      0.00
   -5   14    3     -3.39      0.00
   -4   14    3     -9.02      0.00
   -3   14    3      2.56      0.00
   -2   14    3     -0.06      0.00
   -1   14    3      2.48      0.00
    0   14    3      3.83      0.00
    1   14    3      0.32      0.00
    2   14    3     -3.20      0.00
    3   14    3      3.58      0.00
    4   14    3     -6.41      0.00
    5   14    3      0.50      0.00
    6   14    3     -0.64      0.00
    7   14    3      3.62      0.00
    8   14    3      5.80      0.00
    9   14    3      0.09      0.00
   10   14    3      2.46      0.00
   11   14    3     -1.28      0.00
   12   14    3     -0.26      0.00
   13   14    3     -1.18      0.00
   14   14    3     -1.84      0.00
   15   14    3      0.68      0.00
  -16   15    3     -0.80      0.00
  -15   15    3     -0.27      0.00
  -14   15    3      0.10      0.00
  -13   15    3     -0.65      0.00
  -12   15    3      0.76      0.00
  -11   15    3      2.20      0.00
  -10   15    3      3.78      0.00
   -9   15    3      2.48      0.00
   -8   15    3      1.77      0.00
   -7   15    3     -0.61      0.00
   -6   15    3      1.84      0.00
   -5   15    3     -4.36      0.00
   -4   15    3     -1.26      0.00
   -3   15    3      1.82      0.00
   -2   15    3      1.27      0.00
   -1   15    3      8.99      0.00
    0   15    3     -3.33      0.00
    1   15    3      0.95      0.00
    2   15    3     -5.11      0.00
    3   15    3     -6.79      0.00
    4   15    3      0.28      0.00
    5   15    3      0.71      0.00
    6   15    3      0.23      0.00
    7   15    3      1.57      0.00
    8   15    3     -0.75      0.00
    9   15    3      2.24      0.00
   10   15    3     -0.29      0.00
   11   15    3      0.59      0.00
   12   15    3     -1.37      0.00
   13   15    3     -1.18      0.00
   14   15    3     -0.13      0.00
   15   15    3     -1.89      0.00
  -16   16    3     -0.90      0.00
  -15   16    3     -0.66      0.00
  -14   16    3     -0.59      0.00
  -13   16    3     -0.03      0.00
  -12   16    3      1.31      0.00
  -11   16    3      0.80      0.00
  -10   16    3      3.96      0.00
   -9   16    3      0.78      0.00
   -8   16    3      3.13      0.00
   -7   16    3      2.89      0.00
   -6   16    3     -2.55      0.00
   -5   16    3     -5.92      0.00
   -4   16    3     -2.95      0.00
   -3   16    3      4.45      0.00
   -2   16    3     -2.91      0.00
   -1   16    3     -2.73      0.00
    0   16    3     -3.05      0.00
    1   16    3     -0.43      0.00
    2   16    3     -2.06      0.00
    3   16    3      1.18      0.00
    4   16    3     -5.53      0.00
    5   16    3      1.45      0.00
    6   16    3      1.51      0.00
    7   16    3      2.27      0.00
    8   16    3      2.87      0.00
    9   16    3     -1.98      0.00
   10   16    3      2.25      0.00
   11   16    3     -2.34      0.00
   12   16    3     -1.40      0.00
   13   16    3     -0.75      0.00
   14   16    3     -0.63      0.00
  -16   17    3      0.09      0.00
  -15   17    3      0.71      0.00
  -14   17    3      0.35      0.00
  -13   17    3     -0.23      0.00
  -12   17    3      1.33      0.00
  -11   17    3      0.59      0.00
  -10   17    3      1.82      0.00
   -9   17    3      3.31      0.00
   -8   17    3     -0.09      0.00
   -7   17    3      3.15      0.00
   -6   17    3      2.15      0.00
   -5   17    3     -1.03      0.00
   -4   17    3      4.47      0.00
   -3   17    3     -3.33      0.00
   -2   17    3     -2.15      0.00
   -1   17    3     -1.52      0.00
    0   17    3     -0.84      0.00
    1   17    3     -2.42      0.00
    2   17    3     -1.17      0.00
    3   17    3     -3.53      0.00
    4   17    3      4.60      0.00
    5   17    3      1.65      0.00
    6   17    3      0.33      0.00
    7   17    3      2.04      0.00
    8   17    3     -0.79      0.00
    9   17    3      2.82      0.00
   10   17    3      1.14      0.00
   11   17    3      0.07      0.00
   12   17    3     -0.35      0.00
   13   17    3     -1.27      0.00
   14   17    3     -0.35      0.00
  -15   18    3     -0.78      0.00
  -14   18    3     -0.72      0.00
  -13   18    3      2.14      0.00
  -12   18    3     -0.65      0.00
  -11   18    3      1.38      0.00
  -10   18    3     -0.32      0.00
   -9   18    3      0.24      0.00
   -8   18    3      2.29      0.00
   -7   18    3     -0.44      0.00
   -6   18    3     -0.26      0.00
   -5   18    3     -0.94      0.00
   -4   18    3      2.86      0.00
   -3   18    3      0.00      0.00
   -2   18    3     -1.40      0.00
   -1   18    3     -1.96      0.00
    0   18    3      4.45      0.00
    1   18    3      1.72      0.00
    2   18    3      2.53      0.00
    3   18    3     -0.23      0.00
    4   18    3     -1.43      0.00
    5   18    3      1.96      0.00
    6   18    3     -0.93      0.00
    7   18    3     -0.18      0.00
    8   18    3     -0.85      0.00
    9   18    3     -0.99      0.00
   10   18    3     -0.35      0.00
   11   18    3     -0.61      0.00
   12   18    3      0.62      0.00
   13   18    3      0.80      0.00
   14   18    3      0.11      0.00
  -15   19    3     -1.54      0.00
  -14   19    3     -0.37      0.00
  -13   19    3     -0.94      0.00
  -12   19    3      1.41      0.00
  -11   19    3     -0.37      0.00
  -10   19    3      2.28      0.00
   -9   19    3     -0.57      0.00
   -8   19    3      0.69      0.00
   -7   19    3      1.20      0.00
   -6   19    3      3.31      0.00
   -5   19    3      1.37      0.00
   -4   19    3     -0.64      0.00
   -3   19    3     -3.52      0.00
   -2   19    3      1.30      0.00
   -1   19    3      3.74      0.00
    0   19    3      2.27      0.00
    1   19    3      3.57      0.00
    2   19    3     -2.14      0.00
    3   19    3      1.77      0.00
    4   19    3      4.58      0.00
    5   19    3     -0.58      0.00
    6   19    3     -0.50      0.00
    7   19    3     -0.85      0.00
    8   19    3     -0.77      0.00
    9   19    3      2.68      0.00
   10   19    3     -0.94      0.00
   11   19    3     -0.06      0.00
   12   19    3     -1.23      0.00
   13   19    3      1.16      0.00
   14   19    3     -0.67      0.00
  -15   20    3      0.11      0.00
  -14   20    3     -1.37      0.00
  -13   20    3      1.01      0.00
  -12   20    3     -1.25      0.00
  -11   20    3      0.37      0.00
  -10   20    3     -0.63      0.00
   -9   20    3      1.76      0.00
   -8   20    3     -1.05      0.00
   -7   20    3      1.57      0.00
   -6   20    3      0.44      0.00
   -5   20    3      1.48      0.00
   -4   20    3      4.14      0.00
   -3   20    3      0.59      0.00
   -2   20    3     -0.05      0.00
   -1   20    3      1.17      0.00
    0   20    3      2.41      0.00
    1   20    3     -2.69      0.00
    2   20    3      1.08      0.00
    3   20    3     -3.47      0.00
    4   20    3      0.52      0.00
    5   20    3     -3.03      0.00
    6   20    3     -0.80      0.00
    7   20    3     -0.93      0.00
    8   20    3      0.34      0.00
    9   20    3     -1.04      0.00
   10   20    3      0.60      0.00
   11   20    3      0.81      0.00
   12   20    3      0.17      0.00
   13   20    3     -0.73      0.00
   14   20    3      0.28      0.00
  -14   21    3      0.11      0.00
  -13   21    3     -1.13      0.00
  -12   21    3      0.48      0.00
  -11   21    3      0.85      0.00
  -10   21    3      0.43      0.00
   -9   21    3     -1.16      0.00
   -8   21    3     -0.44      0.00
   -7   21    3      0.82      0.00
   -6   21    3     -0.19      0.00
   -5   21    3     -1.64      0.00
   -4   21    3     -3.84      0.00
   -3   21    3      1.58      0.00
   -2   21    3      1.89      0.00
   -1   21    3     -0.49      0.00
    0   21    3      1.01      0.00
    1   21    3     -2.70      0.00
    2   21    3     -2.41      0.00
    3   21    3      3.37      0.00
    4   21    3      0.55      0.00
    5   21    3     -0.71      0.00
    6   21    3     -2.05      0.00
    7   21    3     -0.20      0.00
    8   21    3      0.86      0.00
    9   21    3      0.14      0.00
   10   21    3      0.08      0.00
   11   21    3     -1.67      0.00
   12   21    3     -0.42      0.00
   13   21    3      0.73      0.00
   14   21    3     -1.16      0.00
  -15   22    3      0.28      0.00
  -14   22    3     -1.22      0.00
  -13   22    3      0.34      0.00
  -12   22    3      0.73      0.00
  -11   22    3     -0.04      0.00
  -10   22    3      0.51      0.00
   -9   22    3      0.80      0.00
   -8   22    3     -0.47      0.00
   -7   22    3     -0.10      0.00
   -6   22    3     -0.49      0.00
   -5   22    3     -1.14      0.00
   -4   22    3      2.46      0.00
   -3   22    3     -1.88      0.00
   -2   22    3     -3.65      0.00
   -1   22    3      0.49      0.00
    0   22    3     -2.52      0.00
    1   22    3      1.35      0.00
    2   22    3      1.68      0.00
    3   22    3      1.65      0.00
    4   22    3      0.70      0.00
    5   22    3     -1.02      0.00
    6   22    3      0.15      0.00
    7   22    3      0.80      0.00
    8   22    3     -1.08      0.00
    9   22    3      1.58      0.00
   10   22    3     -0.52      0.00
   11   22    3      0.07      0.00
   12   22    3     -0.90      0.00
   13   22    3     -1.36      0.00
  -15   23    3     -0.70      0.00
  -14   23    3     -0.13      0.00
  -13   23    3      0.09      0.00
  -12   23    3      0.11      0.00
  -11   23    3     -0.05      0.00
  -10   23    3     -0.43      0.00
   -9   23    3     -2.63      0.00
   -8   23    3     -0.27      0.00
   -7   23    3     -0.41      0.00
   -6   23    3     -2.46      0.00
   -5   23    3     -2.60      0.00
   -4   23    3     -0.21      0.00
   -3   23    3      2.31      0.00
   -2   23    3      1.71      0.00
   -1   23    3      0.76      0.00
    0   23    3      0.57      0.00
    1   23    3     -0.67      0.00
    2   23    3      1.34      0.00
    3   23    3      2.59      0.00
    4   23    3     -1.14      0.00
    5   23    3     -3.46      0.00
    6   23    3     -0.96      0.00
    7   23    3     -2.82      0.00
    8   23    3      1.27      0.00
    9   23    3     -2.29      0.00
   10   23    3      0.93      0.00
   11   23    3     -1.60      0.00
   12   23    3      1.28      0.00
   13   23    3     -0.26      0.00
  -15   24    3     -0.48      0.00
  -14   24    3      0.06      0.00
  -13   24    3      0.12      0.00
  -12   24    3      0.82      0.00
  -11   24    3     -0.87      0.00
  -10   24    3      0.30      0.00
   -9   24    3     -0.16      0.00
   -8   24    3     -0.95      0.00
   -7   24    3     -1.38      0.00
   -6   24    3     -1.31      0.00
   -5   24    3     -0.45      0.00
   -4   24    3      0.29      0.00
   -3   24    3     -1.21      0.00
   -2   24    3     -1.29      0.00
   -1   24    3      3.09      0.00
    0   24    3      2.19      0.00
    1   24    3      3.65      0.00
    2   24    3      1.67      0.00
    3   24    3     -1.38      0.00
    4   24    3     -2.37      0.00
    5   24    3     -1.27      0.00
    6   24    3     -1.60      0.00
    7   24    3      1.66      0.00
    8   24    3     -1.35      0.00
    9   24    3      1.93      0.00
   10   24    3     -0.32      0.00
   11   24    3      0.44      0.00
   12   24    3      1.15      0.00
  -14   25    3     -0.84      0.00
  -13   25    3      0.25      0.00
  -12   25    3     -0.08      0.00
  -11   25    3      0.47      0.00
  -10   25    3     -0.70      0.00
   -9   25    3      0.89      0.00
   -8   25    3      0.37      0.00
   -7   25    3      1.70      0.00
   -6   25    3     -2.10      0.00
   -5   25    3      0.14      0.00
   -4   25    3      2.14      0.00
   -3   25    3      1.72      0.00
   -2   25    3      0.95      0.00
   -1   25    3      0.30      0.00
    0   25    3     -0.41      0.00
    1   25    3     -1.72      0.00
    2   25    3     -0.87      0.00
    3   25    3      0.39      0.00
    4   25    3     -3.06      0.00
    5   25    3     -1.55      0.00
    6   25    3      0.70      0.00
    7   25    3     -0.12      0.00
    8   25    3      1.39      0.00
    9   25    3      0.17      0.00
   10   25    3      0.17      0.00
   11   25    3      1.92      0.00
   12   25    3      0.40      0.00
  -14   26    3     -0.01      0.00
  -13   26    3     -0.19      0.00
  -12   26    3     -0.85      0.00
  -11   26    3      0.01      0.00
  -10   26    3      0.44      0.00
   -9   26    3     -0.32      0.00
   -8   26    3     -1.04      0.00
   -7   26    3      0.07      0.00
   -6   26    3      0.18      0.00
   -5   26    3     -1.24      0.00
   -4   26    3     -0.67      0.00
   -3   26    3     -1.95      0.00
   -2   26    3      0.60      0.00
   -1   26    3      2.72      0.00
    0   26    3      1.81      0.00
    1   26    3      0.08      0.00
    2   26    3     -1.57      0.00
    3   26    3     -2.71      0.00
    4   26    3     -1.67      0.00
    5   26    3      0.79      0.00
    6   26    3      0.96      0.00
    7   26    3      1.99      0.00
    8   26    3      0.09      0.00
    9   26    3      0.59      0.00
   10   26    3     -0.56      0.00
   11   26    3      0.62      0.00
  -14   27    3     -0.44      0.00
  -13   27    3      0.69      0.00
  -12   27    3      0.10      0.00
  -11   27    3     -0.73      0.00
  -10   27    3      1.03      0.00
   -9   27    3     -0.08      0.00
   -8   27    3      1.26      0.00
   -7   27    3     -0.53      0.00
   -6   27    3     -1.95      0.00
   -5   27    3     -0.60      0.00
   -4   27    3      0.51      0.00
   -3   27    3     -2.33      0.00
   -2   27    3     -0.78      0.00
   -1   27    3      1.57      0.00
    0   27    3     -1.89      0.00
    1   27    3      0.18      0.00
    2   27    3      1.55      0.00
    3   27    3      0.65      0.00
    4   27    3      0.19      0.00
    5   27    3     -0.77      0.00
    6   27    3      0.99      0.00
    7   27    3     -0.47      0.00
    8   27    3      0.37      0.00
    9   27    3     -0.01      0.00
   10   27    3     -0.28      0.00
   11   27    3      0.42      0.00
  -13   28    3     -0.89      0.00
  -12   28    3     -1.07      0.00
  -11   28    3     -0.32      0.00
  -10   28    3     -0.63      0.00
   -9   28    3     -0.31      0.00
   -8   28    3     -0.16      0.00
   -7   28    3      2.09      0.00
   -6   28    3     -2.15      0.00
   -5   28    3      0.32      0.00
   -4   28    3     -1.59      0.00
   -3   28    3      0.41      0.00
   -2   28    3      1.69      0.00
   -1   28    3      1.99      0.00
    0   28    3      0.97      0.00
    1   28    3     -1.85      0.00
    2   28    3     -0.49      0.00
    3   28    3     -1.20      0.00
    4   28    3     -0.96      0.00
    5   28    3      0.45      0.00
    6   28    3     -0.27      0.00
    7   28    3     -0.06      0.00
    8   28    3     -1.12      0.00
    9   28    3     -1.60      0.00
   10   28    3      0.31      0.00
  -12   29    3     -1.68      0.00
  -11   29    3      0.31      0.00
  -10   29    3     -0.75      0.00
   -9   29    3     -0.05      0.00
   -8   29    3      0.24      0.00
   -7   29    3      0.56      0.00
   -6   29    3     -0.97      0.00
   -5   29    3      0.04      0.00
   -4   29    3      1.78      0.00
   -3   29    3     -2.16      0.00
   -2   29    3      2.98      0.00
   -1   29    3     -1.20      0.00
    0   29    3     -0.99      0.00
    1   29    3      1.38      0.00
    2   29    3      1.18      0.00
    3   29    3      0.57      0.00
    4   29    3     -1.00      0.00
    5   29    3     -0.78      0.00
    6   29    3     -0.10      0.00
    7   29    3     -0.55      0.00
    8   29    3      1.22      0.00
    9   29    3      0.89      0.00
   10   29    3     -0.42      0.00
  -12   30    3      0.49      0.00
  -11   30    3     -0.48      0.00
  -10   30    3      0.63      0.00
   -9   30    3     -0.56      0.00
   -8   30    3      3.30      0.00
   -7   30    3     -1.18      0.00
   -6   30    3      1.50      0.00
   -5   30    3      1.18      0.00
   -4   30    3      0.53      0.00
   -3   30    3      0.18      0.00
   -2   30    3     -0.26      0.00
   -1   30    3      0.72      0.00
    0   30    3     -2.72      0.00
    1   30    3     -1.18      0.00
    2   30    3     -0.76      0.00
    3   30    3     -1.66      0.00
    4   30    3      0.85      0.00
    5   30    3      0.21      0.00
    6   30    3      0.97      0.00
    7   30    3      0.33      0.00
    8   30    3     -1.03      0.00
    9   30    3      0.19      0.00
  -11   31    3      0.02      0.00
  -10   31    3     -0.25      0.00
   -9   31    3     -0.41      0.00
   -8   31    3      0.09      0.00
   -7   31    3      0.51      0.00
   -6   31    3     -2.68      0.00
   -5   31    3      2.54      0.00
   -4   31    3     -0.36      0.00
   -3   31    3     -1.31      0.00
   -2   31    3      0.56      0.00
   -1   31    3     -2.84      0.00
    0   31    3      0.96      0.00
    1   31    3     -0.36      0.00
    2   31    3     -0.17      0.00
    3   31    3     -1.01      0.00
    4   31    3     -2.52      0.00
    5   31    3      0.58      0.00
    6   31    3      0.12      0.00
    7   31    3     -0.10      0.00
    8   31    3      0.83      0.00
    9   31    3     -0.61      0.00
  -11   32    3      0.48      0.00
  -10   32    3      0.33      0.00
   -9   32    3      0.90      0.00
   -8   32    3      0.31      0.00
   -7   32    3     -1.21      0.00
   -6   32    3      0.41      0.00
   -5   32    3     -1.11      0.00
   -4   32    3     -1.61      0.00
   -3   32    3     -0.85      0.00
   -2   32    3     -0.27      0.00
   -1   32    3     -0.09      0.00
    0   32    3     -1.85      0.00
    1   32    3     -0.58      0.00
    2   32    3     -1.12      0.00
    3   32    3     -0.84      0.00
    4   32    3      1.50      0.00
    5   32    3      0.45      0.00
    6   32    3      0.07      0.00
    7   32    3     -0.49      0.00
    8   32    3     -1.10      0.00
  -10   33    3      0.30      0.00
   -9   33    3     -0.11      0.00
   -8   33    3      1.12      0.00
   -7   33    3     -0.66      0.00
   -6   33    3      0.59      0.00
   -5   33    3      2.74      0.00
   -4   33    3     -1.25      0.00
   -3   33    3      0.19      0.00
   -2   33    3      1.44      0.00
   -1   33    3      0.06      0.00
    0   33    3     -0.61      0.00
    1   33    3      0.13      0.00
    2   33    3     -0.94      0.00
    3   33    3     -0.36      0.00
    4   33    3     -0.38      0.00
    5   33    3      0.65      0.00
    6   33    3     -0.01      0.00
    7   33    3     -0.14      0.00
    8   33    3     -0.19      0.00
  -10   34    3      0.46      0.00
   -9   34    3      0.44      0.00
   -8   34    3      0.18      0.00
   -7   34    3     -0.56      0.00
   -6   34    3     -0.21      0.00
   -5   34    3     -0.10      0.00
   -4   34    3      0.59      0.00
   -3   34    3      1.70      0.00
   -2   34    3      1.09      0.00
   -1   34    3      0.57      0.00
    0   34    3     -0.61      0.00
    1   34    3      0.96      0.00
    2   34    3      0.59      0.00
    3   34    3      0.99      0.00
    4   34    3      1.72      0.00
    5   34    3     -0.39      0.00
    6   34    3      0.33      0.00
    7   34    3     -0.19      0.00
   -9   35    3      0.28      0.00
   -7   35    3      0.60      0.00
   -6   35    3     -0.18      0.00
   -5   35    3      0.13      0.00
   -4   35    3     -2.61      0.00
   -3   35    3      1.94      0.00
   -2   35    3      0.75      0.00
   -1   35    3     -1.47      0.00
    0   35    3      0.77      0.00
    1   35    3      0.03      0.00
    2   35    3     -0.43      0.00
    3   35    3      1.37      0.00
    4   35    3     -1.94      0.00
    5   35    3      0.42      0.00
    7   35    3      1.03      0.00
   -5   36    3     -1.19      0.00
   -4   36    3     -0.25      0.00
   -3   36    3     -0.55      0.00
   -2   36    3      1.43      0.00
   -1   36    3      0.63      0.00
    0   36    3      0.50      0.00
    1   36    3      0.49      0.00
    2   36    3     -0.10      0.00
    3   36    3     -1.31      0.00
    4   36    3     -0.30      0.00
   -4   37    3     -0.55      0.00
   -3   37    3      1.47      0.00
   -2   37    3     -0.63      0.00
   -1   37    3      0.12      0.00
    0   37    3      1.97      0.00
    1   37    3     -0.26      0.00
    2   37    3      0.23      0.00
    3   37    3     -0.21      0.00
   -2   38    3      2.05      0.00
   -1   38    3      0.43      0.00
    0   38    3      0.41      0.00
    1   38    3     -1.04      0.00
    2   38    3      0.57      0.00
    0   39    3      1.45      0.00
    1   39    3      1.02      0.00
  -16    0    4     -2.25      0.00
  -14    0    4     -1.25      0.00
  -12    0    4     -1.08      0.00
  -10    0    4      2.45      0.00
   -8    0    4      2.84      0.00
   -6    0    4      4.47      0.00
   -4    0    4     26.52      0.00
   -2    0    4    -30.38      0.00
    0    0    4     -7.47      0.00
    2    0    4     -8.47      0.00
    4    0    4      1.20      0.00
    6    0    4      9.17      0.00
    8    0    4     -0.23      0.00
   10    0    4     -0.56      0.00
   12    0    4      1.37      0.00
  -18    1    4     -1.00      0.00
  -17    1    4     -0.97      0.00
  -16    1    4     -1.88      0.00
  -15    1    4     -0.57      0.00
  -14    1    4      1.09      0.00
  -13    1    4     -1.16      0.00
  -12    1    4      0.89      0.00
  -11    1    4      0.66      0.00
  -10    1    4     -2.46      0.00
   -9    1    4     -1.77      0.00
   -8    1    4     -5.20      0.00
   -7    1    4     -4.85      0.00
   -6    1    4      3.23      0.00
   -5    1    4      2.36      0.00
   -4    1    4     -4.55      0.00
   -3    1    4     12.71      0.00
   -2    1    4    -33.26      0.00
   -1    1    4    -32.10      0.00
    0    1    4     12.80      0.00
    1    1    4    -20.43      0.00
    2    1    4      9.43      0.00
    3    1    4     19.82      0.00
    4    1    4      1.04      0.00
    5    1    4      6.82      0.00
    6    1    4     -5.10      0.00
    7    1    4     -3.40      0.00
    8    1    4     -0.77      0.00
    9    1    4     -1.75      0.00
   10    1    4     -0.62      0.00
   11    1    4      0.14      0.00
   12    1    4     -0.92      0.00
   13    1    4      0.33      0.00
  -18    2    4      0.85      0.00
  -17    2    4     -1.19      0.00
  -16    2    4     -0.31      0.00
  -15    2    4      0.17      0.00
  -14    2    4     -2.27      0.00
  -13    2    4      1.96      0.00
  -12    2    4     -0.63      0.00
  -11    2    4      2.05      0.00
  -10    2    4      0.52      0.00
   -9    2    4     -1.18      0.00
   -8    2    4     -1.60      0.00
   -7    2    4      2.84      0.00
   -6    2    4     -6.64      0.00
   -5    2    4      7.23      0.00
   -4    2    4      1.13      0.00
   -3    2    4    -24.75      0.00
   -2    2    4     10.31      0.00
   -1    2    4    -17.20      0.00
    0    2    4     12.64      0.00
    1    2    4    -34.86      0.00
    2    2    4    -13.06      0.00
    3    2    4     -9.16      0.00
    4    2    4     -7.07      0.00
    5    2    4      8.24      0.00
    6    2    4      0.15      0.00
    7    2    4     -0.52      0.00
    8    2    4      0.06      0.00
    9    2    4     -2.22      0.00
   10    2    4      0.74      0.00
   11    2    4     -0.39      0.00
   12    2    4      2.06      0.00
   13    2    4      0.03      0.00
   14    2    4     -1.73      0.00
  -18    3    4     -1.44      0.00
  -17    3    4     -0.31      0.00
  -16    3    4      0.11      0.00
  -15    3    4      2.46      0.00
  -14    3    4     -1.29      0.00
  -13    3    4     -1.13      0.00
  -12    3    4     -0.94      0.00
  -11    3    4      1.34      0.00
  -10    3    4     -3.56      0.00
   -9    3    4     -3.49      0.00
   -8    3    4      2.50      0.00
   -7    3    4     -1.66      0.00
   -6    3    4     15.22      0.00
   -5    3    4    -15.93      0.00
   -4    3    4     22.77      0.00
   -3    3    4    -15.42      0.00
   -2    3    4    -13.38      0.00
   -1    3    4     41.18      0.00
    0    3    4    -24.97      0.00
    1    3    4     -7.63      0.00
    2    3    4      6.08      0.00
    3    3    4     -9.94      0.00
    4    3    4     -7.16      0.00
    5    3    4    -13.61      0.00
    6    3    4     -3.12      0.00
    7    3    4      2.37      0.00
    8    3    4      2.14      0.00
    9    3    4      2.18      0.00
   10    3    4      2.34      0.00
   11    3    4      1.03      0.00
   12    3    4      1.63      0.00
   13    3    4      1.74      0.00
   14    3    4     -0.24      0.00
  -19    4    4      0.82      0.00
  -18    4    4      0.53      0.00
  -17    4    4      0.03      0.00
  -16    4    4      2.24      0.00
  -15    4    4     -0.10      0.00
  -14    4    4      0.51      0.00
  -13    4    4      1.15      0.00
  -12    4    4      2.83      0.00
  -11    4    4      0.50      0.00
  -10    4    4     -0.25      0.00
   -9    4    4      0.28      0.00
   -8    4    4     -5.67      0.00
   -7    4    4      2.27      0.00
   -6    4    4    -16.62      0.00
   -5    4    4      8.97      0.00
   -4    4    4    -20.72      0.00
   -3    4    4     18.22      0.00
   -2    4    4    -10.36      0.00
   -1    4    4     -2.62      0.00
    0    4    4     15.38      0.00
    1    4    4    -31.73      0.00
    2    4    4      5.72      0.00
    3    4    4     -5.65      0.00
    4    4    4      0.58      0.00
    5    4    4      3.62      0.00
    6    4    4     -3.39      0.00
    7    4    4      0.07      0.00
    8    4    4     -2.25      0.00
    9    4    4      1.16      0.00
   10    4    4      1.10      0.00
   11    4    4      2.85      0.00
   12    4    4     -1.23      0.00
   13    4    4     -1.49      0.00
   14    4    4     -2.01      0.00
   15    4    4      0.21      0.00
  -18    5    4      1.38      0.00
  -17    5    4      1.13      0.00
  -16    5    4      4.43      0.00
  -15    5    4      0.44      0.00
  -14    5    4      0.52      0.00
  -13    5    4     -0.79      0.00
  -12    5    4      1.33      0.00
  -11    5    4      3.62      0.00
  -10    5    4     -0.88      0.00
   -9    5    4      5.27      0.00
   -8    5    4      0.64      0.00
   -7    5    4      2.51      0.00
   -6    5    4    -12.82      0.00
   -5    5    4     -0.45      0.00
   -4    5    4    -14.58      0.00
   -3    5    4     -1.68      0.00
   -2    5    4      7.36      0.00
   -1    5    4     30.32      0.00
    0    5    4    -20.73      0.00
    1    5    4     25.43      0.00
    2    5    4      6.34      0.00
    3    5    4    -16.15      0.00
    4    5    4     -2.62      0.00
    5    5    4     -6.96      0.00
    6    5    4      4.48      0.00
    7    5    4      4.47      0.00
    8    5    4      0.03      0.00
    9    5    4      3.76      0.00
   10    5    4      1.05      0.00
   11    5    4      0.42      0.00
   12    5    4      0.92      0.00
   13    5    4     -0.61      0.00
   14    5    4     -2.37      0.00
   15    5    4      0.06      0.00
  -18    6    4     -1.57      0.00
  -17    6    4     -0.03      0.00
  -16    6    4      0.37      0.00
  -15    6    4      0.61      0.00
  -14    6    4      0.98      0.00
  -13    6    4      0.85      0.00
  -12    6    4      1.79      0.00
  -11    6    4     -1.38      0.00
  -10    6    4      3.17      0.00
   -9    6    4     -1.18      0.00
   -8    6    4      0.95      0.00
   -7    6    4     -5.88      0.00
   -6    6    4     -4.50      0.00
   -5    6    4    -15.96      0.00
   -4    6    4     25.19      0.00
   -3    6    4    -38.82      0.00
   -2    6    4     30.13      0.00
   -1    6    4      6.91      0.00
    0    6    4     21.55      0.00
    1    6    4      6.66      0.00
    2    6    4      1.97      0.00
    3    6    4      9.90      0.00
    4    6    4     -7.40      0.00
    5    6    4     -1.70      0.00
    6    6    4     -3.59      0.00
    7    6    4     -5.60      0.00
    8    6    4      1.99      0.00
    9    6    4     -1.50      0.00
   10    6    4      3.95      0.00
   11    6    4     -0.50      0.00
   12    6    4     -1.41      0.00
   13    6    4     -0.30      0.00
   14    6    4      1.66      0.00
   15    6    4      0.35      0.00
  -18    7    4     -0.52      0.00
  -17    7    4     -0.42      0.00
  -16    7    4      0.02      0.00
  -15    7    4     -1.34      0.00
  -14    7    4     -1.10      0.00
  -13    7    4     -0.19      0.00
  -12    7    4      2.19      0.00
  -11    7    4      1.94      0.00
  -10    7    4      2.42      0.00
   -9    7    4      4.03      0.00
   -8    7    4      2.26      0.00
   -7    7    4     -6.16      0.00
   -6    7    4     -6.05      0.00
   -5    7    4     -2.19      0.00
   -4    7    4    -30.50      0.00
   -3    7    4     35.30      0.00
   -2    7    4    -32.25      0.00
   -1    7    4     42.72      0.00
    0    7    4    -19.07      0.00
    1    7    4     18.61      0.00
    2    7    4     -9.02      0.00
    3    7    4    -14.90      0.00
    4    7    4     -0.45      0.00
    5    7    4     -6.17      0.00
    6    7    4     -0.71      0.00
    7    7    4      1.03      0.00
    8    7    4     -3.60      0.00
    9    7    4      2.22      0.00
   10    7    4     -2.73      0.00
   11    7    4     -1.81      0.00
   12    7    4      1.01      0.00
   13    7    4      0.00      0.00
   14    7    4     -1.51      0.00
   15    7    4      0.19      0.00
   16    7    4      0.33      0.00
  -18    8    4     -0.17      0.00
  -17    8    4      0.05      0.00
  -16    8    4     -0.15      0.00
  -15    8    4      0.82      0.00
  -14    8    4      0.50      0.00
  -13    8    4     -1.22      0.00
  -12    8    4      0.00      0.00
  -11    8    4     -1.88      0.00
  -10    8    4      3.85      0.00
   -9    8    4      0.06      0.00
   -8    8    4      4.16      0.00
   -7    8    4      4.03      0.00
   -6    8    4    -11.13      0.00
   -5    8    4     12.45      0.00
   -4    8    4     -4.85      0.00
   -3    8    4    -30.53      0.00
   -2    8    4     40.93      0.00
   -1    8    4    -22.20      0.00
    0    8    4      7.58      0.00
    1    8    4     -4.30      0.00
    2    8    4     -1.74      0.00
    3    8    4      0.38      0.00
    4    8    4    -10.77      0.00
    5    8    4     -3.02      0.00
    6    8    4     -1.53      0.00
    7    8    4     -1.94      0.00
    8    8    4      1.52      0.00
    9    8    4      1.89      0.00
   10    8    4      1.22      0.00
   11    8    4     -0.30      0.00
   12    8    4      0.63      0.00
   13    8    4      0.90      0.00
   14    8    4      1.81      0.00
   15    8    4     -0.51      0.00
   16    8    4      0.45      0.00
  -18    9    4     -0.90      0.00
  -17    9    4      0.67      0.00
  -16    9    4      0.48      0.00
  -15    9    4     -1.05      0.00
  -14    9    4     -1.79      0.00
  -13    9    4      2.12      0.00
  -12    9    4     -0.43      0.00
  -11    9    4      1.50      0.00
  -10    9    4      0.64      0.00
   -9    9    4      1.04      0.00
   -8    9    4      0.99      0.00
   -7    9    4     -5.15      0.00
   -6    9    4      5.65      0.00
   -5    9    4    -17.97      0.00
   -4    9    4     11.96      0.00
   -3    9    4     -5.29      0.00
   -2    9    4      2.20      0.00
   -1    9    4      0.23      0.00
    0    9    4    -12.43      0.00
    1    9    4      0.40      0.00
    2    9    4     -7.03      0.00
    3    9    4      3.82      0.00
    4    9    4     -0.40      0.00
    5    9    4      3.10      0.00
    6    9    4      1.89      0.00
    7    9    4     -0.33      0.00
    8    9    4     -1.14      0.00
    9    9    4     -2.38      0.00
   10    9    4     -1.13      0.00
   11    9    4     -1.59      0.00
   12    9    4      1.83      0.00
   13    9    4     -1.53      0.00
   14    9    4     -0.72      0.00
   15    9    4      0.49      0.00
  -17   10    4      1.10      0.00
  -16   10    4     -0.61      0.00
  -15   10    4      0.67      0.00
  -14   10    4     -0.54      0.00
  -13   10    4     -0.90      0.00
  -12   10    4      0.41      0.00
  -11   10    4      1.71      0.00
  -10   10    4      3.01      0.00
   -9   10    4      1.91      0.00
   -8   10    4      6.01      0.00
   -7   10    4     -5.86      0.00
   -6   10    4      1.80      0.00
   -5   10    4      6.80      0.00
   -4   10    4    -12.01      0.00
   -3   10    4      9.77      0.00
   -2   10    4      2.75      0.00
   -1   10    4    -12.26      0.00
    0   10    4      0.89      0.00
    1   10    4      1.18      0.00
    2   10    4      5.81      0.00
    3   10    4     -1.31      0.00
    4   10    4      4.45      0.00
    5   10    4      6.31      0.00
    6   10    4      3.24      0.00
    7   10    4      0.67      0.00
    8   10    4      0.34      0.00
    9   10    4      1.01      0.00
   10   10    4     -2.61      0.00
   11   10    4     -0.38      0.00
   12   10    4     -1.04      0.00
   13   10    4     -1.12      0.00
   14   10    4     -1.11      0.00
   15   10    4     -0.15      0.00
   16   10    4     -1.14      0.00
  -17   11    4      0.88      0.00
  -16   11    4      0.19      0.00
  -15   11    4     -1.59      0.00
  -14   11    4      0.02      0.00
  -13   11    4      1.66      0.00
  -12   11    4     -1.20      0.00
  -11   11    4      2.41      0.00
  -10   11    4     -2.31      0.00
   -9   11    4     -1.12      0.00
   -8   11    4      0.34      0.00
   -7   11    4     -1.48      0.00
   -6   11    4     -2.10      0.00
   -5   11    4      6.95      0.00
   -4   11    4      7.84      0.00
   -3   11    4      3.72      0.00
   -2   11    4      7.58      0.00
   -1   11    4    -13.80      0.00
    0   11    4     -0.14      0.00
    1   11    4     -2.19      0.00
    2   11    4      4.78      0.00
    3   11    4      6.13      0.00
    4   11    4      5.53      0.00
    5   11    4      3.19      0.00
    6   11    4      0.67      0.00
    7   11    4     -1.98      0.00
    8   11    4     -2.86      0.00
    9   11    4     -0.45      0.00
   10   11    4     -1.55      0.00
   11   11    4      0.17      0.00
   12   11    4      0.91      0.00
   13   11    4     -0.52      0.00
   14   11    4      0.99      0.00
   15   11    4      0.19      0.00
  -17   12    4     -0.39      0.00
  -16   12    4      0.03      0.00
  -15   12    4      1.29      0.00
  -14   12    4     -0.44      0.00
  -13   12    4     -1.38      0.00
  -12   12    4      0.50      0.00
  -11   12    4     -1.90      0.00
  -10   12    4     -1.73      0.00
   -9   12    4      0.48      0.00
   -8   12    4     -8.16      0.00
   -7   12    4     -2.17      0.00
   -6   12    4      0.12      0.00
   -5   12    4      2.36      0.00
   -4   12    4      2.64      0.00
   -3   12    4      1.06      0.00
   -2   12    4     -4.91      0.00
   -1   12    4     -1.20      0.00
    0   12    4      1.95      0.00
    1   12    4     -0.92      0.00
    2   12    4      0.00      0.00
    3   12    4      0.03      0.00
    4   12    4      5.64      0.00
    5   12    4      0.63      0.00
    6   12    4     -0.94      0.00
    7   12    4     -3.44      0.00
    8   12    4     -1.42      0.00
    9   12    4     -1.65      0.00
   10   12    4     -2.59      0.00
   11   12    4      0.84      0.00
   12   12    4     -1.10      0.00
   13   12    4      1.30      0.00
   14   12    4      1.95      0.00
   15   12    4     -0.41      0.00
  -17   13    4      0.44      0.00
  -16   13    4      1.07      0.00
  -15   13    4      0.41      0.00
  -14   13    4      2.51      0.00
  -13   13    4      0.12      0.00
  -12   13    4     -1.45      0.00
  -11   13    4     -1.26      0.00
  -10   13    4     -6.36      0.00
   -9   13    4     -0.69      0.00
   -8   13    4     -0.60      0.00
   -7   13    4     -5.01      0.00
   -6   13    4      6.54      0.00
   -5   13    4      4.97      0.00
   -4   13    4     -0.94      0.00
   -3   13    4      1.74      0.00
   -2   13    4     -3.36      0.00
   -1   13    4     -9.10      0.00
    0   13    4      1.63      0.00
    1   13    4     -2.27      0.00
    2   13    4      7.06      0.00
    3   13    4      3.87      0.00
    4   13    4      1.09      0.00
    5   13    4      0.30      0.00
    6   13    4     -1.31      0.00
    7   13    4     -1.74      0.00
    8   13    4      1.62      0.00
    9   13    4     -1.35      0.00
   10   13    4      0.01      0.00
   11   13    4      1.93      0.00
   12   13    4      1.20      0.00
   13   13    4      1.38      0.00
   14   13    4     -0.63      0.00
   15   13    4      2.20      0.00
  -17   14    4     -0.88      0.00
  -16   14    4      0.27      0.00
  -15   14    4      0.45      0.00
  -14   14    4     -0.93      0.00
  -13   14    4      0.31      0.00
  -12   14    4     -0.03      0.00
  -11   14    4     -2.48      0.00
  -10   14    4     -2.16      0.00
   -9   14    4     -4.32      0.00
   -8   14    4     -5.36      0.00
   -7   14    4      1.11      0.00
   -6   14    4      0.65      0.00
   -5   14    4      6.62      0.00
   -4   14    4     -5.04      0.00
   -3   14    4      4.16      0.00
   -2   14    4     -0.45      0.00
   -1   14    4      7.72      0.00
    0   14    4     -4.06      0.00
    1   14    4      1.97      0.00
    2   14    4     -4.62      0.00
    3   14    4      3.68      0.00
    4   14    4      1.59      0.00
    5   14    4     -0.57      0.00
    6   14    4     -2.69      0.00
    7   14    4     -2.03      0.00
    8   14    4     -1.82      0.00
    9   14    4     -1.23      0.00
   10   14    4     -0.75      0.00
   11   14    4     -0.32      0.00
   12   14    4      1.04      0.00
   13   14    4      1.82      0.00
   14   14    4      0.50      0.00
  -16   15    4     -0.61      0.00
  -15   15    4     -0.54      0.00
  -14   15    4      0.97      0.00
  -13   15    4     -1.36      0.00
  -12   15    4      0.60      0.00
  -11   15    4     -2.91      0.00
  -10   15    4     -1.32      0.00
   -9   15    4     -0.31      0.00
   -8   15    4     -3.63      0.00
   -7   15    4      0.35      0.00
   -6   15    4      1.67      0.00
   -5   15    4     -2.61      0.00
   -4   15    4      0.17      0.00
   -3   15    4      3.84      0.00
   -2   15    4     -0.57      0.00
   -1   15    4      1.67      0.00
    0   15    4      0.45      0.00
    1   15    4      3.66      0.00
    2   15    4      6.29      0.00
    3   15    4     -0.66      0.00
    4   15    4     -0.19      0.00
    5   15    4     -1.81      0.00
    6   15    4      0.45      0.00
    7   15    4      0.19      0.00
    8   15    4     -0.89      0.00
    9   15    4     -2.02      0.00
   10   15    4     -0.99      0.00
   11   15    4      1.14      0.00
   12   15    4     -0.56      0.00
   13   15    4     -0.77      0.00
   14   15    4      1.35      0.00
  -16   16    4      0.59      0.00
  -15   16    4      0.99      0.00
  -14   16    4     -0.08      0.00
  -13   16    4      0.77      0.00
  -12   16    4     -0.08      0.00
  -11   16    4     -0.89      0.00
  -10   16    4     -1.93      0.00
   -9   16    4     -1.97      0.00
   -8   16    4     -1.19      0.00
   -7   16    4     -0.02      0.00
   -6   16    4      1.84      0.00
   -5   16    4     -0.61      0.00
   -4   16    4     -1.44      0.00
   -3   16    4      6.41      0.00
   -2   16    4      2.22      0.00
   -1   16    4     -3.21      0.00
    0   16    4     -1.60      0.00
    1   16    4     -3.11      0.00
    2   16    4     -3.57      0.00
    3   16    4      4.29      0.00
    4   16    4     -3.27      0.00
    5   16    4      0.77      0.00
    6   16    4     -2.35      0.00
    7   16    4     -0.80      0.00
    8   16    4      1.54      0.00
    9   16    4     -2.87      0.00
   10   16    4      2.20      0.00
   11   16    4     -0.78      0.00
   12   16    4      1.60      0.00
   13   16    4      0.37      0.00
   14   16    4     -1.01      0.00
  -16   17    4      0.14      0.00
  -15   17    4      0.57      0.00
  -14   17    4     -0.01      0.00
  -13   17    4     -0.06      0.00
  -12   17    4     -0.23      0.00
  -11   17    4     -1.88      0.00
  -10   17    4      0.02      0.00
   -9   17    4     -1.68      0.00
   -8   17    4     -0.59      0.00
   -7   17    4     -2.84      0.00
   -6   17    4     -1.86      0.00
   -5   17    4     -4.10      0.00
   -4   17    4      4.60      0.00
   -3   17    4     -0.23      0.00
   -2   17    4     -3.41      0.00
   -1   17    4     -0.90      0.00
    0   17    4     -2.04      0.00
    1   17    4      2.46      0.00
    2   17    4      0.93      0.00
    3   17    4     -5.14      0.00
    4   17    4     -1.95      0.00
    5   17    4     -1.10      0.00
    6   17    4      0.38      0.00
    7   17    4      1.09      0.00
    8   17    4     -3.49      0.00
    9   17    4      0.90      0.00
   10   17    4     -1.26      0.00
   11   17    4      0.27      0.00
   12   17    4      0.66      0.00
   13   17    4     -0.14      0.00
   14   17    4      1.08      0.00
  -15   18    4      1.71      0.00
  -14   18    4     -0.04      0.00
  -13   18    4     -0.10      0.00
  -12   18    4     -0.97      0.00
  -11   18    4     -0.90      0.00
  -10   18    4      0.42      0.00
   -9   18    4     -1.43      0.00
   -8   18    4      1.13      0.00
   -7   18    4     -0.25      0.00
   -6   18    4     -0.48      0.00
   -5   18    4     -0.57      0.00
   -4   18    4     -2.29      0.00
   -3   18    4     -0.11      0.00
   -2   18    4     -2.96      0.00
   -1   18    4     -2.87      0.00
    0   18    4     -0.59      0.00
    1   18    4      0.04      0.00
    2   18    4      1.45      0.00
    3   18    4      2.92      0.00
    4   18    4      0.13      0.00
    5   18    4      1.98      0.00
    6   18    4      1.39      0.00
    7   18    4      0.23      0.00
    8   18    4      1.67      0.00
    9   18    4     -0.36      0.00
   10   18    4      1.23      0.00
   11   18    4      0.52      0.00
   12   18    4     -0.35      0.00
   13   18    4      0.29      0.00
   14   18    4     -0.09      0.00
  -15   19    4      1.47      0.00
  -14   19    4      1.16      0.00
  -13   19    4      0.24      0.00
  -12   19    4     -0.97      0.00
  -11   19    4     -1.05      0.00
  -10   19    4     -1.43      0.00
   -9   19    4      1.05      0.00
   -8   19    4     -2.34      0.00
   -7   19    4     -0.95      0.00
   -6   19    4      0.78      0.00
   -5   19    4     -0.23      0.00
   -4   19    4      3.26      0.00
   -3   19    4     -3.80      0.00
   -2   19    4      0.13      0.00
   -1   19    4      0.58      0.00
    0   19    4      3.17      0.00
    1   19    4      0.85      0.00
    2   19    4     -0.78      0.00
    3   19    4     -5.16      0.00
    4   19    4      0.31      0.00
    5   19    4      0.45      0.00
    6   19    4      1.19      0.00
    7   19    4      0.14      0.00
    8   19    4     -1.63      0.00
    9   19    4      0.52      0.00
   10   19    4     -0.60      0.00
   11   19    4      1.35      0.00
   12   19    4      0.81      0.00
   13   19    4      0.84      0.00
   14   19    4      0.32      0.00
  -15   20    4      0.33      0.00
  -14   20    4     -1.00      0.00
  -13   20    4      0.59      0.00
  -12   20    4     -1.04      0.00
  -11   20    4      1.02      0.00
  -10   20    4     -1.00      0.00
   -9   20    4     -0.46      0.00
   -8   20    4      0.41      0.00
   -7   20    4     -0.12      0.00
   -6   20    4      1.17      0.00
   -5   20    4     -2.23      0.00
   -4   20    4     -2.50      0.00
   -3   20    4      0.66      0.00
   -2   20    4      2.04      0.00
   -1   20    4      0.77      0.00
    0   20    4      3.51      0.00
    1   20    4     -0.88      0.00
    2   20    4      0.94      0.00
    3   20    4     -0.17      0.00
    4   20    4     -0.20      0.00
    5   20    4      1.36      0.00
    6   20    4     -1.04      0.00
    7   20    4      0.71      0.00
    8   20    4      1.41      0.00
    9   20    4     -0.44      0.00
   10   20    4     -0.01      0.00
   11   20    4      0.66      0.00
   12   20    4      0.31      0.00
   13   20    4      1.39      0.00
  -15   21    4      0.08      0.00
  -14   21    4      0.81      0.00
  -13   21    4     -1.95      0.00
  -12   21    4      0.14      0.00
  -11   21    4      0.04      0.00
  -10   21    4      1.67      0.00
   -9   21    4      0.23      0.00
   -8   21    4      0.64      0.00
   -7   21    4      1.93      0.00
   -6   21    4      2.36      0.00
   -5   21    4      2.01      0.00
   -4   21    4     -1.29      0.00
   -3   21    4     -0.16      0.00
   -2   21    4     -0.77      0.00
   -1   21    4      0.48      0.00
    0   21    4     -2.26      0.00
    1   21    4     -0.94      0.00
    2   21    4     -4.92      0.00
    3   21    4     -1.16      0.00
    4   21    4      1.81      0.00
    5   21    4      2.73      0.00
    6   21    4      1.97      0.00
    7   21    4      0.68      0.00
    8   21    4     -0.26      0.00
    9   21    4      0.60      0.00
   10   21    4      0.64      0.00
   11   21    4      0.34      0.00
   12   21    4     -0.40      0.00
   13   21    4      1.89      0.00
  -15   22    4     -0.02      0.00
  -14   22    4     -1.89      0.00
  -13   22    4      0.57      0.00
  -12   22    4      0.14      0.00
  -11   22    4      0.08      0.00
  -10   22    4     -1.08      0.00
   -9   22    4      1.46      0.00
   -8   22    4     -0.31      0.00
   -7   22    4      2.10      0.00
   -6   22    4      0.45      0.00
   -5   22    4     -2.69      0.00
   -4   22    4      2.20      0.00
   -3   22    4      0.97      0.00
   -2   22    4     -0.25      0.00
   -1   22    4     -0.50      0.00
    0   22    4     -2.08      0.00
    1   22    4     -3.92      0.00
    2   22    4      0.46      0.00
    3   22    4     -0.94      0.00
    4   22    4      3.02      0.00
    5   22    4     -0.88      0.00
    6   22    4      1.21      0.00
    7   22    4      0.75      0.00
    8   22    4      0.28      0.00
    9   22    4     -1.09      0.00
   10   22    4     -0.90      0.00
   11   22    4     -1.44      0.00
   12   22    4      0.09      0.00
  -15   23    4     -1.04      0.00
  -14   23    4      0.31      0.00
  -13   23    4     -0.67      0.00
  -12   23    4      0.69      0.00
  -11   23    4      0.63      0.00
  -10   23    4      0.20      0.00
   -9   23    4     -0.87      0.00
   -8   23    4      0.59      0.00
   -7   23    4      0.75      0.00
   -6   23    4      0.99      0.00
   -5   23    4      1.16      0.00
   -4   23    4     -2.00      0.00
   -3   23    4     -0.28      0.00
   -2   23    4     -1.66      0.00
   -1   23    4     -2.22      0.00
    0   23    4      0.44      0.00
    1   23    4      0.30      0.00
    2   23    4      0.71      0.00
    3   23    4      3.30      0.00
    4   23    4      2.56      0.00
    5   23    4      3.32      0.00
    6   23    4     -0.76      0.00
    7   23    4     -0.72      0.00
    8   23    4      0.33      0.00
    9   23    4     -1.11      0.00
   10   23    4      0.78      0.00
   11   23    4     -2.29      0.00
   12   23    4      0.21      0.00
  -15   24    4      0.02      0.00
  -14   24    4     -0.04      0.00
  -13   24    4      0.37      0.00
  -12   24    4      0.46      0.00
  -11   24    4     -1.30      0.00
  -10   24    4     -0.84      0.00
   -9   24    4      0.45      0.00
   -8   24    4     -0.25      0.00
   -7   24    4      0.73      0.00
   -6   24    4      0.08      0.00
   -5   24    4      0.41      0.00
   -4   24    4      3.42      0.00
   -3   24    4      1.97      0.00
   -2   24    4     -1.93      0.00
   -1   24    4     -0.27      0.00
    0   24    4     -3.64      0.00
    1   24    4      1.17      0.00
    2   24    4      0.10      0.00
    3   24    4      1.59      0.00
    4   24    4      0.88      0.00
    5   24    4     -0.83      0.00
    6   24    4     -1.25      0.00
    7   24    4      0.41      0.00
    8   24    4     -2.31      0.00
    9   24    4      0.79      0.00
   10   24    4     -1.74      0.00
   11   24    4     -0.12      0.00
   12   24    4      1.61      0.00
  -15   25    4      0.26      0.00
  -14   25    4      0.78      0.00
  -13   25    4      0.27      0.00
  -12   25    4      0.13      0.00
  -11   25    4     -0.89      0.00
  -10   25    4     -0.55      0.00
   -9   25    4     -0.87      0.00
   -8   25    4     -0.80      0.00
   -7   25    4      0.68      0.00
   -6   25    4      2.11      0.00
   -5   25    4      0.47      0.00
   -4   25    4      0.63      0.00
   -3   25    4     -0.20      0.00
   -2   25    4      0.25      0.00
   -1   25    4     -0.47      0.00
    0   25    4      1.60      0.00
    1   25    4      0.61      0.00
    2   25    4     -0.67      0.00
    3   25    4      0.49      0.00
    4   25    4      1.07      0.00
    5   25    4     -1.19      0.00
    6   25    4      0.25      0.00
    7   25    4     -1.98      0.00
    8   25    4      1.53      0.00
    9   25    4     -0.70      0.00
   10   25    4      0.91      0.00
   11   25    4     -0.18      0.00
  -14   26    4      0.80      0.00
  -13   26    4      1.06      0.00
  -12   26    4      1.18      0.00
  -11   26    4     -0.27      0.00
  -10   26    4      1.00      0.00
   -9   26    4      0.25      0.00
   -8   26    4      0.18      0.00
   -7   26    4      0.31      0.00
   -6   26    4      0.99      0.00
   -5   26    4      2.03      0.00
   -4   26    4      2.37      0.00
   -3   26    4      0.29      0.00
   -2   26    4     -3.28      0.00
   -1   26    4     -1.74      0.00
    0   26    4     -0.93      0.00
    1   26    4     -0.46      0.00
    2   26    4      1.32      0.00
    3   26    4      0.75      0.00
    4   26    4      1.10      0.00
    5   26    4      0.88      0.00
    6   26    4     -0.90      0.00
    7   26    4      2.19      0.00
    8   26    4     -1.55      0.00
    9   26    4      1.23      0.00
   10   26    4     -0.16      0.00
   11   26    4      0.91      0.00
  -13   27    4      0.85      0.00
  -12   27    4      0.38      0.00
  -11   27    4      0.14      0.00
  -10   27    4     -0.07      0.00
   -9   27    4     -0.17      0.00
   -8   27    4     -1.63      0.00
   -7   27    4      2.37      0.00
   -6   27    4     -0.32      0.00
   -5   27    4     -1.22      0.00
   -4   27    4     -0.05      0.00
   -3   27    4     -0.14      0.00
   -2   27    4     -0.27      0.00
   -1   27    4      0.83      0.00
    0   27    4      0.62      0.00
    1   27    4     -0.76      0.00
    2   27    4     -2.13      0.00
    3   27    4      1.26      0.00
    4   27    4      0.98      0.00
    5   27    4     -0.32      0.00
    6   27    4      1.27      0.00
    7   27    4     -0.40      0.00
    8   27    4      0.45      0.00
    9   27    4     -0.29      0.00
   10   27    4     -0.96      0.00
  -13   28    4      1.10      0.00
  -12   28    4     -0.52      0.00
  -11   28    4      0.69      0.00
  -10   28    4      0.09      0.00
   -9   28    4     -0.62      0.00
   -8   28    4     -1.57      0.00
   -7   28    4     -0.51      0.00
   -6   28    4     -0.24      0.00
   -5   28    4     -0.97      0.00
   -4   28    4     -0.68      0.00
   -3   28    4     -2.05      0.00
   -2   28    4     -0.43      0.00
   -1   28    4      0.30      0.00
    0   28    4      0.74      0.00
    1   28    4      1.59      0.00
    2   28    4      1.60      0.00
    3   28    4      1.40      0.00
    4   28    4     -0.30      0.00
    5   28    4     -0.60      0.00
    6   28    4     -0.14      0.00
    7   28    4      0.69      0.00
    8   28    4     -0.36      0.00
    9   28    4      0.25      0.00
   10   28    4     -0.09      0.00
  -13   29    4     -0.23      0.00
  -12   29    4     -0.74      0.00
  -11   29    4     -0.75      0.00
  -10   29    4      1.14      0.00
   -9   29    4     -1.23      0.00
   -8   29    4      1.07      0.00
   -7   29    4      0.58      0.00
   -6   29    4     -1.31      0.00
   -5   29    4     -1.31      0.00
   -4   29    4      1.95      0.00
   -3   29    4     -0.43      0.00
   -2   29    4      0.85      0.00
   -1   29    4      1.47      0.00
    0   29    4     -0.27      0.00
    1   29    4     -0.81      0.00
    2   29    4      0.14      0.00
    3   29    4      1.42      0.00
    4   29    4      0.53      0.00
    5   29    4     -1.11      0.00
    6   29    4      0.61      0.00
    7   29    4     -0.86      0.00
    8   29    4     -0.06      0.00
    9   29    4     -0.22      0.00
  -12   30    4     -1.41      0.00
  -11   30    4     -0.54      0.00
  -10   30    4     -0.96      0.00
   -9   30    4     -0.58      0.00
   -8   30    4     -0.25      0.00
   -7   30    4      0.87      0.00
   -6   30    4     -0.83      0.00
   -5   30    4      0.73      0.00
   -4   30    4     -0.08      0.00
   -3   30    4      1.62      0.00
   -2   30    4      0.04      0.00
   -1   30    4      0.16      0.00
    0   30    4      2.59      0.00
    1   30    4      0.64      0.00
    2   30    4      1.96      0.00
    3   30    4      0.50      0.00
    4   30    4     -1.26      0.00
    5   30    4     -0.43      0.00
    6   30    4      0.42      0.00
    7   30    4      1.10      0.00
    8   30    4      0.65      0.00
    9   30    4     -0.42      0.00
  -11   31    4      0.41      0.00
  -10   31    4     -0.28      0.00
   -9   31    4     -0.06      0.00
   -8   31    4     -0.10      0.00
   -7   31    4      1.05      0.00
   -6   31    4     -1.06      0.00
   -5   31    4     -0.18      0.00
   -4   31    4      1.41      0.00
   -3   31    4     -2.65      0.00
   -2   31    4      1.82      0.00
   -1   31    4     -0.62      0.00
    0   31    4      0.57      0.00
    1   31    4      0.11      0.00
    2   31    4      0.54      0.00
    3   31    4      1.37      0.00
    4   31    4     -0.82      0.00
    5   31    4      0.14      0.00
    6   31    4      0.30      0.00
    7   31    4     -0.89      0.00
    8   31    4      1.28      0.00
  -11   32    4     -0.96      0.00
  -10   32    4     -0.19      0.00
   -9   32    4     -1.23      0.00
   -8   32    4      0.89      0.00
   -7   32    4     -1.39      0.00
   -6   32    4      0.43      0.00
   -5   32    4      0.41      0.00
   -4   32    4     -0.43      0.00
   -3   32    4     -0.57      0.00
   -2   32    4     -2.71      0.00
   -1   32    4      2.93      0.00
    0   32    4     -0.17      0.00
    1   32    4     -0.33      0.00
    2   32    4      0.28      0.00
    3   32    4     -2.48      0.00
    4   32    4     -0.30      0.00
    5   32    4     -0.49      0.00
    6   32    4     -0.35      0.00
    7   32    4      0.49      0.00
    8   32    4     -0.38      0.00
  -10   33    4      0.29      0.00
   -9   33    4     -1.15      0.00
   -8   33    4      0.04      0.00
   -7   33    4      0.66      0.00
   -6   33    4     -2.71      0.00
   -5   33    4      1.08      0.00
   -4   33    4     -1.16      0.00
   -3   33    4     -0.97      0.00
   -2   33    4      0.74      0.00
   -1   33    4     -0.64      0.00
    0   33    4     -0.11      0.00
    1   33    4     -0.98      0.00
    2   33    4     -0.26      0.00
    3   33    4      0.78      0.00
    4   33    4     -0.46      0.00
    5   33    4      0.56      0.00
    6   33    4     -0.65      0.00
    7   33    4     -0.66      0.00
  -10   34    4     -0.43      0.00
   -9   34    4      0.79      0.00
   -8   34    4      0.72      0.00
   -7   34    4      0.85      0.00
   -6   34    4      1.97      0.00
   -5   34    4      0.35      0.00
   -4   34    4     -0.03      0.00
   -3   34    4     -0.60      0.00
   -2   34    4     -0.09      0.00
   -1   34    4      0.28      0.00
    0   34    4     -1.90      0.00
    1   34    4      0.34      0.00
    2   34    4     -0.25      0.00
    3   34    4      0.27      0.00
    4   34    4      1.43      0.00
    5   34    4      0.13      0.00
    6   34    4     -0.17      0.00
    7   34    4     -0.03      0.00
   -7   35    4     -0.34      0.00
   -6   35    4     -0.12      0.00
   -5   35    4      2.76      0.00
   -4   35    4      0.11      0.00
   -3   35    4      0.12      0.00
   -2   35    4      0.42      0.00
   -1   35    4     -0.12      0.00
    0   35    4     -0.97      0.00
    1   35    4      0.66      0.00
    2   35    4      0.92      0.00
    3   35    4      1.96      0.00
    4   35    4      0.40      0.00
    6   35    4     -0.29      0.00
   -5   36    4     -1.00      0.00
   -4   36    4      0.06      0.00
   -3   36    4     -0.96      0.00
   -2   36    4     -1.06      0.00
   -1   36    4     -1.32      0.00
    0   36    4     -0.39      0.00
    1   36    4      0.75      0.00
    2   36    4      0.33      0.00
    3   36    4     -0.32      0.00
   -3   37    4     -0.06      0.00
   -2   37    4      0.34      0.00
   -1   37    4     -2.38      0.00
    0   37    4     -0.55      0.00
    1   37    4     -1.35      0.00
    2   37    4     -0.17      0.00
   -1   38    4     -0.23      0.00
    0   38    4     -0.18      0.00
    1   38    4     -0.35      0.00
    0   39    4     -0.72      0.00
  -17    0    5      2.60      0.00
  -15    0    5      1.69      0.00
  -13    0    5     -0.97      0.00
  -11    0    5     -0.99      0.00
   -9    0    5      3.37      0.00
   -7    0    5     -4.23      0.00
   -5    0    5     -2.09      0.00
   -3    0    5     34.67      0.00
   -1    0    5     -9.31      0.00
    1    0    5     20.15      0.00
    3    0    5      7.70      0.00
    5    0    5      0.39      0.00
    7    0    5     -0.53      0.00
    9    0    5     -0.17      0.00
   11    0    5     -0.37      0.00
  -18    1    5      1.14      0.00
  -17    1    5      0.35      0.00
  -16    1    5      0.23      0.00
  -15    1    5      0.94      0.00
  -14    1    5      1.32      0.00
  -13    1    5      0.82      0.00
  -12    1    5     -0.12      0.00
  -11    1    5      0.29      0.00
  -10    1    5      0.77      0.00
   -9    1    5      1.10      0.00
   -8    1    5      2.68      0.00
   -7    1    5      1.06      0.00
   -6    1    5      5.09      0.00
   -5    1    5      0.43      0.00
   -4    1    5     -1.59      0.00
   -3    1    5     -7.85      0.00
   -2    1    5     16.42      0.00
   -1    1    5     -6.30      0.00
    0    1    5     31.02      0.00
    1    1    5     -1.62      0.00
    2    1    5     -3.37      0.00
    3    1    5      7.75      0.00
    4    1    5     -5.92      0.00
    5    1    5      7.75      0.00
    6    1    5      2.42      0.00
    7    1    5     -1.69      0.00
    8    1    5      3.93      0.00
    9    1    5     -3.46      0.00
   10    1    5      0.29      0.00
   11    1    5     -1.23      0.00
   12    1    5     -1.37      0.00
   13    1    5      0.34      0.00
  -19    2    5     -0.14      0.00
  -18    2    5     -0.06      0.00
  -17    2    5     -0.82      0.00
  -16    2    5     -2.21      0.00
  -15    2    5      2.26      0.00
  -14    2    5     -1.70      0.00
  -13    2    5      0.24      0.00
  -12    2    5     -1.66      0.00
  -11    2    5     -0.72      0.00
  -10    2    5      1.19      0.00
   -9    2    5     -1.42      0.00
   -8    2    5     -2.02      0.00
   -7    2    5      1.16      0.00
   -6    2    5      9.40      0.00
   -5    2    5     -9.40      0.00
   -4    2    5     19.91      0.00
   -3    2    5     -1.09      0.00
   -2    2    5    -24.23      0.00
   -1    2    5      8.22      0.00
    0    2    5     14.13      0.00
    1    2    5      7.28      0.00
    2    2    5     15.73      0.00
    3    2    5      3.87      0.00
    4    2    5      5.69      0.00
    5    2    5     -3.42      0.00
    6    2    5     -2.88      0.00
    7    2    5      1.10      0.00
    8    2    5     -1.44      0.00
    9    2    5     -1.63      0.00
   10    2    5     -0.57      0.00
   11    2    5     -1.41      0.00
   12    2    5      0.84      0.00
   13    2    5      1.87      0.00
  -19    3    5      0.78      0.00
  -18    3    5     -0.15      0.00
  -17    3    5     -1.56      0.00
  -16    3    5     -2.68      0.00
  -15    3    5     -0.82      0.00
  -14    3    5      0.86      0.00
  -13    3    5     -1.19      0.00
  -12    3    5     -0.22      0.00
  -11    3    5     -0.37      0.00
  -10    3    5     -1.87      0.00
   -9    3    5      2.11      0.00
   -8    3    5      0.29      0.00
   -7    3    5      1.49      0.00
   -6    3    5      5.28      0.00
   -5    3    5     -2.59      0.00
   -4    3    5    -13.63      0.00
   -3    3    5     19.72      0.00
   -2    3    5    -13.05      0.00
   -1    3    5     -3.64      0.00
    0    3    5      0.42      0.00
    1    3    5    -19.52      0.00
    2    3    5      0.36      0.00
    3    3    5      1.90      0.00
    4    3    5      6.17      0.00
    5    3    5      5.02      0.00
    6    3    5     -3.05      0.00
    7    3    5      0.49      0.00
    8    3    5     -3.23      0.00
    9    3    5     -3.17      0.00
   10    3    5     -2.57      0.00
   11    3    5     -0.44      0.00
   12    3    5     -0.77      0.00
   13    3    5      0.38      0.00
   14    3    5      1.64      0.00
  -19    4    5     -0.65      0.00
  -18    4    5      1.15      0.00
  -17    4    5     -2.28      0.00
  -16    4    5      1.27      0.00
  -15    4    5     -0.36      0.00
  -14    4    5     -3.02      0.00
  -13    4    5      0.19      0.00
  -12    4    5     -1.98      0.00
  -11    4    5     -0.34      0.00
  -10    4    5     -2.39      0.00
   -9    4    5     -0.60      0.00
   -8    4    5     -2.03      0.00
   -7    4    5     18.31      0.00
   -6    4    5     -4.67      0.00
   -5    4    5     13.90      0.00
   -4    4    5      5.64      0.00
   -3    4    5    -16.56      0.00
   -2    4    5      4.04      0.00
   -1    4    5    -20.27      0.00
    0    4    5      1.05      0.00
    1    4    5    -10.17      0.00
    2    4    5      5.47      0.00
    3    4    5     -0.24      0.00
    4    4    5     -3.19      0.00
    5    4    5      1.71      0.00
    6    4    5      2.33      0.00
    7    4    5      2.82      0.00
    8    4    5     -0.13      0.00
    9    4    5     -1.44      0.00
   10    4    5      0.34      0.00
   11    4    5      0.05      0.00
   12    4    5      1.05      0.00
   13    4    5      1.80      0.00
   14    4    5     -1.33      0.00
  -18    5    5     -0.47      0.00
  -17    5    5     -0.75      0.00
  -16    5    5     -0.65      0.00
  -15    5    5      0.65      0.00
  -14    5    5      1.07      0.00
  -13    5    5     -0.25      0.00
  -12    5    5     -1.39      0.00
  -11    5    5     -1.88      0.00
  -10    5    5     -2.15      0.00
   -9    5    5     -3.27      0.00
   -8    5    5      0.01      0.00
   -7    5    5     -2.20      0.00
   -6    5    5     15.02      0.00
   -5    5    5    -12.32      0.00
   -4    5    5     28.25      0.00
   -3    5    5      3.54      0.00
   -2    5    5    -31.73      0.00
   -1    5    5     15.51      0.00
    0    5    5    -32.34      0.00
    1    5    5      1.16      0.00
    2    5    5      3.95      0.00
    3    5    5      4.88      0.00
    4    5    5     15.70      0.00
    5    5    5     -1.33      0.00
    6    5    5      1.58      0.00
    7    5    5      0.01      0.00
    8    5    5     -2.71      0.00
    9    5    5     -1.01      0.00
   10    5    5      0.45      0.00
   11    5    5     -0.57      0.00
   12    5    5     -0.99      0.00
   13    5    5      0.15      0.00
   14    5    5      0.41      0.00
   15    5    5      1.00      0.00
  -18    6    5      0.91      0.00
  -17    6    5      0.37      0.00
  -16    6    5      1.45      0.00
  -15    6    5     -1.82      0.00
  -14    6    5     -0.14      0.00
  -13    6    5     -0.47      0.00
  -12    6    5      2.48      0.00
  -11    6    5     -1.09      0.00
  -10    6    5     -1.13      0.00
   -9    6    5     -2.00      0.00
   -8    6    5      1.05      0.00
   -7    6    5      6.50      0.00
   -6    6    5     -5.09      0.00
   -5    6    5     11.70      0.00
   -4    6    5     -6.89      0.00
   -3    6    5      8.41      0.00
   -2    6    5     -3.18      0.00
   -1    6    5    -11.53      0.00
    0    6    5     15.64      0.00
    1    6    5     -4.66      0.00
    2    6    5      2.00      0.00
    3    6    5      4.60      0.00
    4    6    5      2.59      0.00
    5    6    5      7.80      0.00
    6    6    5      2.58      0.00
    7    6    5      2.07      0.00
    8    6    5     -1.25      0.00
    9    6    5     -0.49      0.00
   10    6    5     -0.38      0.00
   11    6    5     -0.41      0.00
   12    6    5     -1.60      0.00
   13    6    5     -1.02      0.00
   14    6    5     -1.05      0.00
   15    6    5     -1.24      0.00
  -18    7    5      0.38      0.00
  -17    7    5     -0.82      0.00
  -16    7    5      1.45      0.00
  -15    7    5      0.85      0.00
  -14    7    5      0.77      0.00
  -13    7    5     -0.99      0.00
  -12    7    5     -1.99      0.00
  -11    7    5     -0.32      0.00
  -10    7    5     -1.99      0.00
   -9    7    5     -2.01      0.00
   -8    7    5     -5.24      0.00
   -7    7    5      9.65      0.00
   -6    7    5     -6.93      0.00
   -5    7    5     16.95      0.00
   -4    7    5      2.15      0.00
   -3    7    5     -3.94      0.00
   -2    7    5     -8.94      0.00
   -1    7    5     23.26      0.00
    0    7    5    -16.79      0.00
    1    7    5     12.23      0.00
    2    7    5      3.22      0.00
    3    7    5      4.23      0.00
    4    7    5      5.58      0.00
    5    7    5     -5.69      0.00
    6    7    5      0.61      0.00
    7    7    5      1.34      0.00
    8    7    5     -2.12      0.00
    9    7    5      3.33      0.00
   10    7    5      0.81      0.00
   11    7    5     -0.64      0.00
   12    7    5      1.07      0.00
   13    7    5      1.78      0.00
   14    7    5     -0.04      0.00
   15    7    5     -0.05      0.00
  -18    8    5     -1.77      0.00
  -17    8    5      0.20      0.00
  -16    8    5     -0.38      0.00
  -15    8    5     -0.11      0.00
  -14    8    5      0.06      0.00
  -13    8    5      0.87      0.00
  -12    8    5      1.09      0.00
  -11    8    5     -4.37      0.00
  -10    8    5      0.02      0.00
   -9    8    5     -5.96      0.00
   -8    8    5      2.75      0.00
   -7    8    5     -4.87      0.00
   -6    8    5      3.07      0.00
   -5    8    5    -15.86      0.00
   -4    8    5     23.17      0.00
   -3    8    5    -22.98      0.00
   -2    8    5     21.95      0.00
   -1    8    5     -4.46      0.00
    0    8    5      8.07      0.00
    1    8    5     -6.06      0.00
    2    8    5     -9.43      0.00
    3    8    5      3.45      0.00
    4    8    5     -8.66      0.00
    5    8    5     -2.48      0.00
    6    8    5      0.30      0.00
    7    8    5     -2.85      0.00
    8    8    5      2.09      0.00
    9    8    5     -3.23      0.00
   10    8    5      1.70      0.00
   11    8    5      0.07      0.00
   12    8    5      0.58      0.00
   13    8    5     -0.24      0.00
   14    8    5      0.29      0.00
   15    8    5      0.14      0.00
  -18    9    5     -0.58      0.00
  -17    9    5      0.72      0.00
  -16    9    5      1.73      0.00
  -15    9    5      0.81      0.00
  -14    9    5      0.43      0.00
  -13    9    5     -0.80      0.00
  -12    9    5     -2.10      0.00
  -11    9    5      1.15      0.00
  -10    9    5     -1.80      0.00
   -9    9    5     -2.45      0.00
   -8    9    5      6.44      0.00
   -7    9    5     -2.19      0.00
   -6    9    5      1.20      0.00
   -5    9    5      5.08      0.00
   -4    9    5    -22.58      0.00
   -3    9    5     13.46      0.00
   -2    9    5    -13.02      0.00
   -1    9    5     16.64      0.00
    0    9    5    -10.05      0.00
    1    9    5      4.96      0.00
    2    9    5     -1.47      0.00
    3    9    5     -6.26      0.00
    4    9    5     -5.50      0.00
    5    9    5     -3.90      0.00
    6    9    5      0.59      0.00
    7    9    5      2.42      0.00
    8    9    5     -0.14      0.00
    9    9    5      5.03      0.00
   10    9    5      1.43      0.00
   11    9    5     -0.18      0.00
   12    9    5      1.89      0.00
   13    9    5     -0.03      0.00
   14    9    5     -2.33      0.00
   15    9    5     -0.28      0.00
  -17   10    5      0.71      0.00
  -16   10    5     -1.31      0.00
  -15   10    5      0.09      0.00
  -14   10    5      0.58      0.00
  -13   10    5      1.21      0.00
  -12   10    5     -0.38      0.00
  -11   10    5     -1.40      0.00
  -10   10    5      1.39      0.00
   -9   10    5     -0.39      0.00
   -8   10    5      2.82      0.00
   -7   10    5      5.01      0.00
   -6   10    5    -12.22      0.00
   -5   10    5      5.40      0.00
   -4   10    5      5.30      0.00
   -3   10    5    -13.93      0.00
   -2   10    5     21.60      0.00
   -1   10    5    -15.15      0.00
    0   10    5      5.61      0.00
    1   10    5     -7.23      0.00
    2   10    5     -0.99      0.00
    3   10    5     -4.55      0.00
    4   10    5     -6.41      0.00
    5   10    5      0.38      0.00
    6   10    5      1.77      0.00
    7   10    5      0.51      0.00
    8   10    5     -0.85      0.00
    9   10    5      1.28      0.00
   10   10    5      1.07      0.00
   11   10    5      1.18      0.00
   12   10    5     -0.20      0.00
   13   10    5     -2.35      0.00
   14   10    5      0.42      0.00
   15   10    5     -0.32      0.00
  -17   11    5      0.03      0.00
  -16   11    5     -0.85      0.00
  -15   11    5     -1.31      0.00
  -14   11    5     -1.23      0.00
  -13   11    5     -0.04      0.00
  -12   11    5      0.44      0.00
  -11   11    5      5.16      0.00
  -10   11    5      0.87      0.00
   -9   11    5      4.40      0.00
   -8   11    5      4.17      0.00
   -7   11    5     -5.07      0.00
   -6   11    5      5.07      0.00
   -5   11    5    -13.83      0.00
   -4   11    5      3.11      0.00
   -3   11    5     -0.60      0.00
   -2   11    5      1.47      0.00
   -1   11    5      6.47      0.00
    0   11    5      4.28      0.00
    1   11    5      3.07      0.00
    2   11    5     -4.33      0.00
    3   11    5     -2.57      0.00
    4   11    5     -2.18      0.00
    5   11    5      0.19      0.00
    6   11    5      1.01      0.00
    7   11    5     -0.72      0.00
    8   11    5      2.10      0.00
    9   11    5      0.85      0.00
   10   11    5     -0.41      0.00
   11   11    5     -1.90      0.00
   12   11    5     -1.28      0.00
   13   11    5     -2.31      0.00
   14   11    5     -0.73      0.00
   15   11    5      0.26      0.00
  -17   12    5      0.09      0.00
  -16   12    5     -1.81      0.00
  -15   12    5      0.39      0.00
  -14   12    5      0.69      0.00
  -13   12    5     -0.29      0.00
  -12   12    5      1.13      0.00
  -11   12    5      2.41      0.00
  -10   12    5      2.40      0.00
   -9   12    5      4.75      0.00
   -8   12    5      4.91      0.00
   -7   12    5     -2.99      0.00
   -6   12    5     -4.19      0.00
   -5   12    5      8.33      0.00
   -4   12    5     -5.86      0.00
   -3   12    5     -0.04      0.00
   -2   12    5     -3.24      0.00
   -1   12    5     -3.71      0.00
    0   12    5      3.61      0.00
    1   12    5     -0.83      0.00
    2   12    5      3.09      0.00
    3   12    5     -3.98      0.00
    4   12    5      0.20      0.00
    5   12    5      1.31      0.00
    6   12    5      2.13      0.00
    7   12    5     -0.48      0.00
    8   12    5      1.54      0.00
    9   12    5      3.15      0.00
   10   12    5      0.20      0.00
   11   12    5      1.47      0.00
   12   12    5     -1.52      0.00
   13   12    5      0.19      0.00
   14   12    5     -0.30      0.00
   15   12    5      1.25      0.00
  -17   13    5      0.18      0.00
  -16   13    5      0.45      0.00
  -15   13    5     -1.26      0.00
  -14   13    5     -1.09      0.00
  -13   13    5     -0.45      0.00
  -12   13    5      0.35      0.00
  -11   13    5      3.95      0.00
  -10   13    5      0.43      0.00
   -9   13    5      1.74      0.00
   -8   13    5      0.77      0.00
   -7   13    5     -0.25      0.00
   -6   13    5     -2.58      0.00
   -5   13    5      1.11      0.00
   -4   13    5     -2.97      0.00
   -3   13    5     -4.18      0.00
   -2   13    5      3.73      0.00
   -1   13    5      1.31      0.00
    0   13    5      1.13      0.00
    1   13    5     -5.75      0.00
    2   13    5     -2.32      0.00
    3   13    5     -1.89      0.00
    4   13    5     -1.18      0.00
    5   13    5     -0.78      0.00
    6   13    5     -1.90      0.00
    7   13    5      1.28      0.00
    8   13    5      1.60      0.00
    9   13    5      1.06      0.00
   10   13    5      0.01      0.00
   11   13    5     -0.70      0.00
   12   13    5     -0.33      0.00
   13   13    5      0.82      0.00
   14   13    5      0.81      0.00
  -17   14    5     -0.27      0.00
  -16   14    5      0.67      0.00
  -15   14    5      0.96      0.00
  -14   14    5     -0.50      0.00
  -13   14    5     -2.04      0.00
  -12   14    5      0.98      0.00
  -11   14    5     -0.19      0.00
  -10   14    5      2.11      0.00
   -9   14    5      6.05      0.00
   -8   14    5     -2.94      0.00
   -7   14    5      2.08      0.00
   -6   14    5      0.92      0.00
   -5   14    5      1.18      0.00
   -4   14    5     -6.22      0.00
   -3   14    5     -3.79      0.00
   -2   14    5     -4.45      0.00
   -1   14    5      5.33      0.00
    0   14    5     -0.52      0.00
    1   14    5      5.39      0.00
    2   14    5      0.15      0.00
    3   14    5      0.57      0.00
    4   14    5      2.04      0.00
    5   14    5      1.94      0.00
    6   14    5      2.46      0.00
    7   14    5      0.99      0.00
    8   14    5      1.97      0.00
    9   14    5      2.12      0.00
   10   14    5      0.33      0.00
   11   14    5     -0.24      0.00
   12   14    5     -1.53      0.00
   13   14    5     -0.84      0.00
   14   14    5      0.99      0.00
  -16   15    5     -0.87      0.00
  -15   15    5     -0.98      0.00
  -14   15    5      0.38      0.00
  -13   15    5     -0.03      0.00
  -12   15    5      1.74      0.00
  -11   15    5      1.34      0.00
  -10   15    5     -0.91      0.00
   -9   15    5      0.99      0.00
   -8   15    5      3.47      0.00
   -7   15    5     -0.92      0.00
   -6   15    5      4.08      0.00
   -5   15    5      0.15      0.00
   -4   15    5     -5.01      0.00
   -3   15    5      2.90      0.00
   -2   15    5      5.06      0.00
   -1   15    5     -2.03      0.00
    0   15    5     -1.80      0.00
    1   15    5     -4.33      0.00
    2   15    5      1.00      0.00
    3   15    5      1.46      0.00
    4   15    5      0.59      0.00
    5   15    5      0.55      0.00
    6   15    5     -0.22      0.00
    7   15    5      0.90      0.00
    8   15    5      2.69      0.00
    9   15    5     -0.74      0.00
   10   15    5     -0.49      0.00
   11   15    5     -0.18      0.00
   12   15    5     -0.75      0.00
   13   15    5     -0.01      0.00
   14   15    5     -1.19      0.00
  -16   16    5     -1.03      0.00
  -15   16    5     -0.91      0.00
  -14   16    5     -1.42      0.00
  -13   16    5      0.39      0.00
  -12   16    5      1.26      0.00
  -11   16    5      0.81      0.00
  -10   16    5      3.22      0.00
   -9   16    5     -0.96      0.00
   -8   16    5     -0.54      0.00
   -7   16    5      1.55      0.00
   -6   16    5     -1.47      0.00
   -5   16    5      1.00      0.00
   -4   16    5     -2.85      0.00
   -3   16    5      4.25      0.00
   -2   16    5      1.57      0.00
   -1   16    5      4.27      0.00
    0   16    5     -0.07      0.00
    1   16    5      3.57      0.00
    2   16    5     -3.25      0.00
    3   16    5      1.34      0.00
    4   16    5     -0.70      0.00
    5   16    5      0.60      0.00
    6   16    5     -1.34      0.00
    7   16    5     -1.05      0.00
    8   16    5     -0.61      0.00
    9   16    5     -0.69      0.00
   10   16    5      0.71      0.00
   11   16    5     -3.21      0.00
   12   16    5     -0.23      0.00
   13   16    5      0.48      0.00
   14   16    5     -0.02      0.00
  -16   17    5     -1.08      0.00
  -15   17    5      0.12      0.00
  -14   17    5      0.84      0.00
  -13   17    5     -0.08      0.00
  -12   17    5      2.32      0.00
  -11   17    5     -0.96      0.00
  -10   17    5      1.32      0.00
   -9   17    5      2.38      0.00
   -8   17    5      0.75      0.00
   -7   17    5      0.48      0.00
   -6   17    5      1.34      0.00
   -5   17    5     -2.76      0.00
   -4   17    5      3.16      0.00
   -3   17    5      2.12      0.00
   -2   17    5     -1.40      0.00
   -1   17    5     -2.80      0.00
    0   17    5     -4.47      0.00
    1   17    5     -1.13      0.00
    2   17    5      3.97      0.00
    3   17    5      0.69      0.00
    4   17    5      2.48      0.00
    5   17    5     -1.67      0.00
    6   17    5      0.22      0.00
    7   17    5      1.55      0.00
    8   17    5     -1.20      0.00
    9   17    5      1.49      0.00
   10   17    5     -1.13      0.00
   11   17    5      0.12      0.00
   12   17    5     -0.44      0.00
   13   17    5     -2.16      0.00
   14   17    5      1.54      0.00
  -16   18    5     -1.35      0.00
  -15   18    5      0.05      0.00
  -14   18    5     -0.30      0.00
  -13   18    5      1.60      0.00
  -12   18    5     -0.52      0.00
  -11   18    5      1.35      0.00
  -10   18    5      0.25      0.00
   -9   18    5     -0.71      0.00
   -8   18    5      0.87      0.00
   -7   18    5     -2.15      0.00
   -6   18    5      0.75      0.00
   -5   18    5      2.77      0.00
   -4   18    5      0.54      0.00
   -3   18    5      1.25      0.00
   -2   18    5     -0.65      0.00
   -1   18    5     -3.85      0.00
    0   18    5      0.74      0.00
    1   18    5     -1.70      0.00
    2   18    5     -2.82      0.00
    3   18    5      1.34      0.00
    4   18    5     -2.93      0.00
    5   18    5      0.19      0.00
    6   18    5     -1.42      0.00
    7   18    5     -3.00      0.00
    8   18    5      1.06      0.00
    9   18    5     -1.70      0.00
   10   18    5      0.03      0.00
   11   18    5     -1.56      0.00
   12   18    5     -0.81      0.00
   13   18    5     -1.08      0.00
  -16   19    5     -0.11      0.00
  -15   19    5     -0.02      0.00
  -14   19    5     -0.41      0.00
  -13   19    5      0.07      0.00
  -12   19    5     -0.06      0.00
  -11   19    5     -0.53      0.00
  -10   19    5      1.12      0.00
   -9   19    5     -0.06      0.00
   -8   19    5     -0.14      0.00
   -7   19    5     -2.44      0.00
   -6   19    5      0.86      0.00
   -5   19    5     -1.63      0.00
   -4   19    5      2.95      0.00
   -3   19    5     -2.01      0.00
   -2   19    5     -0.82      0.00
   -1   19    5     -0.40      0.00
    0   19    5      0.75      0.00
    1   19    5      4.33      0.00
    2   19    5      5.16      0.00
    3   19    5      0.58      0.00
    4   19    5      0.52      0.00
    5   19    5     -1.77      0.00
    6   19    5     -0.94      0.00
    7   19    5      0.05      0.00
    8   19    5     -1.36      0.00
    9   19    5      1.79      0.00
   10   19    5     -1.44      0.00
   11   19    5     -0.26      0.00
   12   19    5     -1.26      0.00
   13   19    5     -1.85      0.00
  -16   20    5      1.30      0.00
  -15   20    5      1.65      0.00
  -14   20    5      1.01      0.00
  -13   20    5     -0.14      0.00
  -12   20    5     -1.26      0.00
  -11   20    5      0.28      0.00
  -10   20    5      0.05      0.00
   -9   20    5     -0.83      0.00
   -8   20    5     -1.56      0.00
   -7   20    5     -0.71      0.00
   -6   20    5      0.94      0.00
   -5   20    5      2.08      0.00
   -4   20    5     -2.45      0.00
   -3   20    5      0.73      0.00
   -2   20    5      0.43      0.00
   -1   20    5      0.37      0.00
    0   20    5      2.36      0.00
    1   20    5      0.05      0.00
    2   20    5     -0.24      0.00
    3   20    5     -0.96      0.00
    4   20    5     -1.89      0.00
    5   20    5      0.09      0.00
    6   20    5     -1.18      0.00
    7   20    5     -1.82      0.00
    8   20    5      1.17      0.00
    9   20    5      0.11      0.00
   10   20    5      0.93      0.00
   11   20    5      1.73      0.00
   12   20    5     -1.19      0.00
   13   20    5     -0.43      0.00
  -16   21    5      0.37      0.00
  -15   21    5      0.49      0.00
  -14   21    5      0.48      0.00
  -13   21    5      0.39      0.00
  -12   21    5     -0.57      0.00
  -11   21    5      0.77      0.00
  -10   21    5     -1.02      0.00
   -9   21    5      0.91      0.00
   -8   21    5     -2.17      0.00
   -7   21    5     -1.19      0.00
   -6   21    5     -0.69      0.00
   -5   21    5     -2.46      0.00
   -4   21    5      1.11      0.00
   -3   21    5      0.24      0.00
   -2   21    5      2.20      0.00
   -1   21    5      2.00      0.00
    0   21    5      2.78      0.00
    1   21    5      1.15      0.00
    2   21    5     -0.18      0.00
    3   21    5     -3.42      0.00
    4   21    5     -2.96      0.00
    5   21    5     -3.33      0.00
    6   21    5     -0.80      0.00
    7   21    5      0.84      0.00
    8   21    5     -0.11      0.00
    9   21    5      0.66      0.00
   10   21    5      0.60      0.00
   11   21    5      1.26      0.00
   12   21    5     -0.97      0.00
  -16   22    5      1.28      0.00
  -15   22    5      0.72      0.00
  -14   22    5     -1.31      0.00
  -13   22    5     -0.37      0.00
  -12   22    5      0.72      0.00
  -11   22    5      1.86      0.00
  -10   22    5      0.61      0.00
   -9   22    5      0.17      0.00
   -8   22    5      0.20      0.00
   -7   22    5     -0.09      0.00
   -6   22    5      0.23      0.00
   -5   22    5     -2.97      0.00
   -4   22    5     -2.05      0.00
   -3   22    5      0.36      0.00
   -2   22    5      0.54      0.00
   -1   22    5      0.50      0.00
    0   22    5      1.36      0.00
    1   22    5     -1.58      0.00
    2   22    5     -0.02      0.00
    3   22    5     -0.85      0.00
    4   22    5      0.09      0.00
    5   22    5      1.70      0.00
    6   22    5     -0.78      0.00
    7   22    5      0.14      0.00
    8   22    5      1.51      0.00
    9   22    5      0.10      0.00
   10   22    5      1.03      0.00
   11   22    5     -0.23      0.00
   12   22    5     -0.16      0.00
  -15   23    5     -1.77      0.00
  -14   23    5      0.73      0.00
  -13   23    5     -0.90      0.00
  -12   23    5      0.26      0.00
  -11   23    5      0.52      0.00
  -10   23    5      1.03      0.00
   -9   23    5      0.13      0.00
   -8   23    5     -0.17      0.00
   -7   23    5     -0.75      0.00
   -6   23    5     -3.15      0.00
   -5   23    5      0.09      0.00
   -4   23    5     -2.02      0.00
   -3   23    5      1.51      0.00
   -2   23    5      0.14      0.00
   -1   23    5      1.52      0.00
    0   23    5     -2.12      0.00
    1   23    5      0.48      0.00
    2   23    5     -2.10      0.00
    3   23    5     -1.30      0.00
    4   23    5     -2.55      0.00
    5   23    5      0.70      0.00
    6   23    5      1.54      0.00
    7   23    5      0.78      0.00
    8   23    5      0.05      0.00
    9   23    5     -1.54      0.00
   10   23    5     -0.03      0.00
   11   23    5     -1.76      0.00
  -15   24    5     -0.54      0.00
  -14   24    5     -1.95      0.00
  -13   24    5      0.03      0.00
  -12   24    5      1.13      0.00
  -11   24    5      0.01      0.00
  -10   24    5     -1.14      0.00
   -9   24    5      1.02      0.00
   -8   24    5     -1.19      0.00
   -7   24    5     -1.04      0.00
   -6   24    5     -1.12      0.00
   -5   24    5     -3.89      0.00
   -4   24    5     -0.07      0.00
   -3   24    5     -0.71      0.00
   -2   24    5      0.93      0.00
   -1   24    5      2.38      0.00
    0   24    5      0.87      0.00
    1   24    5      0.93      0.00
    2   24    5      1.30      0.00
    3   24    5     -1.65      0.00
    4   24    5      1.66      0.00
    5   24    5     -1.85      0.00
    6   24    5     -0.58      0.00
    7   24    5      0.62      0.00
    8   24    5     -0.09      0.00
    9   24    5      0.60      0.00
   10   24    5     -1.00      0.00
   11   24    5     -0.74      0.00
  -15   25    5     -0.86      0.00
  -14   25    5      0.14      0.00
  -13   25    5     -1.61      0.00
  -12   25    5     -0.07      0.00
  -11   25    5      0.03      0.00
  -10   25    5      0.80      0.00
   -9   25    5      0.00      0.00
   -8   25    5      0.56      0.00
   -7   25    5     -1.88      0.00
   -6   25    5     -0.50      0.00
   -5   25    5      0.90      0.00
   -4   25    5     -0.30      0.00
   -3   25    5      1.03      0.00
   -2   25    5      0.61      0.00
   -1   25    5     -2.10      0.00
    0   25    5      0.89      0.00
    1   25    5     -0.19      0.00
    2   25    5     -0.12      0.00
    3   25    5     -1.25      0.00
    4   25    5     -1.37      0.00
    5   25    5      1.58      0.00
    6   25    5     -0.70      0.00
    7   25    5     -0.61      0.00
    8   25    5      0.50      0.00
    9   25    5     -1.84      0.00
   10   25    5      0.71      0.00
  -14   26    5     -1.15      0.00
  -13   26    5     -0.69      0.00
  -12   26    5     -0.21      0.00
  -11   26    5     -1.53      0.00
  -10   26    5     -0.33      0.00
   -9   26    5      0.86      0.00
   -8   26    5     -0.53      0.00
   -7   26    5      1.10      0.00
   -6   26    5      0.22      0.00
   -5   26    5     -0.29      0.00
   -4   26    5      0.21      0.00
   -3   26    5      1.84      0.00
   -2   26    5     -0.17      0.00
   -1   26    5      1.63      0.00
    0   26    5     -1.25      0.00
    1   26    5      0.68      0.00
    2   26    5     -2.32      0.00
    3   26    5     -1.39      0.00
    4   26    5      0.34      0.00
    5   26    5     -0.63      0.00
    6   26    5     -1.68      0.00
    7   26    5      1.56      0.00
    8   26    5     -1.08      0.00
    9   26    5      1.36      0.00
   10   26    5     -1.32      0.00
  -13   27    5      0.51      0.00
  -12   27    5      1.44      0.00
  -11   27    5      0.08      0.00
  -10   27    5      0.13      0.00
   -9   27    5      0.50      0.00
   -8   27    5     -0.80      0.00
   -7   27    5     -0.31      0.00
   -6   27    5      2.18      0.00
   -5   27    5      0.76      0.00
   -4   27    5      0.67      0.00
   -3   27    5     -1.28      0.00
   -2   27    5     -0.95      0.00
   -1   27    5     -0.63      0.00
    0   27    5     -0.25      0.00
    1   27    5      1.19      0.00
    2   27    5     -1.31      0.00
    3   27    5     -0.28      0.00
    4   27    5      1.94      0.00
    5   27    5     -0.80      0.00
    6   27    5      0.93      0.00
    7   27    5     -1.44      0.00
    8   27    5      0.36      0.00
    9   27    5     -0.26      0.00
  -13   28    5      1.93      0.00
  -12   28    5      0.70      0.00
  -11   28    5      0.26      0.00
  -10   28    5      1.03      0.00
   -9   28    5     -0.25      0.00
   -8   28    5      0.73      0.00
   -7   28    5      0.23      0.00
   -6   28    5     -0.22      0.00
   -5   28    5     -0.59      0.00
   -4   28    5      0.56      0.00
   -3   28    5      0.40      0.00
   -2   28    5     -0.32      0.00
   -1   28    5     -0.85      0.00
    0   28    5     -0.18      0.00
    1   28    5     -2.42      0.00
    2   28    5     -1.16      0.00
    3   28    5     -0.23      0.00
    4   28    5      0.79      0.00
    5   28    5      0.45      0.00
    6   28    5     -1.60      0.00
    7   28    5      1.41      0.00
    8   28    5     -1.42      0.00
    9   28    5      0.36      0.00
  -12   29    5      0.59      0.00
  -11   29    5     -0.25      0.00
  -10   29    5     -0.06      0.00
   -9   29    5      0.24      0.00
   -8   29    5     -1.67      0.00
   -7   29    5      1.01      0.00
   -6   29    5      0.54      0.00
   -5   29    5     -0.72      0.00
   -4   29    5     -0.51      0.00
   -3   29    5     -0.24      0.00
   -2   29    5      0.08      0.00
   -1   29    5     -1.32      0.00
    0   29    5      0.29      0.00
    1   29    5      0.46      0.00
    2   29    5     -2.16      0.00
    3   29    5      0.53      0.00
    4   29    5      0.56      0.00
    5   29    5     -1.21      0.00
    6   29    5      1.43      0.00
    7   29    5     -1.29      0.00
    8   29    5      0.20      0.00
    9   29    5      0.66      0.00
  -12   30    5     -0.30      0.00
  -11   30    5      1.74      0.00
  -10   30    5      0.21      0.00
   -9   30    5      1.28      0.00
   -8   30    5     -0.10      0.00
   -7   30    5     -0.23      0.00
   -6   30    5      0.32      0.00
   -5   30    5      0.32      0.00
   -4   30    5      0.87      0.00
   -3   30    5      0.14      0.00
   -2   30    5     -0.10      0.00
   -1   30    5     -1.19      0.00
    0   30    5     -1.13      0.00
    1   30    5     -0.51      0.00
    2   30    5      0.00      0.00
    3   30    5      1.24      0.00
    4   30    5      0.09      0.00
    5   30    5      0.20      0.00
    6   30    5      0.03      0.00
    7   30    5      0.10      0.00
    8   30    5     -0.75      0.00
  -11   31    5     -0.76      0.00
  -10   31    5      1.57      0.00
   -9   31    5     -0.39      0.00
   -8   31    5     -0.11      0.00
   -7   31    5      0.98      0.00
   -6   31    5      0.41      0.00
   -5   31    5     -0.35      0.00
   -4   31    5      2.04      0.00
   -3   31    5     -0.21      0.00
   -2   31    5     -0.58      0.00
   -1   31    5      0.08      0.00
    0   31    5      1.97      0.00
    1   31    5     -0.11      0.00
    2   31    5      0.00      0.00
    3   31    5      0.45      0.00
    4   31    5     -0.30      0.00
    5   31    5      0.59      0.00
    6   31    5      1.35      0.00
    7   31    5     -1.03      0.00
    8   31    5     -0.18      0.00
  -11   32    5      0.23      0.00
  -10   32    5      0.29      0.00
   -9   32    5     -0.17      0.00
   -8   32    5     -0.63      0.00
   -7   32    5      0.06      0.00
   -6   32    5     -0.74      0.00
   -5   32    5      0.23      0.00
   -4   32    5     -1.70      0.00
   -3   32    5      1.58      0.00
   -2   32    5     -0.88      0.00
   -1   32    5      0.25      0.00
    0   32    5      1.73      0.00
    1   32    5     -0.70      0.00
    2   32    5      0.59      0.00
    3   32    5     -1.08      0.00
    4   32    5     -0.45      0.00
    5   32    5     -0.05      0.00
    6   32    5      0.16      0.00
    7   32    5      0.63      0.00
  -10   33    5      0.34      0.00
   -9   33    5     -0.60      0.00
   -8   33    5     -0.55      0.00
   -7   33    5      1.15      0.00
   -6   33    5     -0.26      0.00
   -5   33    5     -0.92      0.00
   -4   33    5      0.13      0.00
   -3   33    5     -2.72      0.00
   -2   33    5      1.38      0.00
   -1   33    5      0.80      0.00
    0   33    5      0.00      0.00
    1   33    5     -0.72      0.00
    2   33    5     -2.06      0.00
    3   33    5     -0.77      0.00
    4   33    5     -1.31      0.00
    5   33    5      0.02      0.00
    6   33    5      0.14      0.00
    7   33    5     -1.22      0.00
  -10   34    5     -0.29      0.00
   -8   34    5      0.00      0.00
   -7   34    5     -0.76      0.00
   -6   34    5     -0.18      0.00
   -5   34    5     -0.62      0.00
   -4   34    5      0.04      0.00
   -3   34    5      1.66      0.00
   -2   34    5     -1.54      0.00
   -1   34    5      2.58      0.00
    0   34    5     -0.99      0.00
    1   34    5     -1.04      0.00
    2   34    5     -0.28      0.00
    3   34    5     -0.82      0.00
    4   34    5      0.67      0.00
    5   34    5      0.06      0.00
    6   34    5     -0.04      0.00
   -6   35    5     -1.76      0.00
   -5   35    5      0.31      0.00
   -4   35    5     -0.75      0.00
   -3   35    5      0.30      0.00
   -2   35    5      1.14      0.00
   -1   35    5      0.60      0.00
    0   35    5      0.61      0.00
    1   35    5      0.22      0.00
    2   35    5     -0.69      0.00
    3   35    5      0.55      0.00
    4   35    5     -0.59      0.00
    6   35    5     -0.25      0.00
   -5   36    5     -0.50      0.00
   -4   36    5      1.00      0.00
   -3   36    5     -0.43      0.00
   -2   36    5      0.93      0.00
   -1   36    5      1.15      0.00
    0   36    5      0.38      0.00
    1   36    5      0.89      0.00
    2   36    5      0.19      0.00
    3   36    5      0.03      0.00
   -3   37    5     -1.47      0.00
   -2   37    5      0.48      0.00
   -1   37    5      1.36      0.00
    0   37    5      1.46      0.00
    1   37    5     -0.11      0.00
    2   37    5     -0.92      0.00
    0   38    5     -0.06      0.00
    1   38    5      0.11      0.00
    2   38    5      0.12      0.00
  -18    0    6     -1.51      0.00
  -16    0    6     -0.62      0.00
  -14    0    6      0.12      0.00
  -12    0    6      1.25      0.00
  -10    0    6     -0.43      0.00
   -8    0    6     -1.65      0.00
   -6    0    6      1.02      0.00
   -4    0    6     -5.91      0.00
   -2    0    6      2.90      0.00
    0    0    6    -11.80      0.00
    2    0    6    -12.06      0.00
    4    0    6     -5.04      0.00
    6    0    6      2.00      0.00
    8    0    6      5.41      0.00
   10    0    6      0.65      0.00
   12    0    6     -0.50      0.00
  -19    1    6     -0.92      0.00
  -18    1    6      1.10      0.00
  -17    1    6      1.02      0.00
  -16    1    6      0.19      0.00
  -15    1    6     -0.75      0.00
  -14    1    6     -0.01      0.00
  -13    1    6     -0.59      0.00
  -12    1    6      0.50      0.00
  -11    1    6      1.40      0.00
  -10    1    6      0.79      0.00
   -9    1    6     -0.75      0.00
   -8    1    6     -2.04      0.00
   -7    1    6    -10.67      0.00
   -6    1    6      7.38      0.00
   -5    1    6      0.27      0.00
   -4    1    6     10.12      0.00
   -3    1    6      2.66      0.00
   -2    1    6     -2.20      0.00
   -1    1    6    -17.23      0.00
    0    1    6     13.82      0.00
    1    1    6     -8.10      0.00
    2    1    6      3.21      0.00
    3    1    6     -0.13      0.00
    4    1    6     -0.30      0.00
    5    1    6      2.06      0.00
    6    1    6     -1.33      0.00
    7    1    6     -2.51      0.00
    8    1    6      2.96      0.00
    9    1    6      0.60      0.00
   10    1    6      1.91      0.00
   11    1    6      1.17      0.00
   12    1    6     -1.09      0.00
  -19    2    6      0.16      0.00
  -18    2    6      0.36      0.00
  -17    2    6      2.55      0.00
  -16    2    6     -1.00      0.00
  -15    2    6      2.30      0.00
  -14    2    6      0.45      0.00
  -13    2    6      0.64      0.00
  -12    2    6      1.05      0.00
  -11    2    6      0.69      0.00
  -10    2    6      1.06      0.00
   -9    2    6      2.53      0.00
   -8    2    6     -2.46      0.00
   -7    2    6     -2.16      0.00
   -6    2    6     -1.19      0.00
   -5    2    6     -3.49      0.00
   -4    2    6    -13.80      0.00
   -3    2    6     15.26      0.00
   -2    2    6      4.59      0.00
   -1    2    6     12.06      0.00
    0    2    6      2.01      0.00
    1    2    6      0.10      0.00
    2    2    6     -1.47      0.00
    3    2    6     -6.99      0.00
    4    2    6      0.52      0.00
    5    2    6      1.67      0.00
    6    2    6     -3.10      0.00
    7    2    6      3.04      0.00
    8    2    6      0.95      0.00
    9    2    6     -0.16      0.00
   10    2    6     -0.29      0.00
   11    2    6     -0.50      0.00
   12    2    6      0.77      0.00
   13    2    6     -2.31      0.00
  -19    3    6     -0.74      0.00
  -18    3    6      0.92      0.00
  -17    3    6      0.00      0.00
  -16    3    6      0.70      0.00
  -15    3    6      0.02      0.00
  -14    3    6     -0.27      0.00
  -13    3    6      0.56      0.00
  -12    3    6      0.80      0.00
  -11    3    6      2.15      0.00
  -10    3    6      0.36      0.00
   -9    3    6      0.53      0.00
   -8    3    6     -4.34      0.00
   -7    3    6     -1.00      0.00
   -6    3    6     -1.28      0.00
   -5    3    6      0.23      0.00
   -4    3    6     -4.72      0.00
   -3    3    6     -9.21      0.00
   -2    3    6     12.95      0.00
   -1    3    6      3.50      0.00
    0    3    6     16.56      0.00
    1    3    6      1.81      0.00
    2    3    6      1.65      0.00
    3    3    6     -1.38      0.00
    4    3    6     -8.13      0.00
    5    3    6     -2.48      0.00
    6    3    6     -1.62      0.00
    7    3    6     -0.03      0.00
    8    3    6      4.31      0.00
    9    3    6     -0.18      0.00
   10    3    6      1.93      0.00
   11    3    6      2.09      0.00
   12    3    6     -0.38      0.00
   13    3    6      1.55      0.00
  -19    4    6     -0.36      0.00
  -18    4    6      0.24      0.00
  -17    4    6     -1.55      0.00
  -16    4    6     -0.95      0.00
  -15    4    6      2.02      0.00
  -14    4    6     -1.04      0.00
  -13    4    6      0.93      0.00
  -12    4    6     -0.66      0.00
  -11    4    6      0.50      0.00
  -10    4    6      3.22      0.00
   -9    4    6      1.89      0.00
   -8    4    6     -3.57      0.00
   -7    4    6     -4.80      0.00
   -6    4    6     -0.39      0.00
   -5    4    6    -20.07      0.00
   -4    4    6      7.76      0.00
   -3    4    6      8.61      0.00
   -2    4    6     -1.48      0.00
   -1    4    6      5.52      0.00
    0    4    6     -3.75      0.00
    1    4    6     -6.04      0.00
    2    4    6     -2.01      0.00
    3    4    6    -11.21      0.00
    4    4    6     -0.34      0.00
    5    4    6     -4.79      0.00
    6    4    6     -4.14      0.00
    7    4    6      1.87      0.00
    8    4    6     -0.99      0.00
    9    4    6     -0.90      0.00
   10    4    6      1.17      0.00
   11    4    6      0.59      0.00
   12    4    6      0.28      0.00
   13    4    6      0.37      0.00
   14    4    6      0.05      0.00
  -18    5    6      0.07      0.00
  -17    5    6      0.28      0.00
  -16    5    6     -0.24      0.00
  -15    5    6     -1.52      0.00
  -14    5    6      1.33      0.00
  -13    5    6     -0.05      0.00
  -12    5    6      1.57      0.00
  -11    5    6      0.59      0.00
  -10    5    6      0.21      0.00
   -9    5    6      2.81      0.00
   -8    5    6      2.61      0.00
   -7    5    6     -1.85      0.00
   -6    5    6      1.72      0.00
   -5    5    6     -4.03      0.00
   -4    5    6    -18.42      0.00
   -3    5    6     14.65      0.00
   -2    5    6    -10.31      0.00
   -1    5    6      3.26      0.00
    0    5    6     -0.57      0.00
    1    5    6      3.81      0.00
    2    5    6     -3.08      0.00
    3    5    6    -10.12      0.00
    4    5    6     -1.86      0.00
    5    5    6     -0.93      0.00
    6    5    6     -1.68      0.00
    7    5    6      2.94      0.00
    8    5    6     -0.67      0.00
    9    5    6      0.92      0.00
   10    5    6      0.83      0.00
   11    5    6      0.89      0.00
   12    5    6     -0.17      0.00
   13    5    6     -1.36      0.00
   14    5    6     -0.20      0.00
  -18    6    6      0.75      0.00
  -17    6    6     -2.20      0.00
  -16    6    6      1.11      0.00
  -15    6    6      0.47      0.00
  -14    6    6     -0.63      0.00
  -13    6    6      0.74      0.00
  -12    6    6     -0.11      0.00
  -11    6    6      2.02      0.00
  -10    6    6      2.74      0.00
   -9    6    6      2.25      0.00
   -8    6    6     -8.47      0.00
   -7    6    6     12.70      0.00
   -6    6    6    -11.02      0.00
   -5    6    6      7.52      0.00
   -4    6    6      6.86      0.00
   -3    6    6    -13.26      0.00
   -2    6    6      2.15      0.00
   -1    6    6    -14.27      0.00
    0    6    6      3.37      0.00
    1    6    6     -1.06      0.00
    2    6    6     -0.42      0.00
    3    6    6      6.49      0.00
    4    6    6      2.62      0.00
    5    6    6     -0.02      0.00
    6    6    6     -0.81      0.00
    7    6    6      0.29      0.00
    8    6    6     -0.45      0.00
    9    6    6     -0.26      0.00
   10    6    6      0.21      0.00
   11    6    6     -0.02      0.00
   12    6    6     -0.94      0.00
   13    6    6      1.73      0.00
   14    6    6      0.66      0.00
  -18    7    6     -0.71      0.00
  -17    7    6     -1.17      0.00
  -16    7    6     -1.76      0.00
  -15    7    6     -1.58      0.00
  -14    7    6      0.51      0.00
  -13    7    6      1.36      0.00
  -12    7    6      2.21      0.00
  -11    7    6      0.11      0.00
  -10    7    6      3.44      0.00
   -9    7    6      1.93      0.00
   -8    7    6      1.13      0.00
   -7    7    6     -4.63      0.00
   -6    7    6      8.47      0.00
   -5    7    6    -15.44      0.00
   -4    7    6      9.84      0.00
   -3    7    6      6.18      0.00
   -2    7    6    -18.09      0.00
   -1    7    6     20.86      0.00
    0    7    6     -8.77      0.00
    1    7    6     10.51      0.00
    2    7    6     -1.56      0.00
    3    7    6      0.57      0.00
    4    7    6      9.68      0.00
    5    7    6     -3.33      0.00
    6    7    6      1.05      0.00
    7    7    6     -0.16      0.00
    8    7    6     -2.10      0.00
    9    7    6     -1.89      0.00
   10    7    6     -2.04      0.00
   11    7    6     -2.19      0.00
   12    7    6     -0.94      0.00
   13    7    6      0.72      0.00
   14    7    6     -0.05      0.00
   15    7    6      1.00      0.00
  -18    8    6     -0.41      0.00
  -17    8    6     -0.32      0.00
  -16    8    6      1.46      0.00
  -15    8    6     -1.30      0.00
  -14    8    6     -0.29      0.00
  -13    8    6     -0.98      0.00
  -12    8    6      1.56      0.00
  -11    8    6      1.08      0.00
  -10    8    6      2.57      0.00
   -9    8    6     -6.21      0.00
   -8    8    6      3.48      0.00
   -7    8    6      2.49      0.00
   -6    8    6      0.32      0.00
   -5    8    6      5.25      0.00
   -4    8    6     -6.68      0.00
   -3    8    6     -5.67      0.00
   -2    8    6      7.88      0.00
   -1    8    6    -11.02      0.00
    0    8    6     10.73      0.00
    1    8    6      0.16      0.00
    2    8    6      6.01      0.00
    3    8    6     13.48      0.00
    4    8    6     -0.36      0.00
    5    8    6      1.73      0.00
    6    8    6     -0.55      0.00
    7    8    6      1.02      0.00
    8    8    6      0.55      0.00
    9    8    6     -1.91      0.00
   10    8    6     -0.19      0.00
   11    8    6     -0.10      0.00
   12    8    6      1.03      0.00
   13    8    6      1.75      0.00
   14    8    6      1.04      0.00
   15    8    6     -1.33      0.00
  -18    9    6     -0.52      0.00
  -17    9    6      0.02      0.00
  -16    9    6      0.53      0.00
  -15    9    6      0.41      0.00
  -14    9    6      0.61      0.00
  -13    9    6      1.12      0.00
  -12    9    6     -3.30      0.00
  -11    9    6     -1.32      0.00
  -10    9    6     -1.53      0.00
   -9    9    6     -0.94      0.00
   -8    9    6     -7.08      0.00
   -7    9    6      7.50      0.00
   -6    9    6     -8.37      0.00
   -5    9    6      7.89      0.00
   -4    9    6      2.08      0.00
   -3    9    6      3.30      0.00
   -2    9    6     -6.53      0.00
   -1    9    6      6.27      0.00
    0    9    6    -12.66      0.00
    1    9    6      1.67      0.00
    2    9    6     -1.93      0.00
    3    9    6      1.21      0.00
    4    9    6      2.14      0.00
    5    9    6     -2.34      0.00
    6    9    6      1.75      0.00
    7    9    6      1.08      0.00
    8    9    6     -5.14      0.00
    9    9    6      0.23      0.00
   10    9    6     -0.73      0.00
   11    9    6     -0.37      0.00
   12    9    6      2.48      0.00
   13    9    6      1.05      0.00
   14    9    6      0.32      0.00
   15    9    6      0.36      0.00
  -17   10    6      2.25      0.00
  -16   10    6      0.43      0.00
  -15   10    6      0.54      0.00
  -14   10    6     -0.55      0.00
  -13   10    6     -0.83      0.00
  -12   10    6     -0.05      0.00
  -11   10    6     -3.84      0.00
  -10   10    6     -1.54      0.00
   -9   10    6     -5.39      0.00
   -8   10    6      4.40      0.00
   -7   10    6     -2.69      0.00
   -6   10    6      7.04      0.00
   -5   10    6    -13.94      0.00
   -4   10    6     13.24      0.00
   -3   10    6     -7.95      0.00
   -2   10    6     12.37      0.00
   -1   10    6    -12.06      0.00
    0   10    6      5.66      0.00
    1   10    6     -0.84      0.00
    2   10    6      2.52      0.00
    3   10    6      5.02      0.00
    4   10    6     -1.33      0.00
    5   10    6      0.47      0.00
    6   10    6      1.56      0.00
    7   10    6     -2.40      0.00
    8   10    6      1.44      0.00
    9   10    6     -3.40      0.00
   10   10    6     -0.05      0.00
   11   10    6      0.93      0.00
   12   10    6     -0.09      0.00
   13   10    6     -1.12      0.00
   14   10    6     -0.75      0.00
  -17   11    6      0.62      0.00
  -16   11    6      0.62      0.00
  -15   11    6      0.07      0.00
  -14   11    6      2.82      0.00
  -13   11    6     -0.28      0.00
  -12   11    6     -4.38      0.00
  -11   11    6      0.90      0.00
  -10   11    6     -3.02      0.00
   -9   11    6     -4.45      0.00
   -8   11    6      3.48      0.00
   -7   11    6     -3.70      0.00
   -6   11    6      0.49      0.00
   -5   11    6      8.82      0.00
   -4   11    6     -3.19      0.00
   -3   11    6     10.67      0.00
   -2   11    6    -13.20      0.00
   -1   11    6      0.31      0.00
    0   11    6     -4.07      0.00
    1   11    6     -0.74      0.00
    2   11    6      0.02      0.00
    3   11    6      0.95      0.00
    4   11    6      3.18      0.00
    5   11    6      2.28      0.00
    6   11    6      1.69      0.00
    7   11    6     -2.18      0.00
    8   11    6     -4.04      0.00
    9   11    6      0.77      0.00
   10   11    6      0.22      0.00
   11   11    6      0.06      0.00
   12   11    6      0.43      0.00
   13   11    6     -0.03      0.00
   14   11    6     -1.76      0.00
  -17   12    6      0.11      0.00
  -16   12    6     -1.69      0.00
  -15   12    6      0.95      0.00
  -14   12    6     -0.22      0.00
  -13   12    6      1.05      0.00
  -12   12    6      0.36      0.00
  -11   12    6     -1.90      0.00
  -10   12    6     -2.07      0.00
   -9   12    6     -1.09      0.00
   -8   12    6     -4.60      0.00
   -7   12    6      4.51      0.00
   -6   12    6     -9.73      0.00
   -5   12    6      3.85      0.00
   -4   12    6     11.57      0.00
   -3   12    6     -3.40      0.00
   -2   12    6      8.19      0.00
   -1   12    6     -6.51      0.00
    0   12    6      5.24      0.00
    1   12    6     -5.02      0.00
    2   12    6      1.57      0.00
    3   12    6     -0.87      0.00
    4   12    6     -2.65      0.00
    5   12    6     -1.88      0.00
    6   12    6     -2.96      0.00
    7   12    6     -1.67      0.00
    8   12    6     -2.75      0.00
    9   12    6     -2.37      0.00
   10   12    6     -0.99      0.00
   11   12    6      0.93      0.00
   12   12    6      0.54      0.00
   13   12    6     -0.64      0.00
   14   12    6      0.75      0.00
  -17   13    6     -0.35      0.00
  -16   13    6      0.44      0.00
  -15   13    6      1.35      0.00
  -14   13    6      1.73      0.00
  -13   13    6     -0.83      0.00
  -12   13    6     -1.80      0.00
  -11   13    6      1.64      0.00
  -10   13    6     -3.18      0.00
   -9   13    6     -0.20      0.00
   -8   13    6     -0.48      0.00
   -7   13    6     -5.86      0.00
   -6   13    6      6.19      0.00
   -5   13    6     -0.59      0.00
   -4   13    6      2.50      0.00
   -3   13    6     -2.95      0.00
   -2   13    6     -6.64      0.00
   -1   13    6      4.89      0.00
    0   13    6      1.17      0.00
    1   13    6      1.44      0.00
    2   13    6      0.14      0.00
    3   13    6      2.07      0.00
    4   13    6      0.93      0.00
    5   13    6      0.68      0.00
    6   13    6     -0.72      0.00
    7   13    6     -2.43      0.00
    8   13    6     -0.31      0.00
    9   13    6      0.19      0.00
   10   13    6      1.25      0.00
   11   13    6      1.53      0.00
   12   13    6      1.05      0.00
   13   13    6      0.21      0.00
   14   13    6      0.27      0.00
  -17   14    6      0.00      0.00
  -16   14    6     -0.42      0.00
  -15   14    6      0.39      0.00
  -14   14    6      0.53      0.00
  -13   14    6     -0.21      0.00
  -12   14    6      0.04      0.00
  -11   14    6     -2.07      0.00
  -10   14    6     -2.68      0.00
   -9   14    6     -1.06      0.00
   -8   14    6     -0.34      0.00
   -7   14    6      0.84      0.00
   -6   14    6     -3.86      0.00
   -5   14    6      8.31      0.00
   -4   14    6     -2.16      0.00
   -3   14    6     -0.90      0.00
   -2   14    6     -2.41      0.00
   -1   14    6     -0.98      0.00
    0   14    6     -3.30      0.00
    1   14    6     -1.96      0.00
    2   14    6      0.25      0.00
    3   14    6     -2.86      0.00
    4   14    6     -2.97      0.00
    5   14    6     -2.27      0.00
    6   14    6      1.51      0.00
    7   14    6     -0.40      0.00
    8   14    6     -0.53      0.00
    9   14    6      0.27      0.00
   10   14    6      0.34      0.00
   11   14    6      2.72      0.00
   12   14    6      0.35      0.00
   13   14    6      1.05      0.00
  -17   15    6      0.67      0.00
  -16   15    6      0.78      0.00
  -15   15    6     -0.73      0.00
  -14   15    6     -1.26      0.00
  -13   15    6     -1.86      0.00
  -12   15    6     -1.12      0.00
  -11   15    6     -0.16      0.00
  -10   15    6     -1.25      0.00
   -9   15    6     -1.58      0.00
   -8   15    6     -1.05      0.00
   -7   15    6      1.34      0.00
   -6   15    6      0.44      0.00
   -5   15    6      0.05      0.00
   -4   15    6     -3.97      0.00
   -3   15    6     -2.80      0.00
   -2   15    6      4.65      0.00
   -1   15    6      4.02      0.00
    0   15    6      4.01      0.00
    1   15    6      0.16      0.00
    2   15    6      1.17      0.00
    3   15    6     -0.31      0.00
    4   15    6     -0.31      0.00
    5   15    6      2.36      0.00
    6   15    6     -1.65      0.00
    7   15    6      0.46      0.00
    8   15    6      0.56      0.00
    9   15    6     -0.60      0.00
   10   15    6      1.29      0.00
   11   15    6      0.35      0.00
   12   15    6      0.05      0.00
   13   15    6      0.78      0.00
   14   15    6     -0.99      0.00
  -17   16    6     -0.16      0.00
  -16   16    6      0.21      0.00
  -15   16    6      0.26      0.00
  -14   16    6      0.63      0.00
  -13   16    6     -0.47      0.00
  -12   16    6      0.18      0.00
  -11   16    6     -2.86      0.00
  -10   16    6     -1.17      0.00
   -9   16    6      1.86      0.00
   -8   16    6     -0.69      0.00
   -7   16    6      1.16      0.00
   -6   16    6     -1.10      0.00
   -5   16    6     -0.84      0.00
   -4   16    6     -2.28      0.00
   -3   16    6      1.05      0.00
   -2   16    6     -2.31      0.00
   -1   16    6      3.22      0.00
    0   16    6     -2.57      0.00
    1   16    6      3.28      0.00
    2   16    6     -1.13      0.00
    3   16    6     -0.12      0.00
    4   16    6     -0.23      0.00
    5   16    6      1.46      0.00
    6   16    6      3.05      0.00
    7   16    6      2.61      0.00
    8   16    6     -0.55      0.00
    9   16    6      0.87      0.00
   10   16    6      2.41      0.00
   11   16    6      0.20      0.00
   12   16    6      1.53      0.00
   13   16    6      0.09      0.00
  -17   17    6      0.76      0.00
  -16   17    6     -1.64      0.00
  -15   17    6     -0.51      0.00
  -14   17    6     -0.13      0.00
  -13   17    6      0.16      0.00
  -12   17    6      1.44      0.00
  -11   17    6     -0.58      0.00
  -10   17    6     -1.03      0.00
   -9   17    6     -1.80      0.00
   -8   17    6      3.16      0.00
   -7   17    6     -1.90      0.00
   -6   17    6     -0.40      0.00
   -5   17    6     -1.54      0.00
   -4   17    6     -0.93      0.00
   -3   17    6      1.79      0.00
   -2   17    6      4.42      0.00
   -1   17    6      0.47      0.00
    0   17    6     -0.25      0.00
    1   17    6     -3.88      0.00
    2   17    6     -1.69      0.00
    3   17    6     -2.45      0.00
    4   17    6      0.11      0.00
    5   17    6     -0.79      0.00
    6   17    6     -0.50      0.00
    7   17    6     -0.17      0.00
    8   17    6      0.60      0.00
    9   17    6      0.47      0.00
   10   17    6     -0.33      0.00
   11   17    6      1.78      0.00
   12   17    6      2.17      0.00
   13   17    6      0.77      0.00
  -17   18    6     -0.56      0.00
  -16   18    6     -0.18      0.00
  -15   18    6     -0.21      0.00
  -14   18    6     -0.57      0.00
  -13   18    6      0.97      0.00
  -12   18    6     -1.03      0.00
  -11   18    6     -0.84      0.00
  -10   18    6      2.15      0.00
   -9   18    6      0.07      0.00
   -8   18    6      1.96      0.00
   -7   18    6     -0.25      0.00
   -6   18    6     -1.80      0.00
   -5   18    6      1.35      0.00
   -4   18    6     -1.12      0.00
   -3   18    6     -0.49      0.00
   -2   18    6     -0.98      0.00
   -1   18    6     -0.44      0.00
    0   18    6     -1.05      0.00
    1   18    6      1.48      0.00
    2   18    6     -0.44      0.00
    3   18    6      2.76      0.00
    4   18    6      0.66      0.00
    5   18    6      2.48      0.00
    6   18    6      2.97      0.00
    7   18    6     -0.13      0.00
    8   18    6      0.29      0.00
    9   18    6     -0.73      0.00
   10   18    6      1.21      0.00
   11   18    6     -1.76      0.00
   12   18    6      1.15      0.00
   13   18    6      1.82      0.00
  -17   19    6     -1.27      0.00
  -16   19    6     -1.27      0.00
  -15   19    6     -0.03      0.00
  -14   19    6      0.68      0.00
  -13   19    6     -0.28      0.00
  -12   19    6      0.92      0.00
  -11   19    6     -1.59      0.00
  -10   19    6     -0.68      0.00
   -9   19    6      1.65      0.00
   -8   19    6      1.03      0.00
   -7   19    6     -0.48      0.00
   -6   19    6      2.99      0.00
   -5   19    6     -0.50      0.00
   -4   19    6      1.81      0.00
   -3   19    6     -2.73      0.00
   -2   19    6     -1.27      0.00
   -1   19    6     -2.39      0.00
    0   19    6     -4.28      0.00
    1   19    6     -2.80      0.00
    2   19    6      1.56      0.00
    3   19    6     -0.76      0.00
    4   19    6      3.35      0.00
    5   19    6      0.71      0.00
    6   19    6      0.79      0.00
    7   19    6      1.42      0.00
    8   19    6     -1.94      0.00
    9   19    6      1.15      0.00
   10   19    6     -2.52      0.00
   11   19    6      0.20      0.00
   12   19    6      0.07      0.00
  -16   20    6     -0.95      0.00
  -15   20    6     -0.29      0.00
  -14   20    6     -0.62      0.00
  -13   20    6      0.80      0.00
  -12   20    6     -2.30      0.00
  -11   20    6      0.96      0.00
  -10   20    6     -0.55      0.00
   -9   20    6      0.03      0.00
   -8   20    6      0.34      0.00
   -7   20    6     -0.37      0.00
   -6   20    6      1.80      0.00
   -5   20    6      3.08      0.00
   -4   20    6     -1.55      0.00
   -3   20    6     -0.11      0.00
   -2   20    6      0.26      0.00
   -1   20    6     -2.46      0.00
    0   20    6      2.57      0.00
    1   20    6      1.29      0.00
    2   20    6      0.49      0.00
    3   20    6      2.67      0.00
    4   20    6     -0.67      0.00
    5   20    6      1.23      0.00
    6   20    6      0.37      0.00
    7   20    6     -1.72      0.00
    8   20    6      1.07      0.00
    9   20    6     -1.43      0.00
   10   20    6     -0.82      0.00
   11   20    6      0.26      0.00
   12   20    6     -0.72      0.00
  -16   21    6      1.16      0.00
  -15   21    6      1.14      0.00
  -14   21    6      0.15      0.00
  -13   21    6     -0.67      0.00
  -12   21    6     -0.81      0.00
  -11   21    6     -0.94      0.00
  -10   21    6      0.01      0.00
   -9   21    6     -0.41      0.00
   -8   21    6      1.04      0.00
   -7   21    6      1.21      0.00
   -6   21    6      3.85      0.00
   -5   21    6     -0.22      0.00
   -4   21    6      1.09      0.00
   -3   21    6     -1.00      0.00
   -2   21    6     -0.88      0.00
   -1   21    6     -0.88      0.00
    0   21    6     -1.15      0.00
    1   21    6      1.16      0.00
    2   21    6      1.31      0.00
    3   21    6      1.09      0.00
    4   21    6      2.72      0.00
    5   21    6      0.46      0.00
    6   21    6     -0.89      0.00
    7   21    6     -0.23      0.00
    8   21    6      0.03      0.00
    9   21    6      1.86      0.00
   10   21    6      0.42      0.00
   11   21    6      0.88      0.00
   12   21    6     -0.64      0.00
  -15   22    6      1.23      0.00
  -14   22    6      0.87      0.00
  -13   22    6     -0.40      0.00
  -12   22    6     -1.06      0.00
  -11   22    6      0.10      0.00
  -10   22    6     -0.86      0.00
   -9   22    6      0.29      0.00
   -8   22    6     -0.66      0.00
   -7   22    6      2.36      0.00
   -6   22    6      1.57      0.00
   -5   22    6      2.62      0.00
   -4   22    6     -0.28      0.00
   -3   22    6      0.95      0.00
   -2   22    6     -0.86      0.00
   -1   22    6     -0.63      0.00
    0   22    6      0.00      0.00
    1   22    6     -1.69      0.00
    2   22    6     -0.78      0.00
    3   22    6     -0.15      0.00
    4   22    6     -1.78      0.00
    5   22    6      0.35      0.00
    6   22    6      0.37      0.00
    7   22    6     -1.05      0.00
    8   22    6      0.76      0.00
    9   22    6      0.09      0.00
   10   22    6      1.32      0.00
   11   22    6     -0.38      0.00
  -15   23    6      0.20      0.00
  -14   23    6      0.31      0.00
  -13   23    6      1.06      0.00
  -12   23    6     -0.12      0.00
  -11   23    6      1.11      0.00
  -10   23    6     -1.11      0.00
   -9   23    6      0.75      0.00
   -8   23    6      0.91      0.00
   -7   23    6      1.73      0.00
   -6   23    6      0.43      0.00
   -5   23    6      0.28      0.00
   -4   23    6      0.79      0.00
   -3   23    6     -0.43      0.00
   -2   23    6     -0.63      0.00
   -1   23    6     -0.30      0.00
    0   23    6     -0.54      0.00
    1   23    6      0.24      0.00
    2   23    6      1.42      0.00
    3   23    6      2.08      0.00
    4   23    6      1.59      0.00
    5   23    6     -0.50      0.00
    6   23    6     -1.11      0.00
    7   23    6      0.83      0.00
    8   23    6      0.48      0.00
    9   23    6      0.73      0.00
   10   23    6      0.09      0.00
   11   23    6     -0.51      0.00
  -14   24    6      0.75      0.00
  -13   24    6     -0.47      0.00
  -12   24    6      1.07      0.00
  -11   24    6      0.43      0.00
  -10   24    6      0.24      0.00
   -9   24    6     -0.07      0.00
   -8   24    6      0.63      0.00
   -7   24    6     -0.22      0.00
   -6   24    6      1.31      0.00
   -5   24    6     -0.49      0.00
   -4   24    6      0.06      0.00
   -3   24    6     -0.09      0.00
   -2   24    6     -0.31      0.00
   -1   24    6     -1.45      0.00
    0   24    6     -0.70      0.00
    1   24    6     -1.11      0.00
    2   24    6      1.48      0.00
    3   24    6     -0.44      0.00
    4   24    6      0.03      0.00
    5   24    6      2.44      0.00
    6   24    6      0.96      0.00
    7   24    6     -0.68      0.00
    8   24    6     -0.11      0.00
    9   24    6      0.10      0.00
   10   24    6     -0.10      0.00
  -15   25    6     -0.85      0.00
  -14   25    6      1.51      0.00
  -13   25    6     -0.19      0.00
  -12   25    6     -0.42      0.00
  -11   25    6     -0.67      0.00
  -10   25    6     -0.08      0.00
   -9   25    6     -0.21      0.00
   -8   25    6      0.05      0.00
   -7   25    6     -0.13      0.00
   -6   25    6     -1.96      0.00
   -5   25    6      1.27      0.00
   -4   25    6     -1.86      0.00
   -3   25    6      1.08      0.00
   -2   25    6      0.32      0.00
   -1   25    6      0.73      0.00
    0   25    6     -0.96      0.00
    1   25    6      1.92      0.00
    2   25    6      1.05      0.00
    3   25    6      0.49      0.00
    4   25    6     -2.30      0.00
    5   25    6     -0.28      0.00
    6   25    6      0.29      0.00
    7   25    6      0.37      0.00
    8   25    6      1.77      0.00
    9   25    6     -0.98      0.00
   10   25    6      1.66      0.00
  -14   26    6     -0.98      0.00
  -13   26    6     -1.40      0.00
  -12   26    6      0.84      0.00
  -11   26    6      0.17      0.00
  -10   26    6     -0.48      0.00
   -9   26    6      0.88      0.00
   -8   26    6     -0.84      0.00
   -7   26    6     -0.77      0.00
   -6   26    6      0.69      0.00
   -5   26    6     -1.22      0.00
   -4   26    6      0.86      0.00
   -3   26    6     -0.16      0.00
   -2   26    6     -1.00      0.00
   -1   26    6      0.82      0.00
    0   26    6     -0.53      0.00
    1   26    6      1.68      0.00
    2   26    6      1.67      0.00
    3   26    6     -1.93      0.00
    4   26    6      1.89      0.00
    5   26    6      0.12      0.00
    6   26    6     -0.74      0.00
    7   26    6      0.44      0.00
    8   26    6     -1.71      0.00
    9   26    6      1.60      0.00
  -14   27    6     -0.89      0.00
  -13   27    6     -1.95      0.00
  -12   27    6     -0.95      0.00
  -11   27    6     -0.89      0.00
  -10   27    6      0.66      0.00
   -9   27    6     -0.67      0.00
   -8   27    6      1.64      0.00
   -7   27    6     -0.74      0.00
   -6   27    6     -0.40      0.00
   -5   27    6     -0.32      0.00
   -4   27    6     -0.08      0.00
   -3   27    6      0.51      0.00
   -2   27    6      1.36      0.00
   -1   27    6     -1.30      0.00
    0   27    6      1.72      0.00
    1   27    6      0.42      0.00
    2   27    6      0.58      0.00
    3   27    6     -0.79      0.00
    4   27    6     -1.25      0.00
    5   27    6      0.34      0.00
    6   27    6      0.14      0.00
    7   27    6      0.47      0.00
    8   27    6      0.68      0.00
    9   27    6     -1.19      0.00
  -13   28    6      0.13      0.00
  -12   28    6     -0.21      0.00
  -11   28    6     -1.10      0.00
  -10   28    6     -1.32      0.00
   -9   28    6     -0.15      0.00
   -8   28    6     -0.74      0.00
   -7   28    6      0.54      0.00
   -6   28    6      0.51      0.00
   -5   28    6     -0.10      0.00
   -4   28    6     -0.72      0.00
   -3   28    6     -0.06      0.00
   -2   28    6      0.46      0.00
   -1   28    6      1.34      0.00
    0   28    6     -0.05      0.00
    1   28    6      2.11      0.00
    2   28    6     -0.18      0.00
    3   28    6     -0.33      0.00
    4   28    6      0.72      0.00
    5   28    6     -0.47      0.00
    6   28    6     -1.15      0.00
    7   28    6      0.96      0.00
    8   28    6     -0.27      0.00
  -12   29    6      0.01      0.00
  -11   29    6      0.12      0.00
  -10   29    6     -0.99      0.00
   -9   29    6      0.90      0.00
   -8   29    6      0.42      0.00
   -7   29    6     -1.38      0.00
   -6   29    6     -0.52      0.00
   -5   29    6     -0.16      0.00
   -4   29    6      0.67      0.00
   -3   29    6     -0.05      0.00
   -2   29    6     -0.02      0.00
   -1   29    6      0.33      0.00
    0   29    6     -1.32      0.00
    1   29    6      1.13      0.00
    2   29    6     -0.98      0.00
    3   29    6     -0.14      0.00
    4   29    6      0.51      0.00
    5   29    6     -1.71      0.00
    6   29    6      1.50      0.00
    7   29    6     -0.04      0.00
    8   29    6      0.90      0.00
  -12   30    6     -1.33      0.00
  -11   30    6     -0.96      0.00
  -10   30    6     -0.54      0.00
   -9   30    6      0.02      0.00
   -8   30    6      0.24      0.00
   -7   30    6     -0.04      0.00
   -6   30    6      0.27      0.00
   -5   30    6     -0.52      0.00
   -4   30    6      0.28      0.00
   -3   30    6      0.43      0.00
   -2   30    6     -0.04      0.00
   -1   30    6     -1.84      0.00
    0   30    6      0.92      0.00
    1   30    6     -0.66      0.00
    2   30    6      0.63      0.00
    3   30    6      0.93      0.00
    4   30    6     -0.38      0.00
    5   30    6      0.90      0.00
    6   30    6     -1.20      0.00
    7   30    6      1.61      0.00
  -11   31    6     -0.39      0.00
  -10   31    6      0.23      0.00
   -9   31    6      0.96      0.00
   -8   31    6     -1.39      0.00
   -7   31    6     -0.59      0.00
   -6   31    6      0.28      0.00
   -5   31    6      1.22      0.00
   -4   31    6      0.78      0.00
   -3   31    6      0.02      0.00
   -2   31    6      0.16      0.00
   -1   31    6     -2.26      0.00
    0   31    6      0.60      0.00
    1   31    6      1.29      0.00
    2   31    6      0.50      0.00
    3   31    6      0.79      0.00
    4   31    6      0.90      0.00
    5   31    6     -0.80      0.00
    6   31    6      1.51      0.00
    7   31    6     -0.36      0.00
  -11   32    6      0.99      0.00
  -10   32    6     -0.05      0.00
   -9   32    6      0.71      0.00
   -8   32    6     -0.50      0.00
   -7   32    6     -0.23      0.00
   -6   32    6      0.73      0.00
   -5   32    6      0.86      0.00
   -4   32    6      0.30      0.00
   -3   32    6      0.04      0.00
   -2   32    6     -0.78      0.00
   -1   32    6      0.58      0.00
    0   32    6      0.57      0.00
    1   32    6      1.31      0.00
    2   32    6      1.21      0.00
    3   32    6      0.10      0.00
    4   32    6      0.11      0.00
    5   32    6      0.16      0.00
    6   32    6     -0.70      0.00
  -10   33    6      1.00      0.00
   -8   33    6     -1.16      0.00
   -7   33    6     -0.08      0.00
   -6   33    6      0.77      0.00
   -5   33    6     -0.10      0.00
   -4   33    6      1.06      0.00
   -3   33    6     -0.18      0.00
   -2   33    6     -0.87      0.00
   -1   33    6     -0.38      0.00
    0   33    6      0.87      0.00
    1   33    6      0.33      0.00
    2   33    6     -0.44      0.00
    3   33    6      0.40      0.00
    4   33    6     -0.13      0.00
    5   33    6      0.03      0.00
    6   33    6      1.19      0.00
   -7   34    6      1.21      0.00
   -6   34    6      0.23      0.00
   -5   34    6      0.52      0.00
   -4   34    6     -2.13      0.00
   -3   34    6      1.62      0.00
   -2   34    6     -1.37      0.00
   -1   34    6     -1.35      0.00
    0   34    6     -0.37      0.00
    1   34    6     -0.79      0.00
    2   34    6      0.23      0.00
    3   34    6     -0.82      0.00
    4   34    6      0.19      0.00
    5   34    6     -0.40      0.00
   -6   35    6      1.21      0.00
   -5   35    6      0.47      0.00
   -4   35    6      1.92      0.00
   -3   35    6     -0.97      0.00
   -2   35    6     -0.10      0.00
   -1   35    6     -1.13      0.00
    0   35    6     -1.68      0.00
    1   35    6      0.34      0.00
    2   35    6      0.07      0.00
    3   35    6      2.03      0.00
    5   35    6      0.21      0.00
   -4   36    6      1.69      0.00
   -3   36    6      1.84      0.00
   -2   36    6     -1.50      0.00
   -1   36    6      0.53      0.00
    0   36    6     -0.29      0.00
    1   36    6      0.04      0.00
    2   36    6      0.37      0.00
   -1   37    6     -0.45      0.00
    0   37    6      0.04      0.00
    1   37    6      0.37      0.00
    2   37    6      0.35      0.00
    0   38    6      0.00      0.00
  -19    0    7      0.20      0.00
  -17    0    7     -0.53      0.00
  -15    0    7     -0.70      0.00
  -13    0    7     -1.18      0.00
  -11    0    7     -2.16      0.00
   -9    0    7      1.68      0.00
   -7    0    7     -3.72      0.00
   -5    0    7     -1.45      0.00
   -3    0    7      1.32      0.00
   -1    0    7     -9.50      0.00
    1    0    7     -3.74      0.00
    3    0    7      2.74      0.00
    5    0    7      2.74      0.00
    7    0    7     -4.97      0.00
    9    0    7     -0.19      0.00
   11    0    7     -0.75      0.00
  -19    1    7     -1.03      0.00
  -18    1    7     -0.96      0.00
  -17    1    7      0.45      0.00
  -16    1    7     -0.32      0.00
  -15    1    7      0.03      0.00
  -14    1    7      0.54      0.00
  -13    1    7     -0.43      0.00
  -12    1    7     -1.67      0.00
  -11    1    7     -0.26      0.00
  -10    1    7     -1.55      0.00
   -9    1    7     -0.29      0.00
   -8    1    7      5.35      0.00
   -7    1    7      0.58      0.00
   -6    1    7     -0.30      0.00
   -5    1    7      5.52      0.00
   -4    1    7     -1.30      0.00
   -3    1    7     -2.41      0.00
   -2    1    7     -1.17      0.00
   -1    1    7     -7.80      0.00
    0    1    7      5.69      0.00
    1    1    7     -7.62      0.00
    2    1    7      3.55      0.00
    3    1    7      0.49      0.00
    4    1    7     -2.29      0.00
    5    1    7      4.39      0.00
    6    1    7      1.57      0.00
    7    1    7     -0.55      0.00
    8    1    7      0.18      0.00
    9    1    7     -1.35      0.00
   10    1    7     -2.10      0.00
   11    1    7     -1.18      0.00
   12    1    7      0.27      0.00
  -19    2    7      0.44      0.00
  -18    2    7     -0.94      0.00
  -17    2    7      0.33      0.00
  -16    2    7     -0.85      0.00
  -15    2    7     -0.01      0.00
  -14    2    7     -0.89      0.00
  -13    2    7      0.03      0.00
  -12    2    7      0.33      0.00
  -11    2    7     -1.50      0.00
  -10    2    7     -1.68      0.00
   -9    2    7      1.23      0.00
   -8    2    7     -3.68      0.00
   -7    2    7      4.90      0.00
   -6    2    7      3.81      0.00
   -5    2    7      8.49      0.00
   -4    2    7      2.66      0.00
   -3    2    7     -5.19      0.00
   -2    2    7    -11.03      0.00
   -1    2    7      2.12      0.00
    0    2    7     -7.79      0.00
    1    2    7      3.57      0.00
    2    2    7      7.88      0.00
    3    2    7      7.25      0.00
    4    2    7      6.23      0.00
    5    2    7      3.21      0.00
    6    2    7     -1.43      0.00
    7    2    7     -2.22      0.00
    8    2    7      1.93      0.00
    9    2    7     -0.43      0.00
   10    2    7     -1.38      0.00
   11    2    7     -0.80      0.00
   12    2    7      0.17      0.00
  -19    3    7     -0.63      0.00
  -18    3    7      1.18      0.00
  -17    3    7     -0.04      0.00
  -16    3    7      0.13      0.00
  -15    3    7      0.23      0.00
  -14    3    7     -0.77      0.00
  -13    3    7     -0.78      0.00
  -12    3    7     -0.79      0.00
  -11    3    7      0.46      0.00
  -10    3    7     -0.85      0.00
   -9    3    7     -0.62      0.00
   -8    3    7      4.67      0.00
   -7    3    7     -5.83      0.00
   -6    3    7      7.08      0.00
   -5    3    7     -2.22      0.00
   -4    3    7      5.30      0.00
   -3    3    7      0.48      0.00
   -2    3    7      6.69      0.00
   -1    3    7     -2.53      0.00
    0    3    7      4.91      0.00
    1    3    7     -7.39      0.00
    2    3    7      4.92      0.00
    3    3    7      1.61      0.00
    4    3    7      2.50      0.00
    5    3    7      3.97      0.00
    6    3    7      0.43      0.00
    7    3    7     -1.84      0.00
    8    3    7     -0.04      0.00
    9    3    7     -3.76      0.00
   10    3    7     -1.53      0.00
   11    3    7     -0.10      0.00
   12    3    7     -1.00      0.00
   13    3    7      0.96      0.00
  -18    4    7      0.14      0.00
  -17    4    7      1.49      0.00
  -16    4    7     -0.51      0.00
  -15    4    7      1.08      0.00
  -14    4    7     -1.04      0.00
  -13    4    7     -0.44      0.00
  -12    4    7     -0.65      0.00
  -11    4    7     -2.26      0.00
  -10    4    7     -1.96      0.00
   -9    4    7     -0.28      0.00
   -8    4    7     -1.55      0.00
   -7    4    7      1.42      0.00
   -6    4    7      1.25      0.00
   -5    4    7      5.35      0.00
   -4    4    7     -8.15      0.00
   -3    4    7      7.88      0.00
   -2    4    7      0.54      0.00
   -1    4    7      7.50      0.00
    0    4    7     -3.24      0.00
    1    4    7      6.20      0.00
    2    4    7      7.94      0.00
    3    4    7     -4.88      0.00
    4    4    7      1.30      0.00
    5    4    7      2.92      0.00
    6    4    7     -2.53      0.00
    7    4    7      3.08      0.00
    8    4    7      0.15      0.00
    9    4    7      0.02      0.00
   10    4    7      0.13      0.00
   11    4    7     -0.88      0.00
   12    4    7      2.03      0.00
   13    4    7     -1.54      0.00
  -18    5    7      0.63      0.00
  -17    5    7     -0.18      0.00
  -16    5    7      2.08      0.00
  -15    5    7     -0.41      0.00
  -14    5    7     -0.72      0.00
  -13    5    7     -1.52      0.00
  -12    5    7     -1.52      0.00
  -11    5    7     -0.97      0.00
  -10    5    7     -2.77      0.00
   -9    5    7      0.64      0.00
   -8    5    7     -4.83      0.00
   -7    5    7     -0.45      0.00
   -6    5    7     -2.85      0.00
   -5    5    7      6.43      0.00
   -4    5    7      3.36      0.00
   -3    5    7      0.36      0.00
   -2    5    7      3.49      0.00
   -1    5    7     -5.77      0.00
    0    5    7     -7.80      0.00
    1    5    7     -5.18      0.00
    2    5    7     -6.38      0.00
    3    5    7     -3.13      0.00
    4    5    7      0.36      0.00
    5    5    7      1.08      0.00
    6    5    7      0.27      0.00
    7    5    7     -0.33      0.00
    8    5    7      0.78      0.00
    9    5    7      0.71      0.00
   10    5    7      0.66      0.00
   11    5    7      2.02      0.00
   12    5    7     -1.54      0.00
   13    5    7      0.33      0.00
  -18    6    7      1.35      0.00
  -17    6    7     -0.43      0.00
  -16    6    7      0.03      0.00
  -15    6    7      1.18      0.00
  -14    6    7     -0.99      0.00
  -13    6    7     -0.42      0.00
  -12    6    7     -1.80      0.00
  -11    6    7     -2.57      0.00
  -10    6    7     -0.05      0.00
   -9    6    7      2.05      0.00
   -8    6    7     -1.19      0.00
   -7    6    7     -1.63      0.00
   -6    6    7      5.87      0.00
   -5    6    7     -7.62      0.00
   -4    6    7      7.61      0.00
   -3    6    7      1.16      0.00
   -2    6    7     -2.78      0.00
   -1    6    7      1.71      0.00
    0    6    7      0.28      0.00
    1    6    7     -0.25      0.00
    2    6    7     -7.06      0.00
    3    6    7    -10.21      0.00
    4    6    7      0.62      0.00
    5    6    7     -0.71      0.00
    6    6    7     -1.94      0.00
    7    6    7      0.86      0.00
    8    6    7      0.77      0.00
    9    6    7      1.24      0.00
   10    6    7      1.14      0.00
   11    6    7     -0.14      0.00
   12    6    7     -1.66      0.00
   13    6    7     -1.50      0.00
   14    6    7     -1.29      0.00
  -18    7    7      0.43      0.00
  -17    7    7      0.45      0.00
  -16    7    7      1.08      0.00
  -15    7    7     -0.95      0.00
  -14    7    7      0.22      0.00
  -13    7    7     -0.41      0.00
  -12    7    7      1.48      0.00
  -11    7    7     -0.16      0.00
  -10    7    7      0.36      0.00
   -9    7    7     -1.75      0.00
   -8    7    7      2.34      0.00
   -7    7    7     -2.82      0.00
   -6    7    7      4.62      0.00
   -5    7    7      4.71      0.00
   -4    7    7    -11.81      0.00
   -3    7    7      4.66      0.00
   -2    7    7     -7.68      0.00
   -1    7    7      4.96      0.00
    0    7    7     -6.94      0.00
    1    7    7      3.40      0.00
    2    7    7     -1.52      0.00
    3    7    7      0.26      0.00
    4    7    7      2.69      0.00
    5    7    7     -1.38      0.00
    6    7    7     -1.80      0.00
    7    7    7      2.12      0.00
    8    7    7      1.64      0.00
    9    7    7      1.45      0.00
   10    7    7      1.00      0.00
   11    7    7     -0.23      0.00
   12    7    7      0.53      0.00
   13    7    7     -0.61      0.00
   14    7    7     -0.15      0.00
  -18    8    7     -0.05      0.00
  -17    8    7     -2.06      0.00
  -16    8    7      0.18      0.00
  -15    8    7     -0.36      0.00
  -14    8    7     -0.33      0.00
  -13    8    7      1.92      0.00
  -12    8    7      0.29      0.00
  -11    8    7      1.58      0.00
  -10    8    7      3.66      0.00
   -9    8    7      3.17      0.00
   -8    8    7     -7.69      0.00
   -7    8    7      8.07      0.00
   -6    8    7     -7.27      0.00
   -5    8    7      2.57      0.00
   -4    8    7      2.44      0.00
   -3    8    7    -11.92      0.00
   -2    8    7     13.76      0.00
   -1    8    7     -2.79      0.00
    0    8    7      7.35      0.00
    1    8    7     -2.70      0.00
    2    8    7     -9.27      0.00
    3    8    7     -0.50      0.00
    4    8    7     -4.18      0.00
    5    8    7     -2.15      0.00
    6    8    7     -1.14      0.00
    7    8    7      1.46      0.00
    8    8    7      1.00      0.00
    9    8    7      0.35      0.00
   10    8    7     -0.79      0.00
   11    8    7      0.09      0.00
   12    8    7     -0.21      0.00
   13    8    7      0.49      0.00
   14    8    7      1.15      0.00
  -18    9    7     -0.83      0.00
  -17    9    7      0.04      0.00
  -16    9    7     -0.56      0.00
  -15    9    7     -1.63      0.00
  -14    9    7     -0.34      0.00
  -13    9    7      1.31      0.00
  -12    9    7      3.07      0.00
  -11    9    7      0.30      0.00
  -10    9    7      0.81      0.00
   -9    9    7      2.75      0.00
   -8    9    7      3.65      0.00
   -7    9    7     -2.76      0.00
   -6    9    7      6.77      0.00
   -5    9    7    -12.86      0.00
   -4    9    7     -5.26      0.00
   -3    9    7      7.07      0.00
   -2    9    7     -3.54      0.00
   -1    9    7     12.11      0.00
    0    9    7     -4.12      0.00
    1    9    7      9.84      0.00
    2    9    7      3.91      0.00
    3    9    7     -3.29      0.00
    4    9    7      0.64      0.00
    5    9    7     -5.47      0.00
    6    9    7      2.39      0.00
    7    9    7      3.03      0.00
    8    9    7      1.00      0.00
    9    9    7      1.45      0.00
   10    9    7     -0.26      0.00
   11    9    7      0.43      0.00
   12    9    7      0.57      0.00
   13    9    7      1.18      0.00
   14    9    7     -0.76      0.00
  -18   10    7     -0.54      0.00
  -17   10    7      0.65      0.00
  -16   10    7      1.03      0.00
  -15   10    7     -2.08      0.00
  -14   10    7      0.65      0.00
  -13   10    7     -0.11      0.00
  -12   10    7      0.07      0.00
  -11   10    7      1.13      0.00
  -10   10    7      5.62      0.00
   -9   10    7     -4.57      0.00
   -8   10    7      6.08      0.00
   -7   10    7     -0.31      0.00
   -6   10    7      1.40      0.00
   -5   10    7     -2.71      0.00
   -4   10    7     -6.24      0.00
   -3   10    7     -4.77      0.00
   -2   10    7      9.74      0.00
   -1   10    7    -11.45      0.00
    0   10    7      7.02      0.00
    1   10    7     -5.35      0.00
    2   10    7     -4.39      0.00
    3   10    7      1.49      0.00
    4   10    7     -2.44      0.00
    5   10    7      3.25      0.00
    6   10    7      1.87      0.00
    7   10    7      0.88      0.00
    8   10    7      3.96      0.00
    9   10    7     -0.68      0.00
   10   10    7      0.49      0.00
   11   10    7      0.44      0.00
   12   10    7     -0.77      0.00
   13   10    7      0.19      0.00
   14   10    7      0.88      0.00
  -18   11    7      0.05      0.00
  -17   11    7      0.85      0.00
  -16   11    7     -1.16      0.00
  -15   11    7     -1.77      0.00
  -14   11    7     -1.08      0.00
  -13   11    7      1.53      0.00
  -12   11    7     -1.26      0.00
  -11   11    7      1.54      0.00
  -10   11    7      0.89      0.00
   -9   11    7      6.96      0.00
   -8   11    7     -2.88      0.00
   -7   11    7      6.39      0.00
   -6   11    7     -8.14      0.00
   -5   11    7     -2.43      0.00
   -4   11    7     -0.27      0.00
   -3   11    7      8.11      0.00
   -2   11    7     -3.76      0.00
   -1   11    7      3.05      0.00
    0   11    7     -0.21      0.00
    1   11    7      5.16      0.00
    2   11    7     -1.80      0.00
    3   11    7     -2.38      0.00
    4   11    7     -0.09      0.00
    5   11    7     -1.41      0.00
    6   11    7      1.76      0.00
    7   11    7      3.44      0.00
    8   11    7     -1.90      0.00
    9   11    7      1.10      0.00
   10   11    7     -0.61      0.00
   11   11    7     -3.39      0.00
   12   11    7     -0.52      0.00
   13   11    7     -0.90      0.00
   14   11    7     -0.19      0.00
  -18   12    7     -0.29      0.00
  -17   12    7      1.95      0.00
  -16   12    7     -1.45      0.00
  -15   12    7      0.69      0.00
  -14   12    7     -0.46      0.00
  -13   12    7     -1.28      0.00
  -12   12    7      2.36      0.00
  -11   12    7      1.47      0.00
  -10   12    7      2.65      0.00
   -9   12    7      0.47      0.00
   -8   12    7      2.85      0.00
   -7   12    7     -2.59      0.00
   -6   12    7      3.50      0.00
   -5   12    7    -10.26      0.00
   -4   12    7      5.16      0.00
   -3   12    7     -4.74      0.00
   -2   12    7      4.10      0.00
   -1   12    7     -4.50      0.00
    0   12    7      5.11      0.00
    1   12    7     -3.86      0.00
    2   12    7      1.28      0.00
    3   12    7      4.63      0.00
    4   12    7      4.08      0.00
    5   12    7      2.23      0.00
    6   12    7      0.69      0.00
    7   12    7     -0.72      0.00
    8   12    7      4.00      0.00
    9   12    7     -1.19      0.00
   10   12    7     -1.83      0.00
   11   12    7     -0.60      0.00
   12   12    7     -1.60      0.00
   13   12    7     -0.75      0.00
   14   12    7      0.88      0.00
  -18   13    7      0.27      0.00
  -17   13    7     -0.16      0.00
  -16   13    7      0.63      0.00
  -15   13    7     -1.25      0.00
  -14   13    7      2.08      0.00
  -13   13    7      1.58      0.00
  -12   13    7     -1.52      0.00
  -11   13    7      4.10      0.00
  -10   13    7      1.91      0.00
   -9   13    7     -1.30      0.00
   -8   13    7      2.00      0.00
   -7   13    7     -3.55      0.00
   -6   13    7     -2.74      0.00
   -5   13    7      5.52      0.00
   -4   13    7     -0.51      0.00
   -3   13    7      6.45      0.00
   -2   13    7     -9.10      0.00
   -1   13    7      1.00      0.00
    0   13    7     -1.80      0.00
    1   13    7     -2.41      0.00
    2   13    7     -2.61      0.00
    3   13    7     -1.17      0.00
    4   13    7     -1.25      0.00
    5   13    7     -3.04      0.00
    6   13    7      0.65      0.00
    7   13    7     -0.08      0.00
    8   13    7     -2.23      0.00
    9   13    7      0.26      0.00
   10   13    7     -1.17      0.00
   11   13    7     -1.21      0.00
   12   13    7     -0.47      0.00
   13   13    7      1.30      0.00
  -18   14    7      0.64      0.00
  -17   14    7      0.58      0.00
  -16   14    7      0.06      0.00
  -15   14    7      2.01      0.00
  -14   14    7     -1.45      0.00
  -13   14    7     -0.40      0.00
  -12   14    7      2.65      0.00
  -11   14    7      0.97      0.00
  -10   14    7      0.20      0.00
   -9   14    7      2.57      0.00
   -8   14    7     -5.91      0.00
   -7   14    7      6.95      0.00
   -6   14    7     -3.71      0.00
   -5   14    7      0.72      0.00
   -4   14    7      3.53      0.00
   -3   14    7     -3.98      0.00
   -2   14    7      4.32      0.00
   -1   14    7     -1.48      0.00
    0   14    7      1.06      0.00
    1   14    7     -1.59      0.00
    2   14    7      3.52      0.00
    3   14    7      3.88      0.00
    4   14    7     -0.37      0.00
    5   14    7     -0.41      0.00
    6   14    7     -2.69      0.00
    7   14    7     -0.78      0.00
    8   14    7      0.07      0.00
    9   14    7     -1.90      0.00
   10   14    7     -1.21      0.00
   11   14    7     -0.40      0.00
   12   14    7     -0.45      0.00
   13   14    7      0.01      0.00
  -17   15    7      0.45      0.00
  -16   15    7      0.89      0.00
  -15   15    7      0.30      0.00
  -14   15    7      1.06      0.00
  -13   15    7     -0.46      0.00
  -12   15    7     -0.61      0.00
  -11   15    7      2.30      0.00
  -10   15    7     -0.52      0.00
   -9   15    7     -0.49      0.00
   -8   15    7      1.14      0.00
   -7   15    7     -2.36      0.00
   -6   15    7      5.16      0.00
   -5   15    7      0.63      0.00
   -4   15    7     -0.51      0.00
   -3   15    7     -1.42      0.00
   -2   15    7     -7.22      0.00
   -1   15    7     -0.04      0.00
    0   15    7     -1.03      0.00
    1   15    7      0.16      0.00
    2   15    7     -0.29      0.00
    3   15    7      0.75      0.00
    4   15    7     -1.08      0.00
    5   15    7      1.65      0.00
    6   15    7      0.03      0.00
    7   15    7     -0.24      0.00
    8   15    7     -0.92      0.00
    9   15    7     -0.98      0.00
   10   15    7     -0.43      0.00
   11   15    7     -0.94      0.00
   12   15    7     -1.33      0.00
   13   15    7     -1.07      0.00
  -17   16    7      0.89      0.00
  -16   16    7     -0.13      0.00
  -15   16    7     -0.77      0.00
  -14   16    7     -1.21      0.00
  -13   16    7     -0.39      0.00
  -12   16    7      1.80      0.00
  -11   16    7     -0.32      0.00
  -10   16    7      0.51      0.00
   -9   16    7     -2.27      0.00
   -8   16    7      0.05      0.00
   -7   16    7      3.63      0.00
   -6   16    7     -3.74      0.00
   -5   16    7      2.13      0.00
   -4   16    7     -0.25      0.00
   -3   16    7      3.17      0.00
   -2   16    7      0.18      0.00
   -1   16    7      1.63      0.00
    0   16    7     -0.81      0.00
    1   16    7      1.17      0.00
    2   16    7      0.50      0.00
    3   16    7     -0.40      0.00
    4   16    7     -0.53      0.00
    5   16    7     -3.18      0.00
    6   16    7     -1.51      0.00
    7   16    7     -1.21      0.00
    8   16    7     -1.30      0.00
    9   16    7     -0.42      0.00
   10   16    7     -0.55      0.00
   11   16    7      0.11      0.00
   12   16    7     -1.16      0.00
  -17   17    7      1.49      0.00
  -16   17    7      0.95      0.00
  -15   17    7      0.88      0.00
  -14   17    7     -0.24      0.00
  -13   17    7     -0.69      0.00
  -12   17    7      0.29      0.00
  -11   17    7      0.27      0.00
  -10   17    7      0.26      0.00
   -9   17    7     -1.28      0.00
   -8   17    7     -0.42      0.00
   -7   17    7     -0.18      0.00
   -6   17    7     -0.96      0.00
   -5   17    7     -0.72      0.00
   -4   17    7      1.25      0.00
   -3   17    7     -1.68      0.00
   -2   17    7      2.07      0.00
   -1   17    7      2.58      0.00
    0   17    7      3.83      0.00
    1   17    7     -0.54      0.00
    2   17    7      1.47      0.00
    3   17    7     -0.69      0.00
    4   17    7     -0.64      0.00
    5   17    7      1.37      0.00
    6   17    7     -0.83      0.00
    7   17    7     -0.78      0.00
    8   17    7      0.63      0.00
    9   17    7      0.26      0.00
   10   17    7      1.19      0.00
   11   17    7     -0.06      0.00
   12   17    7      0.09      0.00
  -17   18    7     -0.41      0.00
  -16   18    7      0.29      0.00
  -15   18    7     -0.21      0.00
  -14   18    7      1.00      0.00
  -13   18    7      1.27      0.00
  -12   18    7      0.95      0.00
  -11   18    7     -0.75      0.00
  -10   18    7     -0.53      0.00
   -9   18    7     -0.47      0.00
   -8   18    7      0.33      0.00
   -7   18    7     -2.18      0.00
   -6   18    7     -2.83      0.00
   -5   18    7     -0.03      0.00
   -4   18    7      2.06      0.00
   -3   18    7      1.98      0.00
   -2   18    7     -1.16      0.00
   -1   18    7      1.72      0.00
    0   18    7     -2.64      0.00
    1   18    7     -0.91      0.00
    2   18    7     -2.52      0.00
    3   18    7     -1.03      0.00
    4   18    7     -3.06      0.00
    5   18    7     -3.12      0.00
    6   18    7     -1.06      0.00
    7   18    7      1.01      0.00
    8   18    7     -0.64      0.00
    9   18    7      0.24      0.00
   10   18    7      2.86      0.00
   11   18    7     -0.50      0.00
   12   18    7      0.31      0.00
  -16   19    7     -1.37      0.00
  -15   19    7     -0.35      0.00
  -14   19    7     -0.51      0.00
  -13   19    7     -0.30      0.00
  -12   19    7      1.27      0.00
  -11   19    7      0.46      0.00
  -10   19    7      0.76      0.00
   -9   19    7     -1.10      0.00
   -8   19    7      1.05      0.00
   -7   19    7     -3.35      0.00
   -6   19    7     -1.16      0.00
   -5   19    7     -0.58      0.00
   -4   19    7      0.63      0.00
   -3   19    7     -0.95      0.00
   -2   19    7      3.73      0.00
   -1   19    7      1.39      0.00
    0   19    7      0.39      0.00
    1   19    7     -0.81      0.00
    2   19    7      1.94      0.00
    3   19    7     -2.63      0.00
    4   19    7      0.33      0.00
    5   19    7     -0.58      0.00
    6   19    7     -0.08      0.00
    7   19    7     -0.70      0.00
    8   19    7     -0.91      0.00
    9   19    7      0.77      0.00
   10   19    7     -2.64      0.00
   11   19    7      1.03      0.00
   12   19    7      1.31      0.00
  -16   20    7     -0.04      0.00
  -15   20    7     -0.61      0.00
  -14   20    7     -0.11      0.00
  -13   20    7      1.71      0.00
  -12   20    7     -1.14      0.00
  -11   20    7     -0.04      0.00
  -10   20    7      1.13      0.00
   -9   20    7     -0.28      0.00
   -8   20    7     -0.74      0.00
   -7   20    7     -2.23      0.00
   -6   20    7     -2.01      0.00
   -5   20    7      0.65      0.00
   -4   20    7     -1.93      0.00
   -3   20    7     -0.25      0.00
   -2   20    7      0.14      0.00
   -1   20    7     -0.77      0.00
    0   20    7     -0.66      0.00
    1   20    7      1.28      0.00
    2   20    7     -0.63      0.00
    3   20    7      0.95      0.00
    4   20    7     -1.03      0.00
    5   20    7      0.60      0.00
    6   20    7      1.97      0.00
    7   20    7     -1.03      0.00
    8   20    7      0.51      0.00
    9   20    7     -1.95      0.00
   10   20    7      0.76      0.00
   11   20    7     -0.97      0.00
  -16   21    7     -1.20      0.00
  -15   21    7     -0.56      0.00
  -14   21    7      0.05      0.00
  -13   21    7     -0.62      0.00
  -12   21    7      0.99      0.00
  -11   21    7      0.19      0.00
  -10   21    7     -0.51      0.00
   -9   21    7     -0.13      0.00
   -8   21    7     -1.49      0.00
   -7   21    7     -2.37      0.00
   -6   21    7      0.03      0.00
   -5   21    7     -2.58      0.00
   -4   21    7      0.70      0.00
   -3   21    7     -0.85      0.00
   -2   21    7      1.40      0.00
   -1   21    7      1.92      0.00
    0   21    7      0.09      0.00
    1   21    7      0.40      0.00
    2   21    7     -0.03      0.00
    3   21    7     -3.14      0.00
    4   21    7     -0.40      0.00
    5   21    7     -0.63      0.00
    6   21    7     -0.61      0.00
    7   21    7      0.84      0.00
    8   21    7     -2.23      0.00
    9   21    7      0.46      0.00
   10   21    7     -0.33      0.00
   11   21    7      1.48      0.00
  -15   22    7     -0.30      0.00
  -14   22    7     -1.14      0.00
  -13   22    7      0.64      0.00
  -12   22    7     -1.96      0.00
  -11   22    7      1.38      0.00
  -10   22    7     -0.71      0.00
   -9   22    7      0.31      0.00
   -8   22    7     -1.08      0.00
   -7   22    7      0.00      0.00
   -6   22    7     -1.69      0.00
   -5   22    7      0.11      0.00
   -4   22    7     -1.35      0.00
   -3   22    7      0.62      0.00
   -2   22    7      1.35      0.00
   -1   22    7     -0.09      0.00
    0   22    7      3.08      0.00
    1   22    7      0.43      0.00
    2   22    7     -1.19      0.00
    3   22    7      1.55      0.00
    4   22    7     -0.61      0.00
    5   22    7     -0.55      0.00
    6   22    7     -1.07      0.00
    7   22    7     -0.50      0.00
    8   22    7      0.90      0.00
    9   22    7     -0.64      0.00
   10   22    7      0.13      0.00
  -15   23    7     -0.62      0.00
  -14   23    7     -0.52      0.00
  -13   23    7     -0.46      0.00
  -12   23    7     -0.06      0.00
  -11   23    7     -0.35      0.00
  -10   23    7     -0.02      0.00
   -9   23    7     -1.30      0.00
   -8   23    7      0.81      0.00
   -7   23    7     -0.32      0.00
   -6   23    7      0.18      0.00
   -5   23    7     -0.46      0.00
   -4   23    7     -0.33      0.00
   -3   23    7     -0.44      0.00
   -2   23    7      0.53      0.00
   -1   23    7      1.60      0.00
    0   23    7     -1.45      0.00
    1   23    7     -1.30      0.00
    2   23    7     -1.82      0.00
    3   23    7     -0.97      0.00
    4   23    7      0.51      0.00
    5   23    7      0.52      0.00
    6   23    7      0.09      0.00
    7   23    7     -0.42      0.00
    8   23    7     -0.92      0.00
    9   23    7      0.00      0.00
   10   23    7     -1.77      0.00
  -14   24    7      0.55      0.00
  -13   24    7      0.03      0.00
  -12   24    7      0.18      0.00
  -11   24    7      0.28      0.00
  -10   24    7     -0.97      0.00
   -9   24    7      0.90      0.00
   -8   24    7     -0.51      0.00
   -7   24    7      0.61      0.00
   -6   24    7     -0.18      0.00
   -5   24    7      1.08      0.00
   -4   24    7     -0.39      0.00
   -3   24    7      0.03      0.00
   -2   24    7      0.18      0.00
   -1   24    7      0.58      0.00
    0   24    7     -0.10      0.00
    1   24    7     -1.54      0.00
    2   24    7      0.25      0.00
    3   24    7      1.88      0.00
    4   24    7     -0.91      0.00
    5   24    7     -1.30      0.00
    6   24    7      1.02      0.00
    7   24    7      0.22      0.00
    8   24    7      0.50      0.00
    9   24    7     -2.08      0.00
  -14   25    7      0.78      0.00
  -13   25    7      1.25      0.00
  -12   25    7      0.39      0.00
  -11   25    7      1.22      0.00
  -10   25    7     -0.27      0.00
   -9   25    7      0.17      0.00
   -8   25    7      0.30      0.00
   -7   25    7      0.44      0.00
   -6   25    7     -0.29      0.00
   -5   25    7      0.61      0.00
   -4   25    7     -0.34      0.00
   -3   25    7      0.18      0.00
   -2   25    7      0.09      0.00
   -1   25    7     -0.24      0.00
    0   25    7     -1.82      0.00
    1   25    7     -1.52      0.00
    2   25    7      0.09      0.00
    3   25    7      0.97      0.00
    4   25    7      1.53      0.00
    5   25    7      1.70      0.00
    6   25    7     -1.25      0.00
    7   25    7     -0.15      0.00
    8   25    7     -0.31      0.00
    9   25    7     -1.17      0.00
  -14   26    7      1.50      0.00
  -13   26    7     -0.77      0.00
  -12   26    7      1.12      0.00
  -11   26    7     -0.27      0.00
  -10   26    7      1.01      0.00
   -9   26    7     -0.44      0.00
   -8   26    7      0.17      0.00
   -7   26    7     -0.57      0.00
   -6   26    7      1.15      0.00
   -5   26    7     -0.74      0.00
   -4   26    7     -0.17      0.00
   -3   26    7      0.03      0.00
   -2   26    7      0.07      0.00
   -1   26    7     -1.34      0.00
    0   26    7     -0.13      0.00
    1   26    7     -0.98      0.00
    2   26    7      0.87      0.00
    3   26    7     -1.08      0.00
    4   26    7     -0.68      0.00
    5   26    7      0.18      0.00
    6   26    7      0.98      0.00
    7   26    7      0.60      0.00
    8   26    7     -1.47      0.00
  -14   27    7      0.67      0.00
  -13   27    7      0.88      0.00
  -12   27    7      1.05      0.00
  -11   27    7      0.77      0.00
  -10   27    7      0.57      0.00
   -9   27    7     -0.99      0.00
   -8   27    7     -0.26      0.00
   -7   27    7      0.22      0.00
   -6   27    7     -0.39      0.00
   -5   27    7      1.00      0.00
   -4   27    7     -0.56      0.00
   -3   27    7      0.06      0.00
   -2   27    7      0.25      0.00
   -1   27    7     -0.02      0.00
    0   27    7     -1.57      0.00
    1   27    7      0.12      0.00
    2   27    7      0.15      0.00
    3   27    7      1.05      0.00
    4   27    7      0.29      0.00
    5   27    7     -0.41      0.00
    6   27    7     -1.07      0.00
    7   27    7     -2.16      0.00
    8   27    7      0.59      0.00
  -13   28    7     -0.20      0.00
  -12   28    7      0.75      0.00
  -11   28    7      1.38      0.00
  -10   28    7      0.00      0.00
   -9   28    7      0.61      0.00
   -8   28    7      0.38      0.00
   -7   28    7     -0.49      0.00
   -6   28    7     -0.14      0.00
   -5   28    7     -1.15      0.00
   -4   28    7      0.45      0.00
   -3   28    7      0.34      0.00
   -2   28    7     -0.60      0.00
   -1   28    7      1.84      0.00
    0   28    7     -0.73      0.00
    1   28    7     -0.34      0.00
    2   28    7     -0.54      0.00
    3   28    7     -1.93      0.00
    4   28    7      0.38      0.00
    5   28    7     -0.11      0.00
    6   28    7     -0.36      0.00
    7   28    7     -0.43      0.00
    8   28    7     -3.34      0.00
  -12   29    7     -0.28      0.00
  -11   29    7     -0.83      0.00
  -10   29    7     -0.27      0.00
   -9   29    7     -1.02      0.00
   -8   29    7      1.59      0.00
   -7   29    7      0.81      0.00
   -6   29    7      0.02      0.00
   -5   29    7     -0.66      0.00
   -4   29    7     -0.83      0.00
   -3   29    7      0.31      0.00
   -2   29    7      1.92      0.00
   -1   29    7     -1.34      0.00
    0   29    7      0.44      0.00
    1   29    7     -0.69      0.00
    2   29    7     -0.25      0.00
    3   29    7      0.32      0.00
    4   29    7     -1.49      0.00
    5   29    7     -0.67      0.00
    6   29    7     -0.60      0.00
    7   29    7     -0.95      0.00
  -12   30    7     -0.11      0.00
  -11   30    7      0.40      0.00
  -10   30    7     -0.56      0.00
   -9   30    7      1.36      0.00
   -8   30    7      0.02      0.00
   -7   30    7     -0.85      0.00
   -6   30    7     -0.03      0.00
   -5   30    7     -0.12      0.00
   -4   30    7     -0.24      0.00
   -3   30    7     -0.44      0.00
   -2   30    7      0.99      0.00
   -1   30    7      0.14      0.00
    0   30    7     -1.65      0.00
    1   30    7     -0.98      0.00
    2   30    7     -0.53      0.00
    3   30    7     -0.54      0.00
    4   30    7     -0.27      0.00
    5   30    7      0.56      0.00
    6   30    7     -0.35      0.00
    7   30    7     -0.93      0.00
  -11   31    7      0.09      0.00
  -10   31    7     -0.34      0.00
   -9   31    7      1.16      0.00
   -8   31    7      1.30      0.00
   -7   31    7      0.07      0.00
   -6   31    7     -1.11      0.00
   -5   31    7     -0.97      0.00
   -4   31    7     -0.19      0.00
   -3   31    7      0.00      0.00
   -2   31    7     -0.62      0.00
   -1   31    7      0.32      0.00
    0   31    7     -1.30      0.00
    1   31    7      0.72      0.00
    2   31    7      0.55      0.00
    3   31    7     -0.31      0.00
    4   31    7      0.31      0.00
    5   31    7     -0.63      0.00
    6   31    7      0.26      0.00
  -11   32    7      0.12      0.00
  -10   32    7     -0.30      0.00
   -9   32    7      0.23      0.00
   -8   32    7     -0.86      0.00
   -7   32    7     -0.75      0.00
   -6   32    7      0.65      0.00
   -5   32    7      0.00      0.00
   -4   32    7     -0.67      0.00
   -3   32    7      0.25      0.00
   -2   32    7      0.84      0.00
   -1   32    7     -0.15      0.00
    0   32    7      0.66      0.00
    1   32    7     -0.46      0.00
    2   32    7      0.33      0.00
    3   32    7      0.20      0.00
    4   32    7     -0.17      0.00
    5   32    7      1.15      0.00
    6   32    7     -1.63      0.00
   -8   33    7     -0.73      0.00
   -7   33    7     -0.78      0.00
   -6   33    7     -1.03      0.00
   -5   33    7     -0.16      0.00
   -4   33    7     -0.74      0.00
   -3   33    7     -0.14      0.00
   -2   33    7      2.10      0.00
   -1   33    7      0.22      0.00
    0   33    7      1.25      0.00
    1   33    7      0.62      0.00
    2   33    7     -0.79      0.00
    3   33    7     -1.42      0.00
    4   33    7      0.51      0.00
    5   33    7     -1.44      0.00
   -7   34    7     -0.85      0.00
   -6   34    7      0.20      0.00
   -5   34    7     -0.64      0.00
   -4   34    7     -1.50      0.00
   -3   34    7      0.33      0.00
   -2   34    7      0.25      0.00
   -1   34    7      1.24      0.00
    0   34    7     -0.31      0.00
    1   34    7     -0.08      0.00
    2   34    7     -0.20      0.00
    3   34    7      0.04      0.00
    4   34    7      0.58      0.00
    5   34    7     -0.05      0.00
   -5   35    7     -1.89      0.00
   -4   35    7     -0.11      0.00
   -3   35    7      0.16      0.00
   -2   35    7     -0.92      0.00
   -1   35    7     -0.15      0.00
    0   35    7      0.19      0.00
    1   35    7      0.17      0.00
    2   35    7     -1.35      0.00
    3   35    7      0.68      0.00
   -3   36    7      0.79      0.00
   -2   36    7     -0.75      0.00
   -1   36    7     -0.75      0.00
    0   36    7      0.31      0.00
    1   36    7      0.31      0.00
    2   36    7      1.38      0.00
    0   37    7      0.20      0.00
  -18    0    8      0.42      0.00
  -16    0    8      0.42      0.00
  -14    0    8      0.90      0.00
  -12    0    8      0.67      0.00
  -10    0    8      1.07      0.00
   -8    0    8     -1.96      0.00
   -6    0    8     -3.41      0.00
   -4    0    8     -0.53      0.00
   -2    0    8      5.33      0.00
    0    0    8     12.06      0.00
    2    0    8     -7.26      0.00
    4    0    8     -9.56      0.00
    6    0    8      2.40      0.00
    8    0    8      1.18      0.00
   10    0    8      2.63      0.00
   12    0    8     -0.70      0.00
  -19    1    8      0.54      0.00
  -18    1    8     -0.45      0.00
  -17    1    8      0.02      0.00
  -16    1    8     -0.57      0.00
  -15    1    8      0.17      0.00
  -14    1    8      0.16      0.00
  -13    1    8      1.03      0.00
  -12    1    8     -0.98      0.00
  -11    1    8      1.24      0.00
  -10    1    8     -0.28      0.00
   -9    1    8      0.39      0.00
   -8    1    8     -1.91      0.00
   -7    1    8     -1.54      0.00
   -6    1    8     -3.56      0.00
   -5    1    8     -6.34      0.00
   -4    1    8      2.84      0.00
   -3    1    8      2.94      0.00
   -2    1    8     -6.33      0.00
   -1    1    8     -3.71      0.00
    0    1    8     -0.21      0.00
    1    1    8     -6.20      0.00
    2    1    8      0.44      0.00
    3    1    8     -1.99      0.00
    4    1    8     -1.44      0.00
    5    1    8     -1.84      0.00
    6    1    8      0.16      0.00
    7    1    8     -0.61      0.00
    8    1    8      2.11      0.00
    9    1    8      2.96      0.00
   10    1    8      0.45      0.00
   11    1    8      0.90      0.00
   12    1    8     -1.11      0.00
  -19    2    8      0.03      0.00
  -18    2    8      0.12      0.00
  -17    2    8     -0.30      0.00
  -16    2    8     -0.81      0.00
  -15    2    8      0.22      0.00
  -14    2    8      0.48      0.00
  -13    2    8      0.26      0.00
  -12    2    8      2.12      0.00
  -11    2    8      0.18      0.00
  -10    2    8      0.63      0.00
   -9    2    8      1.48      0.00
   -8    2    8      1.85      0.00
   -7    2    8      0.66      0.00
   -6    2    8      1.39      0.00
   -5    2    8     -4.08      0.00
   -4    2    8     -3.07      0.00
   -3    2    8     -1.68      0.00
   -2    2    8     -3.26      0.00
   -1    2    8      5.07      0.00
    0    2    8      0.82      0.00
    1    2    8     -6.57      0.00
    2    2    8     -1.58      0.00
    3    2    8     -5.26      0.00
    4    2    8     -3.04      0.00
    5    2    8     -0.64      0.00
    6    2    8      0.49      0.00
    7    2    8     -1.29      0.00
    8    2    8      0.42      0.00
    9    2    8      0.54      0.00
   10    2    8      0.71      0.00
   11    2    8     -0.59      0.00
   12    2    8      0.00      0.00
  -19    3    8     -0.61      0.00
  -18    3    8      0.04      0.00
  -17    3    8      0.03      0.00
  -16    3    8     -1.12      0.00
  -15    3    8      0.57      0.00
  -14    3    8      1.73      0.00
  -13    3    8      1.71      0.00
  -12    3    8      0.33      0.00
  -11    3    8      1.67      0.00
  -10    3    8      1.49      0.00
   -9    3    8     -1.73      0.00
   -8    3    8      2.92      0.00
   -7    3    8      0.94      0.00
   -6    3    8     -4.03      0.00
   -5    3    8      0.98      0.00
   -4    3    8     -2.27      0.00
   -3    3    8     -5.41      0.00
   -2    3    8     -0.85      0.00
   -1    3    8     -2.64      0.00
    0    3    8      8.51      0.00
    1    3    8      1.65      0.00
    2    3    8     10.66      0.00
    3    3    8      3.88      0.00
    4    3    8     -3.63      0.00
    5    3    8     -0.11      0.00
    6    3    8     -0.97      0.00
    7    3    8     -0.20      0.00
    8    3    8      1.15      0.00
    9    3    8     -0.55      0.00
   10    3    8      0.37      0.00
   11    3    8      0.17      0.00
   12    3    8      0.95      0.00
  -19    4    8      0.51      0.00
  -18    4    8     -0.42      0.00
  -17    4    8     -0.70      0.00
  -16    4    8     -0.31      0.00
  -15    4    8      0.20      0.00
  -14    4    8      0.32      0.00
  -13    4    8      1.97      0.00
  -12    4    8      2.88      0.00
  -11    4    8      0.62      0.00
  -10    4    8     -0.33      0.00
   -9    4    8      4.64      0.00
   -8    4    8     -2.59      0.00
   -7    4    8      3.01      0.00
   -6    4    8     -7.80      0.00
   -5    4    8     -2.02      0.00
   -4    4    8     -1.45      0.00
   -3    4    8      3.12      0.00
   -2    4    8     -0.52      0.00
   -1    4    8      8.62      0.00
    0    4    8     -7.79      0.00
    1    4    8      1.47      0.00
    2    4    8      4.71      0.00
    3    4    8     -1.77      0.00
    4    4    8      0.60      0.00
    5    4    8      1.23      0.00
    6    4    8     -0.35      0.00
    7    4    8     -1.05      0.00
    8    4    8     -1.58      0.00
    9    4    8     -0.52      0.00
   10    4    8     -0.84      0.00
   11    4    8     -0.17      0.00
   12    4    8      1.46      0.00
  -19    5    8     -0.88      0.00
  -18    5    8      0.57      0.00
  -17    5    8     -0.69      0.00
  -16    5    8     -0.01      0.00
  -15    5    8      0.60      0.00
  -14    5    8      0.52      0.00
  -13    5    8     -0.20      0.00
  -12    5    8     -0.58      0.00
  -11    5    8      1.25      0.00
  -10    5    8      0.21      0.00
   -9    5    8     -1.59      0.00
   -8    5    8      5.70      0.00
   -7    5    8     -6.18      0.00
   -6    5    8      2.12      0.00
   -5    5    8     -2.74      0.00
   -4    5    8      4.48      0.00
   -3    5    8      1.42      0.00
   -2    5    8      1.23      0.00
   -1    5    8      1.52      0.00
    0    5    8      7.90      0.00
    1    5    8      5.76      0.00
    2    5    8      3.78      0.00
    3    5    8     -1.55      0.00
    4    5    8     -0.41      0.00
    5    5    8      0.85      0.00
    6    5    8      0.26      0.00
    7    5    8     -1.65      0.00
    8    5    8     -0.69      0.00
    9    5    8     -1.31      0.00
   10    5    8     -0.65      0.00
   11    5    8      0.71      0.00
   12    5    8     -1.04      0.00
   13    5    8      0.71      0.00
  -19    6    8     -0.07      0.00
  -18    6    8     -0.16      0.00
  -17    6    8      0.64      0.00
  -16    6    8     -0.73      0.00
  -15    6    8      1.37      0.00
  -14    6    8     -0.44      0.00
  -13    6    8      0.12      0.00
  -12    6    8      0.00      0.00
  -11    6    8     -2.21      0.00
  -10    6    8     -0.48      0.00
   -9    6    8     -0.51      0.00
   -8    6    8     -1.68      0.00
   -7    6    8     -1.59      0.00
   -6    6    8     -2.67      0.00
   -5    6    8      4.83      0.00
   -4    6    8      0.82      0.00
   -3    6    8      2.68      0.00
   -2    6    8     -7.05      0.00
   -1    6    8     -2.02      0.00
    0    6    8    -10.17      0.00
    1    6    8      1.60      0.00
    2    6    8      4.70      0.00
    3    6    8      2.02      0.00
    4    6    8      4.65      0.00
    5    6    8      4.31      0.00
    6    6    8     -1.80      0.00
    7    6    8     -0.81      0.00
    8    6    8     -1.11      0.00
    9    6    8     -0.14      0.00
   10    6    8      0.48      0.00
   11    6    8     -2.48      0.00
   12    6    8      1.31      0.00
   13    6    8     -0.46      0.00
  -19    7    8     -0.53      0.00
  -18    7    8      0.23      0.00
  -17    7    8     -1.31      0.00
  -16    7    8      1.78      0.00
  -15    7    8     -0.07      0.00
  -14    7    8     -1.28      0.00
  -13    7    8     -1.48      0.00
  -12    7    8     -0.85      0.00
  -11    7    8      0.17      0.00
  -10    7    8     -1.86      0.00
   -9    7    8      0.84      0.00
   -8    7    8     -3.08      0.00
   -7    7    8      1.04      0.00
   -6    7    8     -1.05      0.00
   -5    7    8      9.24      0.00
   -4    7    8      3.44      0.00
   -3    7    8     -6.00      0.00
   -2    7    8     -1.91      0.00
   -1    7    8      1.52      0.00
    0    7    8     -3.86      0.00
    1    7    8     -1.31      0.00
    2    7    8     -5.60      0.00
    3    7    8      1.02      0.00
    4    7    8      2.87      0.00
    5    7    8     -0.37      0.00
    6    7    8     -2.32      0.00
    7    7    8     -1.89      0.00
    8    7    8     -1.12      0.00
    9    7    8      0.66      0.00
   10    7    8     -2.06      0.00
   11    7    8     -0.46      0.00
   12    7    8     -1.35      0.00
   13    7    8     -0.88      0.00
   14    7    8      0.65      0.00
  -19    8    8      0.44      0.00
  -18    8    8      0.57      0.00
  -17    8    8     -0.69      0.00
  -16    8    8      0.87      0.00
  -15    8    8      1.31      0.00
  -14    8    8     -0.45      0.00
  -13    8    8     -0.29      0.00
  -12    8    8     -1.52      0.00
  -11    8    8     -1.75      0.00
  -10    8    8     -2.78      0.00
   -9    8    8     -1.34      0.00
   -8    8    8     -1.49      0.00
   -7    8    8     -2.88      0.00
   -6    8    8      6.07      0.00
   -5    8    8     -0.02      0.00
   -4    8    8      6.38      0.00
   -3    8    8     -4.91      0.00
   -2    8    8      0.70      0.00
   -1    8    8     -4.69      0.00
    0    8    8     -0.79      0.00
    1    8    8      3.53      0.00
    2    8    8      6.63      0.00
    3    8    8      3.93      0.00
    4    8    8      1.96      0.00
    5    8    8     -0.25      0.00
    6    8    8     -1.62      0.00
    7    8    8     -0.69      0.00
    8    8    8     -1.26      0.00
    9    8    8      0.14      0.00
   10    8    8     -0.60      0.00
   11    8    8      0.86      0.00
   12    8    8      0.26      0.00
   13    8    8      0.16      0.00
   14    8    8     -0.27      0.00
  -18    9    8     -0.96      0.00
  -17    9    8     -0.23      0.00
  -16    9    8      2.34      0.00
  -15    9    8      0.52      0.00
  -14    9    8      0.23      0.00
  -13    9    8     -0.53      0.00
  -12    9    8      0.41      0.00
  -11    9    8     -1.99      0.00
  -10    9    8     -2.00      0.00
   -9    9    8     -6.12      0.00
   -8    9    8      1.09      0.00
   -7    9    8     -3.13      0.00
   -6    9    8      5.52      0.00
   -5    9    8      6.65      0.00
   -4    9    8     -8.78      0.00
   -3    9    8      2.33      0.00
   -2    9    8     -1.10      0.00
   -1    9    8      2.86      0.00
    0    9    8     -9.32      0.00
    1    9    8     -1.70      0.00
    2    9    8     -1.42      0.00
    3    9    8     -0.79      0.00
    4    9    8      1.01      0.00
    5    9    8     -1.58      0.00
    6    9    8     -0.91      0.00
    7    9    8     -1.83      0.00
    8    9    8      0.10      0.00
    9    9    8     -0.55      0.00
   10    9    8      0.19      0.00
   11    9    8      1.76      0.00
   12    9    8      1.24      0.00
   13    9    8      0.34      0.00
  -18   10    8     -1.33      0.00
  -17   10    8     -1.19      0.00
  -16   10    8      1.46      0.00
  -15   10    8      0.16      0.00
  -14   10    8      0.11      0.00
  -13   10    8      0.58      0.00
  -12   10    8     -2.64      0.00
  -11   10    8     -3.67      0.00
  -10   10    8     -1.70      0.00
   -9   10    8      1.11      0.00
   -8   10    8     -4.80      0.00
   -7   10    8      5.12      0.00
   -6   10    8     -0.50      0.00
   -5   10    8      3.30      0.00
   -4   10    8      5.05      0.00
   -3   10    8     -5.91      0.00
   -2   10    8      9.83      0.00
   -1   10    8     -8.69      0.00
    0   10    8      7.39      0.00
    1   10    8      5.66      0.00
    2   10    8     -1.72      0.00
    3   10    8     -1.24      0.00
    4   10    8     -4.57      0.00
    5   10    8      0.49      0.00
    6   10    8     -1.35      0.00
    7   10    8     -1.91      0.00
    8   10    8     -0.90      0.00
    9   10    8     -0.35      0.00
   10   10    8      1.87      0.00
   11   10    8      2.52      0.00
   12   10    8      0.93      0.00
   13   10    8     -0.35      0.00
  -18   11    8     -1.15      0.00
  -17   11    8      1.07      0.00
  -16   11    8     -0.27      0.00
  -15   11    8     -0.23      0.00
  -14   11    8      0.41      0.00
  -13   11    8     -1.52      0.00
  -12   11    8     -0.68      0.00
  -11   11    8     -1.84      0.00
  -10   11    8     -4.77      0.00
   -9   11    8      0.63      0.00
   -8   11    8      2.24      0.00
   -7   11    8     -1.25      0.00
   -6   11    8      5.55      0.00
   -5   11    8     -5.36      0.00
   -4   11    8     -5.01      0.00
   -3   11    8      6.53      0.00
   -2   11    8     -4.74      0.00
   -1   11    8      3.22      0.00
    0   11    8     -4.21      0.00
    1   11    8      1.84      0.00
    2   11    8      2.08      0.00
    3   11    8     -1.98      0.00
    4   11    8      5.09      0.00
    5   11    8     -0.53      0.00
    6   11    8      0.33      0.00
    7   11    8      1.17      0.00
    8   11    8     -0.44      0.00
    9   11    8      1.50      0.00
   10   11    8      1.00      0.00
   11   11    8      1.24      0.00
   12   11    8      0.06      0.00
   13   11    8      0.46      0.00
  -18   12    8     -1.28      0.00
  -17   12    8     -0.48      0.00
  -16   12    8      0.02      0.00
  -15   12    8     -1.44      0.00
  -14   12    8      0.53      0.00
  -13   12    8     -0.81      0.00
  -12   12    8     -2.31      0.00
  -11   12    8     -2.68      0.00
  -10   12    8      4.04      0.00
   -9   12    8     -3.92      0.00
   -8   12    8      2.69      0.00
   -7   12    8     -2.98      0.00
   -6   12    8      1.39      0.00
   -5   12    8      0.99      0.00
   -4   12    8      0.58      0.00
   -3   12    8     -2.47      0.00
   -2   12    8      4.31      0.00
   -1   12    8     -5.62      0.00
    0   12    8      8.81      0.00
    1   12    8     -2.54      0.00
    2   12    8     -5.11      0.00
    3   12    8     -2.15      0.00
    4   12    8     -1.14      0.00
    5   12    8      1.49      0.00
    6   12    8      0.61      0.00
    7   12    8     -1.84      0.00
    8   12    8      3.08      0.00
    9   12    8     -0.34      0.00
   10   12    8      0.59      0.00
   11   12    8      0.62      0.00
   12   12    8     -0.64      0.00
   13   12    8     -0.39      0.00
  -18   13    8     -0.04      0.00
  -17   13    8     -0.65      0.00
  -16   13    8     -1.08      0.00
  -15   13    8     -0.34      0.00
  -14   13    8     -0.50      0.00
  -13   13    8      0.75      0.00
  -12   13    8     -1.76      0.00
  -11   13    8      0.07      0.00
  -10   13    8     -3.06      0.00
   -9   13    8      5.16      0.00
   -8   13    8     -4.80      0.00
   -7   13    8      2.45      0.00
   -6   13    8     -4.57      0.00
   -5   13    8     -0.72      0.00
   -4   13    8     -0.76      0.00
   -3   13    8      5.96      0.00
   -2   13    8     -0.33      0.00
   -1   13    8      4.08      0.00
    0   13    8     -1.39      0.00
    1   13    8      3.29      0.00
    2   13    8      0.27      0.00
    3   13    8      2.33      0.00
    4   13    8      1.67      0.00
    5   13    8     -1.65      0.00
    6   13    8      0.66      0.00
    7   13    8      4.42      0.00
    8   13    8     -0.44      0.00
    9   13    8      0.70      0.00
   10   13    8      1.86      0.00
   11   13    8     -1.29      0.00
   12   13    8      1.28      0.00
   13   13    8      0.51      0.00
  -17   14    8      0.53      0.00
  -16   14    8     -1.68      0.00
  -15   14    8      1.55      0.00
  -14   14    8      0.86      0.00
  -13   14    8     -1.49      0.00
  -12   14    8      0.97      0.00
  -11   14    8     -0.42      0.00
  -10   14    8     -0.09      0.00
   -9   14    8      0.24      0.00
   -8   14    8     -1.84      0.00
   -7   14    8     -2.03      0.00
   -6   14    8      3.94      0.00
   -5   14    8     -3.40      0.00
   -4   14    8      0.71      0.00
   -3   14    8     -3.93      0.00
   -2   14    8      0.87      0.00
   -1   14    8     -2.09      0.00
    0   14    8      1.09      0.00
    1   14    8     -4.06      0.00
    2   14    8     -2.16      0.00
    3   14    8     -0.47      0.00
    4   14    8     -1.49      0.00
    5   14    8      1.14      0.00
    6   14    8      1.25      0.00
    7   14    8     -0.26      0.00
    8   14    8      2.96      0.00
    9   14    8      0.87      0.00
   10   14    8     -1.15      0.00
   11   14    8      1.32      0.00
   12   14    8      0.91      0.00
  -17   15    8     -1.12      0.00
  -16   15    8      0.16      0.00
  -15   15    8     -1.96      0.00
  -14   15    8      0.14      0.00
  -13   15    8      1.79      0.00
  -12   15    8     -2.24      0.00
  -11   15    8      0.07      0.00
  -10   15    8      2.03      0.00
   -9   15    8     -1.43      0.00
   -8   15    8      1.92      0.00
   -7   15    8      0.33      0.00
   -6   15    8     -0.47      0.00
   -5   15    8      2.11      0.00
   -4   15    8     -3.25      0.00
   -3   15    8      6.27      0.00
   -2   15    8     -3.73      0.00
   -1   15    8     -0.64      0.00
    0   15    8     -0.52      0.00
    1   15    8      1.69      0.00
    2   15    8      0.39      0.00
    3   15    8      0.11      0.00
    4   15    8      0.04      0.00
    5   15    8     -1.14      0.00
    6   15    8      1.37      0.00
    7   15    8      1.91      0.00
    8   15    8     -1.89      0.00
    9   15    8      0.14      0.00
   10   15    8     -0.37      0.00
   11   15    8      0.33      0.00
   12   15    8     -0.09      0.00
  -17   16    8      0.17      0.00
  -16   16    8     -0.92      0.00
  -15   16    8      1.20      0.00
  -14   16    8     -1.07      0.00
  -13   16    8     -1.42      0.00
  -12   16    8      1.60      0.00
  -11   16    8     -0.54      0.00
  -10   16    8     -0.51      0.00
   -9   16    8      3.05      0.00
   -8   16    8     -3.92      0.00
   -7   16    8      6.96      0.00
   -6   16    8     -0.24      0.00
   -5   16    8     -2.85      0.00
   -4   16    8     -0.26      0.00
   -3   16    8     -4.00      0.00
   -2   16    8      0.07      0.00
   -1   16    8     -0.36      0.00
    0   16    8      1.29      0.00
    1   16    8      0.06      0.00
    2   16    8      0.65      0.00
    3   16    8      2.75      0.00
    4   16    8      1.71      0.00
    5   16    8      4.14      0.00
    6   16    8      1.82      0.00
    7   16    8     -0.06      0.00
    8   16    8      1.15      0.00
    9   16    8     -1.20      0.00
   10   16    8     -0.89      0.00
   11   16    8     -0.09      0.00
  -17   17    8     -0.29      0.00
  -16   17    8     -0.30      0.00
  -15   17    8     -0.38      0.00
  -14   17    8      0.68      0.00
  -13   17    8      0.48      0.00
  -12   17    8     -1.18      0.00
  -11   17    8      0.85      0.00
  -10   17    8      0.44      0.00
   -9   17    8     -0.70      0.00
   -8   17    8      3.28      0.00
   -7   17    8     -0.74      0.00
   -6   17    8      1.94      0.00
   -5   17    8     -1.50      0.00
   -4   17    8      0.91      0.00
   -3   17    8      0.61      0.00
   -2   17    8     -4.72      0.00
   -1   17    8     -0.67      0.00
    0   17    8      1.64      0.00
    1   17    8     -1.33      0.00
    2   17    8     -1.07      0.00
    3   17    8      1.31      0.00
    4   17    8     -0.22      0.00
    5   17    8      0.73      0.00
    6   17    8     -0.44      0.00
    7   17    8      0.82      0.00
    8   17    8     -0.15      0.00
    9   17    8     -0.23      0.00
   10   17    8      0.80      0.00
   11   17    8      0.29      0.00
  -16   18    8      0.97      0.00
  -15   18    8     -0.10      0.00
  -14   18    8     -0.52      0.00
  -13   18    8     -0.69      0.00
  -12   18    8      0.74      0.00
  -11   18    8     -1.65      0.00
  -10   18    8      1.51      0.00
   -9   18    8     -1.28      0.00
   -8   18    8      2.11      0.00
   -7   18    8      3.99      0.00
   -6   18    8     -1.32      0.00
   -5   18    8      1.13      0.00
   -4   18    8      0.08      0.00
   -3   18    8      0.70      0.00
   -2   18    8      0.20      0.00
   -1   18    8      2.79      0.00
    0   18    8     -0.32      0.00
    1   18    8     -0.46      0.00
    2   18    8      0.82      0.00
    3   18    8      0.75      0.00
    4   18    8      2.28      0.00
    5   18    8     -0.54      0.00
    6   18    8     -0.24      0.00
    7   18    8      0.15      0.00
    8   18    8      0.29      0.00
    9   18    8      0.86      0.00
   10   18    8      0.02      0.00
   11   18    8      0.97      0.00
  -16   19    8      0.75      0.00
  -15   19    8      1.47      0.00
  -14   19    8      0.52      0.00
  -13   19    8     -0.68      0.00
  -12   19    8     -0.38      0.00
  -11   19    8     -0.43      0.00
  -10   19    8     -0.26      0.00
   -9   19    8      0.53      0.00
   -8   19    8      0.93      0.00
   -7   19    8      0.57      0.00
   -6   19    8      1.81      0.00
   -5   19    8      0.79      0.00
   -4   19    8      2.54      0.00
   -3   19    8     -3.21      0.00
   -2   19    8     -1.04      0.00
   -1   19    8     -0.95      0.00
    0   19    8     -0.89      0.00
    1   19    8     -3.29      0.00
    2   19    8      2.15      0.00
    3   19    8      0.02      0.00
    4   19    8     -0.55      0.00
    5   19    8      0.34      0.00
    6   19    8      1.40      0.00
    7   19    8     -0.25      0.00
    8   19    8      1.13      0.00
    9   19    8      0.82      0.00
   10   19    8     -0.19      0.00
  -16   20    8      0.45      0.00
  -15   20    8     -0.95      0.00
  -14   20    8     -0.03      0.00
  -13   20    8      0.63      0.00
  -12   20    8      0.02      0.00
  -11   20    8     -0.08      0.00
  -10   20    8      0.74      0.00
   -9   20    8      0.47      0.00
   -8   20    8      1.65      0.00
   -7   20    8      0.80      0.00
   -6   20    8      0.75      0.00
   -5   20    8      1.24      0.00
   -4   20    8      0.51      0.00
   -3   20    8      0.86      0.00
   -2   20    8     -1.53      0.00
   -1   20    8     -1.02      0.00
    0   20    8     -2.25      0.00
    1   20    8      0.91      0.00
    2   20    8     -0.58      0.00
    3   20    8      1.38      0.00
    4   20    8     -0.02      0.00
    5   20    8      0.50      0.00
    6   20    8      0.08      0.00
    7   20    8      0.81      0.00
   10   20    8      1.66      0.00
  -15   21    8      1.26      0.00
  -14   21    8      0.37      0.00
  -13   21    8     -0.62      0.00
  -12   21    8      0.18      0.00
  -11   21    8      0.31      0.00
  -10   21    8      1.27      0.00
   -9   21    8     -0.36      0.00
   -8   21    8      0.43      0.00
   -7   21    8      0.85      0.00
   -6   21    8      1.47      0.00
   -5   21    8      0.05      0.00
   -4   21    8      1.62      0.00
   -3   21    8     -1.97      0.00
   -2   21    8     -0.39      0.00
   -1   21    8     -1.25      0.00
    0   21    8     -0.05      0.00
    1   21    8      1.08      0.00
    2   21    8      3.32      0.00
    3   21    8     -1.62      0.00
    4   21    8      1.70      0.00
    5   21    8      1.20      0.00
    6   21    8     -0.35      0.00
    7   21    8      0.29      0.00
   10   21    8     -1.43      0.00
  -15   22    8      0.43      0.00
  -14   22    8     -0.07      0.00
  -13   22    8      1.83      0.00
  -12   22    8     -1.03      0.00
  -11   22    8      0.49      0.00
  -10   22    8      0.30      0.00
   -9   22    8     -0.31      0.00
   -8   22    8     -0.72      0.00
   -7   22    8      0.19      0.00
   -6   22    8     -1.21      0.00
   -5   22    8      1.40      0.00
   -4   22    8     -0.62      0.00
   -3   22    8      0.18      0.00
   -2   22    8     -0.79      0.00
   -1   22    8     -0.47      0.00
    0   22    8      0.88      0.00
    1   22    8      1.44      0.00
    2   22    8     -2.08      0.00
    3   22    8     -0.22      0.00
    4   22    8     -0.97      0.00
    5   22    8      0.12      0.00
    6   22    8      0.34      0.00
    7   22    8     -1.20      0.00
    8   22    8      1.87      0.00
    9   22    8      1.17      0.00
   10   22    8      3.23      0.00
  -14   23    8     -0.18      0.00
  -13   23    8     -1.28      0.00
  -12   23    8     -0.15      0.00
  -11   23    8      0.54      0.00
  -10   23    8      0.05      0.00
   -9   23    8     -0.70      0.00
   -8   23    8      0.34      0.00
   -7   23    8     -0.36      0.00
   -6   23    8     -0.09      0.00
   -5   23    8     -0.19      0.00
   -4   23    8      1.54      0.00
   -3   23    8     -0.94      0.00
   -2   23    8     -0.61      0.00
   -1   23    8      2.43      0.00
    0   23    8      0.67      0.00
    1   23    8      1.36      0.00
    2   23    8     -0.04      0.00
    3   23    8     -1.10      0.00
    4   23    8     -0.54      0.00
    5   23    8     -1.66      0.00
    6   23    8     -1.22      0.00
    7   23    8      1.64      0.00
    8   23    8      0.63      0.00
    9   23    8      1.97      0.00
  -14   24    8     -1.09      0.00
  -13   24    8      0.33      0.00
  -12   24    8     -1.98      0.00
  -11   24    8      0.45      0.00
  -10   24    8     -1.19      0.00
   -9   24    8      0.96      0.00
   -8   24    8     -0.64      0.00
   -7   24    8      0.62      0.00
   -6   24    8     -1.05      0.00
   -5   24    8      0.69      0.00
   -4   24    8     -0.77      0.00
   -3   24    8      0.20      0.00
   -2   24    8      1.36      0.00
   -1   24    8     -0.55      0.00
    0   24    8      1.27      0.00
    1   24    8     -0.94      0.00
    2   24    8     -1.56      0.00
    3   24    8      0.70      0.00
    4   24    8      0.28      0.00
    5   24    8      0.68      0.00
    6   24    8     -0.84      0.00
    7   24    8     -0.17      0.00
    8   24    8      1.30      0.00
    9   24    8     -0.69      0.00
  -14   25    8     -0.33      0.00
  -13   25    8     -0.99      0.00
  -12   25    8     -0.64      0.00
  -11   25    8     -1.03      0.00
  -10   25    8      0.31      0.00
   -9   25    8     -0.90      0.00
   -8   25    8      1.34      0.00
   -7   25    8     -0.15      0.00
   -6   25    8      0.38      0.00
   -5   25    8      0.81      0.00
   -4   25    8     -1.05      0.00
   -3   25    8     -0.85      0.00
   -2   25    8      0.13      0.00
   -1   25    8      1.44      0.00
    0   25    8      0.05      0.00
    1   25    8      0.69      0.00
    2   25    8      0.46      0.00
    3   25    8     -0.78      0.00
    4   25    8     -0.79      0.00
    5   25    8      0.34      0.00
    6   25    8      1.60      0.00
    7   25    8      1.91      0.00
    8   25    8     -0.48      0.00
  -14   26    8      0.43      0.00
  -13   26    8     -0.91      0.00
  -12   26    8      0.05      0.00
  -11   26    8     -0.22      0.00
  -10   26    8     -0.37      0.00
   -9   26    8      0.72      0.00
   -8   26    8     -0.22      0.00
   -7   26    8      0.02      0.00
   -6   26    8      0.55      0.00
   -5   26    8      0.01      0.00
   -4   26    8      0.28      0.00
   -3   26    8      0.06      0.00
   -2   26    8     -0.18      0.00
   -1   26    8     -0.37      0.00
    0   26    8      0.23      0.00
    1   26    8      0.36      0.00
    2   26    8      1.09      0.00
    3   26    8      1.60      0.00
    4   26    8      1.74      0.00
    5   26    8     -1.05      0.00
    6   26    8      0.65      0.00
    7   26    8      0.85      0.00
    8   26    8      0.73      0.00
  -14   27    8     -0.39      0.00
  -13   27    8     -0.01      0.00
  -12   27    8     -0.49      0.00
  -11   27    8      0.56      0.00
  -10   27    8      0.00      0.00
   -9   27    8     -0.48      0.00
   -8   27    8      0.37      0.00
   -7   27    8      0.17      0.00
   -6   27    8     -0.57      0.00
   -5   27    8     -0.29      0.00
   -4   27    8     -0.60      0.00
   -3   27    8     -0.67      0.00
   -2   27    8     -0.72      0.00
   -1   27    8      1.00      0.00
    0   27    8      1.25      0.00
    1   27    8      0.26      0.00
    2   27    8     -0.29      0.00
    3   27    8      0.30      0.00
    4   27    8      0.58      0.00
    5   27    8      2.04      0.00
    6   27    8      1.00      0.00
    7   27    8      0.90      0.00
  -13   28    8     -0.25      0.00
  -12   28    8      1.24      0.00
  -11   28    8     -0.86      0.00
  -10   28    8     -0.30      0.00
   -9   28    8     -1.42      0.00
   -8   28    8     -0.23      0.00
   -7   28    8      0.06      0.00
   -6   28    8      0.77      0.00
   -5   28    8      0.58      0.00
   -4   28    8      0.22      0.00
   -3   28    8     -0.35      0.00
   -2   28    8     -0.03      0.00
   -1   28    8     -1.13      0.00
    0   28    8      1.21      0.00
    1   28    8      0.47      0.00
    2   28    8      0.73      0.00
    3   28    8      0.80      0.00
    4   28    8      0.43      0.00
    5   28    8     -1.25      0.00
    6   28    8      0.57      0.00
    7   28    8      2.04      0.00
  -12   29    8      0.34      0.00
  -11   29    8      0.46      0.00
  -10   29    8     -0.43      0.00
   -9   29    8     -0.79      0.00
   -8   29    8     -0.20      0.00
   -7   29    8     -0.98      0.00
   -6   29    8     -0.17      0.00
   -5   29    8      0.99      0.00
   -4   29    8      0.66      0.00
   -3   29    8     -0.32      0.00
   -2   29    8      0.59      0.00
   -1   29    8      1.52      0.00
    0   29    8     -0.37      0.00
    1   29    8     -1.43      0.00
    2   29    8     -1.25      0.00
    3   29    8      0.80      0.00
    4   29    8     -0.05      0.00
    5   29    8      0.15      0.00
    6   29    8      1.30      0.00
  -12   30    8     -1.31      0.00
  -11   30    8     -0.64      0.00
  -10   30    8     -1.19      0.00
   -9   30    8      0.32      0.00
   -8   30    8      1.03      0.00
   -7   30    8      0.07      0.00
   -6   30    8      0.31      0.00
   -5   30    8     -0.12      0.00
   -4   30    8      0.58      0.00
   -3   30    8      0.08      0.00
   -2   30    8     -1.94      0.00
   -1   30    8      0.75      0.00
    0   30    8      0.16      0.00
    1   30    8     -0.08      0.00
    2   30    8      0.54      0.00
    3   30    8     -0.52      0.00
    4   30    8     -0.94      0.00
    5   30    8      0.30      0.00
    6   30    8      1.08      0.00
  -11   31    8     -0.33      0.00
  -10   31    8      0.26      0.00
   -9   31    8     -0.24      0.00
   -8   31    8     -0.40      0.00
   -7   31    8      0.68      0.00
   -6   31    8      0.69      0.00
   -5   31    8      1.24      0.00
   -4   31    8     -0.17      0.00
   -3   31    8     -0.54      0.00
   -2   31    8      0.29      0.00
   -1   31    8     -1.55      0.00
    0   31    8     -0.77      0.00
    1   31    8     -0.77      0.00
    2   31    8      0.95      0.00
    3   31    8      1.03      0.00
    4   31    8     -0.54      0.00
    5   31    8      1.22      0.00
   -9   32    8      1.98      0.00
   -8   32    8      1.01      0.00
   -7   32    8     -0.85      0.00
   -6   32    8     -0.07      0.00
   -5   32    8      0.78      0.00
   -4   32    8      0.26      0.00
   -3   32    8     -1.51      0.00
   -2   32    8     -0.32      0.00
   -1   32    8      0.24      0.00
    0   32    8     -0.21      0.00
    1   32    8      0.63      0.00
    2   32    8      0.73      0.00
    3   32    8     -0.80      0.00
    4   32    8     -0.10      0.00
    5   32    8      1.05      0.00
   -7   33    8      1.06      0.00
   -6   33    8      0.72      0.00
   -5   33    8      0.35      0.00
   -4   33    8     -0.04      0.00
   -3   33    8      0.11      0.00
   -2   33    8      0.23      0.00
   -1   33    8      0.20      0.00
    0   33    8     -1.10      0.00
    1   33    8      0.63      0.00
    2   33    8      0.72      0.00
    3   33    8     -0.77      0.00
    4   33    8      0.25      0.00
   -6   34    8      0.88      0.00
   -5   34    8      0.70      0.00
   -4   34    8     -0.43      0.00
   -3   34    8      1.09      0.00
   -2   34    8      0.93      0.00
   -1   34    8     -0.10      0.00
    0   34    8     -0.06      0.00
    1   34    8     -0.68      0.00
    2   34    8     -1.19      0.00
    3   34    8     -0.73      0.00
    4   34    8     -0.27      0.00
   -4   35    8     -0.23      0.00
   -3   35    8      0.93      0.00
   -2   35    8      1.03      0.00
   -1   35    8     -1.37      0.00
    0   35    8     -0.37      0.00
    1   35    8     -0.10      0.00
    2   35    8      0.04      0.00
    3   35    8     -0.20      0.00
    0   36    8     -0.75      0.00
    1   36    8     -0.66      0.00
    0   37    8     -0.05      0.00
  -19    0    9     -0.27      0.00
  -17    0    9      1.10      0.00
  -15    0    9      0.21      0.00
  -13    0    9     -1.43      0.00
  -11    0    9     -0.54      0.00
   -9    0    9      0.91      0.00
   -7    0    9     -2.74      0.00
   -5    0    9     -0.24      0.00
   -3    0    9      6.96      0.00
   -1    0    9     -5.85      0.00
    1    0    9     -0.93      0.00
    3    0    9      5.75      0.00
    5    0    9      2.03      0.00
    7    0    9     -0.62      0.00
    9    0    9     -2.02      0.00
   11    0    9      0.65      0.00
  -19    1    9     -0.24      0.00
  -18    1    9     -0.29      0.00
  -17    1    9      0.21      0.00
  -16    1    9      0.68      0.00
  -15    1    9     -0.31      0.00
  -14    1    9     -2.14      0.00
  -13    1    9     -1.33      0.00
  -12    1    9     -0.87      0.00
  -11    1    9     -0.22      0.00
  -10    1    9     -1.27      0.00
   -9    1    9     -1.01      0.00
   -8    1    9     -1.09      0.00
   -7    1    9      1.64      0.00
   -6    1    9      7.91      0.00
   -5    1    9     -0.83      0.00
   -4    1    9      1.31      0.00
   -3    1    9      2.57      0.00
   -2    1    9      3.89      0.00
   -1    1    9      1.15      0.00
    0    1    9      4.33      0.00
    1    1    9     -8.22      0.00
    2    1    9      0.03      0.00
    3    1    9     -3.51      0.00
    4    1    9      2.42      0.00
    5    1    9      0.06      0.00
    6    1    9      0.19      0.00
    7    1    9      0.82      0.00
    8    1    9     -1.41      0.00
    9    1    9      0.99      0.00
   10    1    9     -1.01      0.00
   11    1    9     -1.18      0.00
   12    1    9      1.39      0.00
  -19    2    9     -0.73      0.00
  -18    2    9     -0.41      0.00
  -17    2    9      0.09      0.00
  -16    2    9      0.31      0.00
  -15    2    9     -0.86      0.00
  -14    2    9     -0.77      0.00
  -13    2    9     -2.25      0.00
  -12    2    9     -1.20      0.00
  -11    2    9     -0.96      0.00
  -10    2    9     -0.18      0.00
   -9    2    9     -1.55      0.00
   -8    2    9     -4.66      0.00
   -7    2    9      1.49      0.00
   -6    2    9      0.60      0.00
   -5    2    9      3.75      0.00
   -4    2    9      2.59      0.00
   -3    2    9     -1.63      0.00
   -2    2    9     -4.05      0.00
   -1    2    9     -5.73      0.00
    0    2    9      0.79      0.00
    1    2    9     -3.12      0.00
    2    2    9     -0.37      0.00
    3    2    9      5.14      0.00
    4    2    9      0.51      0.00
    5    2    9      1.20      0.00
    6    2    9      0.94      0.00
    7    2    9      0.75      0.00
    8    2    9      1.40      0.00
    9    2    9     -1.06      0.00
   10    2    9      0.95      0.00
   11    2    9     -1.34      0.00
   12    2    9     -1.93      0.00
  -19    3    9     -0.01      0.00
  -18    3    9     -0.43      0.00
  -17    3    9     -0.18      0.00
  -16    3    9     -0.81      0.00
  -15    3    9     -0.70      0.00
  -14    3    9     -1.27      0.00
  -13    3    9      0.81      0.00
  -12    3    9     -0.45      0.00
  -11    3    9      0.65      0.00
  -10    3    9     -1.39      0.00
   -9    3    9      0.90      0.00
   -8    3    9      0.37      0.00
   -7    3    9      5.96      0.00
   -6    3    9      0.19      0.00
   -5    3    9     -4.49      0.00
   -4    3    9     -2.44      0.00
   -3    3    9      0.31      0.00
   -2    3    9      0.29      0.00
   -1    3    9     -1.92      0.00
    0    3    9     -4.18      0.00
    1    3    9     -9.76      0.00
    2    3    9     -1.03      0.00
    3    3    9     -2.22      0.00
    4    3    9     -1.22      0.00
    5    3    9     -0.95      0.00
    6    3    9      1.46      0.00
    7    3    9      0.88      0.00
    8    3    9      0.91      0.00
    9    3    9      0.35      0.00
   10    3    9     -0.39      0.00
   11    3    9      0.44      0.00
   12    3    9     -0.75      0.00
  -19    4    9      0.21      0.00
  -18    4    9      0.44      0.00
  -17    4    9      0.05      0.00
  -16    4    9      0.18      0.00
  -15    4    9      0.06      0.00
  -14    4    9     -0.16      0.00
  -13    4    9     -1.69      0.00
  -12    4    9      1.27      0.00
  -11    4    9      0.22      0.00
  -10    4    9      0.25      0.00
   -9    4    9     -0.83      0.00
   -8    4    9      0.93      0.00
   -7    4    9      2.87      0.00
   -6    4    9      2.13      0.00
   -5    4    9     -0.91      0.00
   -4    4    9     -3.10      0.00
   -3    4    9      2.52      0.00
   -2    4    9     -3.58      0.00
   -1    4    9      7.96      0.00
    0    4    9      2.13      0.00
    1    4    9      2.71      0.00
    2    4    9      2.91      0.00
    3    4    9     -4.09      0.00
    4    4    9     -1.23      0.00
    5    4    9     -1.55      0.00
    6    4    9      1.19      0.00
    7    4    9      1.54      0.00
    8    4    9     -0.04      0.00
    9    4    9      0.91      0.00
   10    4    9      1.51      0.00
   11    4    9      0.31      0.00
   12    4    9      1.15      0.00
  -19    5    9     -0.07      0.00
  -18    5    9      0.14      0.00
  -17    5    9      0.91      0.00
  -16    5    9     -1.20      0.00
  -15    5    9      0.13      0.00
  -14    5    9      2.05      0.00
  -13    5    9      1.24      0.00
  -12    5    9     -0.51      0.00
  -11    5    9     -0.81      0.00
  -10    5    9      2.97      0.00
   -9    5    9     -1.05      0.00
   -8    5    9      3.14      0.00
   -7    5    9     -1.32      0.00
   -6    5    9     -6.91      0.00
   -5    5    9     -4.54      0.00
   -4    5    9     -0.09      0.00
   -3    5    9      4.58      0.00
   -2    5    9      2.50      0.00
   -1    5    9     -2.79      0.00
    0    5    9      0.55      0.00
    1    5    9     -1.47      0.00
    2    5    9     -1.58      0.00
    3    5    9     -1.95      0.00
    4    5    9     -2.66      0.00
    5    5    9      2.34      0.00
    6    5    9      2.47      0.00
    7    5    9      1.30      0.00
    8    5    9      0.45      0.00
    9    5    9     -0.15      0.00
   10    5    9      1.76      0.00
   11    5    9      0.72      0.00
   12    5    9      0.18      0.00
  -19    6    9      0.11      0.00
  -18    6    9      0.38      0.00
  -17    6    9     -0.54      0.00
  -16    6    9     -0.93      0.00
  -15    6    9     -0.19      0.00
  -14    6    9     -1.26      0.00
  -13    6    9      0.27      0.00
  -12    6    9      2.32      0.00
  -11    6    9      1.37      0.00
  -10    6    9      0.09      0.00
   -9    6    9      4.70      0.00
   -8    6    9     -0.84      0.00
   -7    6    9      4.66      0.00
   -6    6    9     -5.49      0.00
   -5    6    9     -1.65      0.00
   -4    6    9      1.18      0.00
   -3    6    9      1.51      0.00
   -2    6    9     -0.92      0.00
   -1    6    9     12.26      0.00
    0    6    9     -0.09      0.00
    1    6    9      0.31      0.00
    2    6    9     -4.65      0.00
    3    6    9     -5.28      0.00
    4    6    9     -1.97      0.00
    5    6    9     -0.70      0.00
    6    6    9      0.19      0.00
    7    6    9      0.54      0.00
    8    6    9     -0.50      0.00
    9    6    9      1.76      0.00
   10    6    9      0.91      0.00
   11    6    9     -1.57      0.00
   12    6    9      0.91      0.00
  -18    7    9      1.51      0.00
  -17    7    9     -0.89      0.00
  -16    7    9     -1.19      0.00
  -15    7    9      0.28      0.00
  -14    7    9      0.93      0.00
  -13    7    9      0.72      0.00
  -12    7    9     -0.87      0.00
  -11    7    9      3.28      0.00
  -10    7    9      3.29      0.00
   -9    7    9     -0.89      0.00
   -8    7    9      4.60      0.00
   -7    7    9     -6.51      0.00
   -6    7    9     -1.78      0.00
   -5    7    9     -2.89      0.00
   -4    7    9      4.39      0.00
   -3    7    9     -0.63      0.00
   -2    7    9     -1.86      0.00
   -1    7    9     -0.37      0.00
    0    7    9      2.54      0.00
    1    7    9      1.95      0.00
    2    7    9      0.12      0.00
    3    7    9      1.74      0.00
    4    7    9      1.72      0.00
    5    7    9      0.88      0.00
    6    7    9      0.86      0.00
    7    7    9      0.81      0.00
    8    7    9      0.17      0.00
    9    7    9      1.06      0.00
   10    7    9     -1.65      0.00
   11    7    9     -0.26      0.00
   12    7    9     -0.22      0.00
   13    7    9     -0.41      0.00
  -18    8    9      0.98      0.00
  -17    8    9      0.23      0.00
  -16    8    9     -1.88      0.00
  -15    8    9     -0.43      0.00
  -14    8    9     -0.65      0.00
  -13    8    9      2.51      0.00
  -12    8    9      3.46      0.00
  -11    8    9      1.98      0.00
  -10    8    9      2.79      0.00
   -9    8    9      1.17      0.00
   -8    8    9      1.21      0.00
   -7    8    9     -1.40      0.00
   -6    8    9     -3.38      0.00
   -5    8    9     -1.12      0.00
   -4    8    9     -2.48      0.00
   -3    8    9     -2.89      0.00
   -2    8    9      2.41      0.00
   -1    8    9      3.45      0.00
    0    8    9     -6.47      0.00
    1    8    9     -5.43      0.00
    2    8    9     -0.84      0.00
    3    8    9      1.06      0.00
    4    8    9     -1.74      0.00
    5    8    9     -0.46      0.00
    6    8    9      1.47      0.00
    7    8    9      1.33      0.00
    8    8    9      1.22      0.00
    9    8    9      0.10      0.00
   10    8    9     -1.89      0.00
   11    8    9     -2.97      0.00
   12    8    9     -0.44      0.00
   13    8    9     -0.25      0.00
  -18    9    9      1.10      0.00
  -17    9    9     -1.74      0.00
  -16    9    9      0.82      0.00
  -15    9    9      0.02      0.00
  -14    9    9     -0.51      0.00
  -13    9    9      0.40      0.00
  -12    9    9      2.19      0.00
  -11    9    9      3.11      0.00
  -10    9    9      0.56      0.00
   -9    9    9      2.13      0.00
   -8    9    9     -1.54      0.00
   -7    9    9     -0.07      0.00
   -6    9    9     -2.94      0.00
   -5    9    9      4.32      0.00
   -4    9    9      1.71      0.00
   -3    9    9     -3.03      0.00
   -2    9    9      1.01      0.00
   -1    9    9      2.78      0.00
    0    9    9     -1.13      0.00
    1    9    9      4.49      0.00
    2    9    9      1.52      0.00
    3    9    9      0.32      0.00
    4    9    9     -0.66      0.00
    5    9    9     -0.25      0.00
    6    9    9      1.12      0.00
    7    9    9     -0.24      0.00
    8    9    9     -0.11      0.00
    9    9    9      0.54      0.00
   10    9    9     -2.64      0.00
   11    9    9      0.34      0.00
   12    9    9     -0.04      0.00
   13    9    9     -1.25      0.00
  -18   10    9      0.70      0.00
  -17   10    9      0.26      0.00
  -16   10    9      0.57      0.00
  -15   10    9     -0.30      0.00
  -14   10    9      1.67      0.00
  -13   10    9      2.60      0.00
  -12   10    9      0.75      0.00
  -11   10    9      1.39      0.00
  -10   10    9     -1.17      0.00
   -9   10    9      0.50      0.00
   -8   10    9      1.88      0.00
   -7   10    9     -2.12      0.00
   -6   10    9      0.89      0.00
   -5   10    9     -4.91      0.00
   -4   10    9      1.25      0.00
   -3   10    9     -2.40      0.00
   -2   10    9      5.07      0.00
   -1   10    9     -8.07      0.00
    0   10    9     -2.07      0.00
    1   10    9     -1.48      0.00
    2   10    9      3.61      0.00
    3   10    9      0.85      0.00
    4   10    9     -2.14      0.00
    5   10    9      1.58      0.00
    6   10    9     -0.29      0.00
    7   10    9      0.16      0.00
    8   10    9     -0.49      0.00
    9   10    9     -0.77      0.00
   10   10    9     -0.81      0.00
   11   10    9      0.38      0.00
   12   10    9     -0.77      0.00
   13   10    9      0.55      0.00
  -18   11    9     -0.49      0.00
  -17   11    9      0.19      0.00
  -16   11    9      1.18      0.00
  -15   11    9      0.24      0.00
  -14   11    9      0.17      0.00
  -13   11    9     -0.21      0.00
  -12   11    9      1.85      0.00
  -11   11    9      0.49      0.00
  -10   11    9      1.82      0.00
   -9   11    9     -1.74      0.00
   -8   11    9      3.81      0.00
   -7   11    9     -1.09      0.00
   -6   11    9      2.44      0.00
   -5   11    9      4.87      0.00
   -4   11    9     -4.99      0.00
   -3   11    9      1.60      0.00
   -2   11    9     -3.47      0.00
   -1   11    9      2.92      0.00
    0   11    9     -0.95      0.00
    1   11    9      0.71      0.00
    2   11    9     -0.88      0.00
    3   11    9     -4.05      0.00
    4   11    9      1.75      0.00
    5   11    9     -0.80      0.00
    6   11    9     -1.45      0.00
    7   11    9     -3.92      0.00
    8   11    9     -0.10      0.00
    9   11    9     -0.07      0.00
   10   11    9      0.01      0.00
   11   11    9      0.78      0.00
   12   11    9     -1.15      0.00
  -18   12    9      0.89      0.00
  -17   12    9     -0.21      0.00
  -16   12    9      1.11      0.00
  -15   12    9     -0.18      0.00
  -14   12    9      0.07      0.00
  -13   12    9      0.16      0.00
  -12   12    9      0.09      0.00
  -11   12    9     -0.93      0.00
  -10   12    9      0.25      0.00
   -9   12    9      3.84      0.00
   -8   12    9     -0.88      0.00
   -7   12    9      1.63      0.00
   -6   12    9     -2.90      0.00
   -5   12    9      0.19      0.00
   -4   12    9      4.69      0.00
   -3   12    9     -4.03      0.00
   -2   12    9      5.29      0.00
   -1   12    9     -5.81      0.00
    0   12    9      3.25      0.00
    1   12    9      3.19      0.00
    2   12    9      0.68      0.00
    3   12    9      2.76      0.00
    4   12    9      0.63      0.00
    5   12    9      1.40      0.00
    6   12    9     -1.18      0.00
    7   12    9     -1.13      0.00
    8   12    9      0.60      0.00
    9   12    9     -1.94      0.00
   10   12    9      1.17      0.00
   11   12    9     -0.51      0.00
   12   12    9     -0.11      0.00
  -17   13    9      2.06      0.00
  -16   13    9      0.73      0.00
  -15   13    9      0.16      0.00
  -14   13    9      0.34      0.00
  -13   13    9     -1.63      0.00
  -12   13    9      0.22      0.00
  -11   13    9      2.98      0.00
  -10   13    9     -3.05      0.00
   -9   13    9      1.13      0.00
   -8   13    9      0.41      0.00
   -7   13    9     -2.41      0.00
   -6   13    9      2.44      0.00
   -5   13    9      0.20      0.00
   -4   13    9     -4.67      0.00
   -3   13    9      2.77      0.00
   -2   13    9     -3.47      0.00
   -1   13    9      4.41      0.00
    0   13    9     -3.78      0.00
    1   13    9     -2.33      0.00
    2   13    9     -0.69      0.00
    3   13    9     -0.94      0.00
    4   13    9      2.73      0.00
    5   13    9     -2.24      0.00
    6   13    9     -3.08      0.00
    7   13    9      0.89      0.00
    8   13    9     -1.31      0.00
    9   13    9      0.74      0.00
   10   13    9     -0.22      0.00
   11   13    9     -1.29      0.00
   12   13    9     -0.07      0.00
  -17   14    9      0.32      0.00
  -16   14    9      0.96      0.00
  -15   14    9      0.54      0.00
  -14   14    9     -0.63      0.00
  -13   14    9     -0.45      0.00
  -12   14    9      0.38      0.00
  -11   14    9     -2.79      0.00
  -10   14    9      3.08      0.00
   -9   14    9     -2.14      0.00
   -8   14    9     -0.36      0.00
   -7   14    9     -3.47      0.00
   -6   14    9      0.91      0.00
   -5   14    9      3.66      0.00
   -4   14    9      1.64      0.00
   -3   14    9      0.65      0.00
   -2   14    9      4.45      0.00
   -1   14    9     -3.89      0.00
    0   14    9      2.94      0.00
    1   14    9      0.35      0.00
    2   14    9      0.12      0.00
    3   14    9     -0.75      0.00
    4   14    9     -2.57      0.00
    5   14    9     -1.79      0.00
    6   14    9      0.25      0.00
    7   14    9     -1.89      0.00
    8   14    9      0.48      0.00
    9   14    9     -0.10      0.00
   10   14    9     -0.41      0.00
   11   14    9      0.00      0.00
   12   14    9      1.00      0.00
  -17   15    9      0.75      0.00
  -16   15    9      0.57      0.00
  -15   15    9      0.33      0.00
  -14   15    9     -1.18      0.00
  -13   15    9      0.87      0.00
  -12   15    9     -0.46      0.00
  -11   15    9      0.74      0.00
  -10   15    9     -3.81      0.00
   -9   15    9      2.04      0.00
   -8   15    9     -4.60      0.00
   -7   15    9      0.94      0.00
   -6   15    9     -0.52      0.00
   -5   15    9      0.10      0.00
   -4   15    9     -2.54      0.00
   -3   15    9      3.56      0.00
   -2   15    9     -0.64      0.00
   -1   15    9      0.41      0.00
    0   15    9     -3.39      0.00
    1   15    9      2.21      0.00
    2   15    9     -1.18      0.00
    3   15    9     -0.52      0.00
    4   15    9     -1.31      0.00
    5   15    9     -2.28      0.00
    6   15    9     -1.16      0.00
    7   15    9      1.85      0.00
    8   15    9     -0.45      0.00
    9   15    9     -0.84      0.00
   10   15    9      0.44      0.00
   11   15    9     -0.91      0.00
  -17   16    9      0.58      0.00
  -16   16    9     -1.67      0.00
  -15   16    9      0.33      0.00
  -14   16    9      0.44      0.00
  -13   16    9     -0.99      0.00
  -12   16    9      0.72      0.00
  -11   16    9      0.09      0.00
  -10   16    9     -0.17      0.00
   -9   16    9     -0.03      0.00
   -8   16    9     -2.77      0.00
   -7   16    9     -1.81      0.00
   -6   16    9      2.58      0.00
   -5   16    9     -2.15      0.00
   -4   16    9      1.74      0.00
   -3   16    9     -0.21      0.00
   -2   16    9     -0.68      0.00
   -1   16    9     -2.83      0.00
    0   16    9      2.24      0.00
    1   16    9      0.76      0.00
    2   16    9     -1.98      0.00
    3   16    9     -0.80      0.00
    4   16    9     -2.16      0.00
    5   16    9      0.53      0.00
    6   16    9      0.41      0.00
    7   16    9     -1.84      0.00
    8   16    9     -0.49      0.00
    9   16    9      0.48      0.00
   10   16    9     -2.22      0.00
   11   16    9      0.44      0.00
  -16   17    9      0.16      0.00
  -15   17    9     -1.45      0.00
  -14   17    9     -0.71      0.00
  -13   17    9      2.66      0.00
  -12   17    9     -0.69      0.00
  -11   17    9     -1.04      0.00
  -10   17    9      1.75      0.00
   -9   17    9     -2.39      0.00
   -8   17    9      0.51      0.00
   -7   17    9     -0.95      0.00
   -6   17    9     -1.70      0.00
   -5   17    9     -0.04      0.00
   -4   17    9     -2.47      0.00
   -3   17    9      4.40      0.00
   -2   17    9     -0.86      0.00
   -1   17    9      0.94      0.00
    0   17    9      2.88      0.00
    1   17    9      1.46      0.00
    2   17    9      0.24      0.00
    3   17    9     -0.53      0.00
    4   17    9      1.40      0.00
    5   17    9     -0.11      0.00
    6   17    9     -1.01      0.00
    7   17    9      1.01      0.00
    8   17    9     -1.21      0.00
    9   17    9     -0.41      0.00
   10   17    9     -0.47      0.00
   11   17    9      1.21      0.00
  -16   18    9     -0.31      0.00
  -15   18    9      0.97      0.00
  -14   18    9      1.11      0.00
  -13   18    9     -1.08      0.00
  -12   18    9      1.74      0.00
  -11   18    9     -0.06      0.00
  -10   18    9     -1.33      0.00
   -9   18    9      0.99      0.00
   -8   18    9     -4.06      0.00
   -7   18    9      0.38      0.00
   -6   18    9     -1.26      0.00
   -5   18    9     -2.69      0.00
   -4   18    9      1.30      0.00
   -3   18    9     -1.81      0.00
   -2   18    9      0.16      0.00
   -1   18    9      2.18      0.00
    0   18    9      1.59      0.00
    1   18    9     -1.43      0.00
    2   18    9     -1.03      0.00
    3   18    9      0.67      0.00
    4   18    9     -1.78      0.00
    5   18    9     -1.38      0.00
    6   18    9      0.43      0.00
    7   18    9     -1.85      0.00
    8   18    9      0.44      0.00
    9   18    9     -0.13      0.00
   10   18    9      0.71      0.00
  -16   19    9     -0.59      0.00
  -15   19    9     -0.87      0.00
  -14   19    9      0.11      0.00
  -13   19    9      0.66      0.00
  -12   19    9     -1.22      0.00
  -11   19    9     -0.31      0.00
  -10   19    9     -0.07      0.00
   -9   19    9     -0.32      0.00
   -8   19    9      1.32      0.00
   -7   19    9     -2.48      0.00
   -6   19    9      0.39      0.00
   -5   19    9     -2.33      0.00
   -4   19    9      0.52      0.00
   -3   19    9      1.77      0.00
   -2   19    9      1.42      0.00
   -1   19    9      0.88      0.00
    0   19    9      1.18      0.00
    1   19    9     -1.72      0.00
    2   19    9     -0.90      0.00
    3   19    9      0.13      0.00
    4   19    9     -1.25      0.00
    5   19    9     -1.18      0.00
    6   19    9     -0.78      0.00
    7   19    9      0.54      0.00
    8   19    9      0.09      0.00
    9   19    9     -1.12      0.00
   10   19    9      1.00      0.00
  -15   20    9     -0.99      0.00
  -14   20    9     -0.39      0.00
  -13   20    9     -0.90      0.00
  -12   20    9      0.78      0.00
  -11   20    9     -2.53      0.00
  -10   20    9      0.94      0.00
   -9   20    9     -0.68      0.00
   -8   20    9     -0.68      0.00
   -7   20    9      1.50      0.00
   -6   20    9     -0.93      0.00
   -5   20    9     -0.38      0.00
   -4   20    9     -0.92      0.00
   -3   20    9      0.65      0.00
   -2   20    9      0.58      0.00
   -1   20    9      0.62      0.00
    0   20    9     -1.83      0.00
    1   20    9     -0.80      0.00
    2   20    9      1.65      0.00
    3   20    9     -0.72      0.00
    4   20    9      0.00      0.00
    5   20    9      0.72      0.00
    6   20    9      0.60      0.00
    7   20    9     -0.63      0.00
    9   20    9     -1.20      0.00
  -15   21    9      0.11      0.00
  -14   21    9      0.36      0.00
  -13   21    9      0.20      0.00
  -12   21    9      0.22      0.00
  -11   21    9     -0.15      0.00
  -10   21    9      0.25      0.00
   -9   21    9      1.09      0.00
   -8   21    9     -0.51      0.00
   -7   21    9     -0.44      0.00
   -6   21    9      0.12      0.00
   -5   21    9     -2.28      0.00
   -4   21    9      1.45      0.00
   -3   21    9     -0.85      0.00
   -2   21    9     -0.45      0.00
   -1   21    9     -0.98      0.00
    0   21    9     -0.30      0.00
    1   21    9     -1.37      0.00
    2   21    9      1.76      0.00
    3   21    9     -0.07      0.00
    4   21    9      0.55      0.00
    5   21    9      1.27      0.00
    6   21    9      1.75      0.00
    7   21    9     -1.14      0.00
  -15   22    9     -0.10      0.00
  -14   22    9     -0.13      0.00
  -13   22    9      1.27      0.00
  -12   22    9      0.10      0.00
  -11   22    9      0.08      0.00
  -10   22    9      0.97      0.00
   -9   22    9     -0.18      0.00
   -8   22    9      0.44      0.00
   -7   22    9      1.52      0.00
   -6   22    9     -1.27      0.00
   -5   22    9      0.33      0.00
   -4   22    9     -0.16      0.00
   -3   22    9      0.57      0.00
   -2   22    9     -1.75      0.00
   -1   22    9      0.08      0.00
    0   22    9     -0.02      0.00
    1   22    9      2.84      0.00
    2   22    9     -1.07      0.00
    3   22    9      1.33      0.00
    4   22    9      0.07      0.00
    5   22    9      0.41      0.00
    6   22    9     -1.12      0.00
    7   22    9     -1.10      0.00
  -14   23    9      0.94      0.00
  -13   23    9      0.89      0.00
  -12   23    9      0.10      0.00
  -11   23    9     -0.05      0.00
  -10   23    9      0.80      0.00
   -9   23    9     -0.80      0.00
   -8   23    9     -1.15      0.00
   -7   23    9     -0.04      0.00
   -6   23    9     -0.46      0.00
   -5   23    9     -0.38      0.00
   -4   23    9      1.44      0.00
   -3   23    9     -0.83      0.00
   -2   23    9     -0.07      0.00
   -1   23    9      0.16      0.00
    0   23    9     -0.25      0.00
    1   23    9     -1.12      0.00
    2   23    9      0.73      0.00
    3   23    9     -1.54      0.00
    4   23    9      0.97      0.00
    5   23    9      0.65      0.00
    6   23    9     -1.97      0.00
    7   23    9     -0.65      0.00
    8   23    9     -0.46      0.00
  -14   24    9     -0.70      0.00
  -13   24    9      1.51      0.00
  -12   24    9     -0.47      0.00
  -11   24    9      1.04      0.00
  -10   24    9     -0.32      0.00
   -9   24    9     -0.23      0.00
   -8   24    9     -0.27      0.00
   -7   24    9      0.00      0.00
   -6   24    9     -1.07      0.00
   -5   24    9      2.01      0.00
   -4   24    9     -0.41      0.00
   -3   24    9     -0.31      0.00
   -2   24    9      0.42      0.00
   -1   24    9     -0.15      0.00
    0   24    9     -0.15      0.00
    1   24    9     -0.44      0.00
    2   24    9     -1.81      0.00
    3   24    9     -0.19      0.00
    4   24    9     -1.53      0.00
    5   24    9     -0.63      0.00
    6   24    9      0.30      0.00
    7   24    9      0.19      0.00
    8   24    9      1.72      0.00
  -14   25    9      0.58      0.00
  -13   25    9     -0.90      0.00
  -12   25    9     -0.49      0.00
  -11   25    9      0.31      0.00
  -10   25    9      1.25      0.00
   -9   25    9     -0.95      0.00
   -8   25    9      0.18      0.00
   -7   25    9     -0.52      0.00
   -6   25    9      0.58      0.00
   -5   25    9      0.21      0.00
   -4   25    9      1.38      0.00
   -3   25    9      0.96      0.00
   -2   25    9     -0.86      0.00
   -1   25    9      0.09      0.00
    0   25    9     -2.62      0.00
    1   25    9     -0.76      0.00
    2   25    9     -0.23      0.00
    3   25    9     -0.66      0.00
    4   25    9      0.41      0.00
    5   25    9     -1.22      0.00
    6   25    9     -2.18      0.00
    7   25    9      0.41      0.00
  -14   26    9     -0.33      0.00
  -13   26    9      0.02      0.00
  -12   26    9     -0.93      0.00
  -11   26    9      0.87      0.00
  -10   26    9     -0.16      0.00
   -9   26    9      0.97      0.00
   -8   26    9     -0.44      0.00
   -7   26    9      0.81      0.00
   -6   26    9     -0.28      0.00
   -5   26    9     -0.49      0.00
   -4   26    9     -0.89      0.00
   -3   26    9      0.30      0.00
   -2   26    9      1.29      0.00
   -1   26    9     -1.62      0.00
    0   26    9      0.59      0.00
    1   26    9      0.05      0.00
    2   26    9     -0.92      0.00
    3   26    9     -1.04      0.00
    4   26    9     -0.34      0.00
    5   26    9      0.69      0.00
    6   26    9      0.00      0.00
    7   26    9     -0.74      0.00
  -13   27    9     -0.55      0.00
  -12   27    9      0.31      0.00
  -11   27    9      0.69      0.00
  -10   27    9      1.57      0.00
   -9   27    9     -1.02      0.00
   -8   27    9      0.72      0.00
   -7   27    9      0.15      0.00
   -6   27    9     -0.13      0.00
   -5   27    9      0.35      0.00
   -4   27    9      0.29      0.00
   -3   27    9      0.02      0.00
   -2   27    9     -0.60      0.00
   -1   27    9     -0.60      0.00
    0   27    9      0.24      0.00
    1   27    9      1.78      0.00
    2   27    9      0.96      0.00
    3   27    9      0.00      0.00
    4   27    9     -0.20      0.00
    5   27    9     -1.38      0.00
    6   27    9     -1.24      0.00
  -12   28    9      1.34      0.00
  -11   28    9      1.26      0.00
  -10   28    9      0.27      0.00
   -9   28    9      0.44      0.00
   -8   28    9      0.45      0.00
   -7   28    9     -0.82      0.00
   -6   28    9     -1.00      0.00
   -5   28    9     -1.36      0.00
   -4   28    9      0.38      0.00
   -3   28    9      0.72      0.00
   -2   28    9      0.86      0.00
   -1   28    9      0.25      0.00
    0   28    9      0.65      0.00
    1   28    9     -0.11      0.00
    2   28    9     -0.50      0.00
    3   28    9      0.30      0.00
    4   28    9      1.77      0.00
    5   28    9     -1.31      0.00
    6   28    9     -0.46      0.00
  -12   29    9      0.34      0.00
  -11   29    9      0.47      0.00
  -10   29    9     -0.54      0.00
   -9   29    9     -0.71      0.00
   -8   29    9      0.96      0.00
   -7   29    9      0.24      0.00
   -6   29    9     -0.11      0.00
   -5   29    9     -0.48      0.00
   -4   29    9      0.20      0.00
   -3   29    9      0.54      0.00
   -2   29    9     -0.84      0.00
   -1   29    9      0.39      0.00
    0   29    9      1.65      0.00
    1   29    9     -0.08      0.00
    2   29    9     -0.91      0.00
    3   29    9      0.51      0.00
    4   29    9     -1.08      0.00
    5   29    9     -0.80      0.00
    6   29    9      0.32      0.00
  -12   30    9      1.35      0.00
  -11   30    9     -0.78      0.00
  -10   30    9     -0.82      0.00
   -9   30    9     -0.53      0.00
   -8   30    9     -0.91      0.00
   -7   30    9     -0.15      0.00
   -6   30    9     -0.29      0.00
   -5   30    9      1.04      0.00
   -4   30    9      0.76      0.00
   -3   30    9      0.89      0.00
   -2   30    9      1.05      0.00
   -1   30    9     -0.61      0.00
    0   30    9     -0.52      0.00
    1   30    9     -1.55      0.00
    2   30    9     -0.11      0.00
    3   30    9      0.70      0.00
    4   30    9     -0.40      0.00
    5   30    9     -1.14      0.00
   -9   31    9     -0.17      0.00
   -8   31    9      0.33      0.00
   -7   31    9     -0.67      0.00
   -6   31    9     -0.59      0.00
   -5   31    9     -0.19      0.00
   -4   31    9      0.45      0.00
   -3   31    9     -0.70      0.00
   -2   31    9     -0.90      0.00
   -1   31    9      1.80      0.00
    0   31    9      0.41      0.00
    1   31    9     -0.62      0.00
    2   31    9     -0.38      0.00
    3   31    9      0.70      0.00
    4   31    9     -0.22      0.00
   -8   32    9      0.39      0.00
   -7   32    9      0.23      0.00
   -6   32    9      0.45      0.00
   -5   32    9      0.02      0.00
   -4   32    9      0.08      0.00
   -3   32    9     -0.81      0.00
   -2   32    9     -1.23      0.00
   -1   32    9      0.46      0.00
    0   32    9     -0.41      0.00
    1   32    9      0.47      0.00
    2   32    9      1.58      0.00
    3   32    9      0.53      0.00
    4   32    9     -0.06      0.00
   -7   33    9     -0.08      0.00
   -6   33    9     -0.31      0.00
   -5   33    9      0.52      0.00
   -4   33    9     -1.07      0.00
   -3   33    9     -1.54      0.00
   -2   33    9      1.08      0.00
   -1   33    9      0.56      0.00
    0   33    9      0.53      0.00
    1   33    9     -0.34      0.00
    2   33    9      0.15      0.00
    3   33    9      0.57      0.00
   -5   34    9      0.04      0.00
   -4   34    9     -1.40      0.00
   -3   34    9     -0.76      0.00
   -2   34    9      0.82      0.00
   -1   34    9      0.28      0.00
    0   34    9      0.20      0.00
    1   34    9      0.75      0.00
    2   34    9      0.05      0.00
    3   34    9     -0.42      0.00
    0   35    9     -0.38      0.00
    1   35    9     -0.62      0.00
    0   36    9      0.07      0.00
  -18    0   10      1.63      0.00
  -16    0   10     -0.22      0.00
  -14    0   10      2.80      0.00
  -12    0   10      0.73      0.00
  -10    0   10      1.97      0.00
   -8    0   10      1.99      0.00
   -6    0   10      1.59      0.00
   -4    0   10     -1.39      0.00
   -2    0   10      3.62      0.00
    0    0   10      9.52      0.00
    2    0   10      0.02      0.00
    4    0   10     -3.66      0.00
    6    0   10     -3.23      0.00
    8    0   10      0.16      0.00
   10    0   10      2.48      0.00
  -19    1   10      1.34      0.00
  -18    1   10      0.67      0.00
  -17    1   10      0.00      0.00
  -16    1   10      1.20      0.00
  -15    1   10      1.98      0.00
  -14    1   10     -1.00      0.00
  -13    1   10      1.59      0.00
  -12    1   10     -1.53      0.00
  -11    1   10      0.61      0.00
  -10    1   10     -0.29      0.00
   -9    1   10      2.13      0.00
   -8    1   10     -3.71      0.00
   -7    1   10     -5.94      0.00
   -6    1   10      1.42      0.00
   -5    1   10     -1.24      0.00
   -4    1   10      3.98      0.00
   -3    1   10     -3.07      0.00
   -2    1   10      2.14      0.00
   -1    1   10     -0.89      0.00
    0    1   10      2.87      0.00
    1    1   10      2.13      0.00
    2    1   10      1.71      0.00
    3    1   10     -0.11      0.00
    4    1   10      2.45      0.00
    5    1   10      0.17      0.00
    6    1   10     -0.86      0.00
    7    1   10     -1.56      0.00
    8    1   10     -0.39      0.00
    9    1   10     -0.06      0.00
   10    1   10      0.55      0.00
   11    1   10      0.85      0.00
   12    1   10      0.51      0.00
  -19    2   10      0.23      0.00
  -18    2   10      0.12      0.00
  -17    2   10      0.28      0.00
  -16    2   10     -0.79      0.00
  -15    2   10     -0.41      0.00
  -14    2   10      0.63      0.00
  -13    2   10     -0.10      0.00
  -12    2   10     -0.28      0.00
  -11    2   10      0.31      0.00
  -10    2   10     -0.86      0.00
   -9    2   10      1.18      0.00
   -8    2   10     -0.79      0.00
   -7    2   10      1.39      0.00
   -6    2   10      0.71      0.00
   -5    2   10      0.48      0.00
   -4    2   10     -1.52      0.00
   -3    2   10      2.11      0.00
   -2    2   10      0.47      0.00
   -1    2   10     -0.64      0.00
    0    2   10      0.63      0.00
    1    2   10     -3.22      0.00
    2    2   10     -0.74      0.00
    3    2   10      1.07      0.00
    4    2   10     -1.45      0.00
    5    2   10     -1.00      0.00
    6    2   10     -1.85      0.00
    7    2   10     -0.72      0.00
    8    2   10      0.63      0.00
    9    2   10     -1.48      0.00
   10    2   10     -0.51      0.00
   11    2   10      0.28      0.00
   12    2   10     -2.26      0.00
  -18    3   10      0.07      0.00
  -17    3   10     -0.33      0.00
  -16    3   10      0.49      0.00
  -15    3   10     -0.25      0.00
  -14    3   10     -1.23      0.00
  -13    3   10     -0.72      0.00
  -12    3   10      0.19      0.00
  -11    3   10      0.16      0.00
  -10    3   10     -1.17      0.00
   -9    3   10     -2.39      0.00
   -8    3   10     -3.94      0.00
   -7    3   10      1.50      0.00
   -6    3   10      5.88      0.00
   -5    3   10      3.16      0.00
   -4    3   10     -0.93      0.00
   -3    3   10     -2.61      0.00
   -2    3   10     -0.90      0.00
   -1    3   10     -1.19      0.00
    0    3   10      2.17      0.00
    1    3   10     -1.30      0.00
    2    3   10      8.64      0.00
    3    3   10      1.58      0.00
    4    3   10      3.37      0.00
    5    3   10     -1.84      0.00
    6    3   10     -2.70      0.00
    7    3   10     -0.22      0.00
    8    3   10     -1.77      0.00
    9    3   10     -0.07      0.00
   10    3   10     -0.58      0.00
   11    3   10     -1.60      0.00
   12    3   10      2.09      0.00
  -18    4   10     -0.79      0.00
  -17    4   10     -0.04      0.00
  -16    4   10      0.96      0.00
  -15    4   10     -0.70      0.00
  -14    4   10      1.82      0.00
  -13    4   10     -0.17      0.00
  -12    4   10      0.04      0.00
  -11    4   10     -2.05      0.00
  -10    4   10     -0.45      0.00
   -9    4   10     -0.24      0.00
   -8    4   10     -2.19      0.00
   -7    4   10      2.04      0.00
   -6    4   10     -1.54      0.00
   -5    4   10      0.42      0.00
   -4    4   10     -3.02      0.00
   -3    4   10      1.22      0.00
   -2    4   10     -3.86      0.00
   -1    4   10     -4.58      0.00
    0    4   10     -4.86      0.00
    1    4   10      1.12      0.00
    2    4   10      1.22      0.00
    3    4   10      0.99      0.00
    4    4   10      0.60      0.00
    5    4   10      0.71      0.00
    6    4   10      0.06      0.00
    7    4   10      0.39      0.00
    8    4   10     -0.39      0.00
    9    4   10     -2.41      0.00
   10    4   10      0.90      0.00
   11    4   10     -0.51      0.00
   12    4   10     -1.79      0.00
  -18    5   10     -0.76      0.00
  -17    5   10      1.26      0.00
  -16    5   10      0.34      0.00
  -15    5   10     -0.34      0.00
  -14    5   10     -1.65      0.00
  -13    5   10     -0.53      0.00
  -12    5   10     -0.84      0.00
  -11    5   10     -1.36      0.00
  -10    5   10     -2.43      0.00
   -9    5   10     -1.79      0.00
   -8    5   10      0.50      0.00
   -7    5   10      6.26      0.00
   -6    5   10      3.65      0.00
   -5    5   10      0.19      0.00
   -4    5   10     -1.33      0.00
   -3    5   10      0.89      0.00
   -2    5   10     -0.02      0.00
   -1    5   10     -0.22      0.00
    0    5   10      2.22      0.00
    1    5   10      1.65      0.00
    2    5   10      1.75      0.00
    3    5   10      0.56      0.00
    4    5   10     -0.41      0.00
    5    5   10     -1.65      0.00
    6    5   10     -0.69      0.00
    7    5   10     -0.53      0.00
    8    5   10     -0.66      0.00
    9    5   10      0.05      0.00
   10    5   10      1.06      0.00
   11    5   10      0.53      0.00
   12    5   10      0.82      0.00
  -18    6   10     -0.25      0.00
  -17    6   10      0.55      0.00
  -16    6   10      1.29      0.00
  -15    6   10      1.57      0.00
  -14    6   10      0.19      0.00
  -13    6   10     -3.42      0.00
  -12    6   10     -2.86      0.00
  -11    6   10     -2.38      0.00
  -10    6   10     -0.82      0.00
   -9    6   10     -2.51      0.00
   -8    6   10     -1.44      0.00
   -7    6   10      0.51      0.00
   -6    6   10      0.87      0.00
   -5    6   10      0.75      0.00
   -4    6   10      1.54      0.00
   -3    6   10      3.62      0.00
   -2    6   10     -7.28      0.00
   -1    6   10      2.36      0.00
    0    6   10     -0.52      0.00
    1    6   10      3.14      0.00
    2    6   10     -0.33      0.00
    3    6   10     -0.51      0.00
    4    6   10      5.15      0.00
    5    6   10      0.97      0.00
    6    6   10     -0.51      0.00
    7    6   10     -0.67      0.00
    8    6   10     -2.46      0.00
    9    6   10      0.75      0.00
   10    6   10      2.11      0.00
   11    6   10     -0.47      0.00
   12    6   10      0.98      0.00
  -18    7   10     -0.94      0.00
  -17    7   10      0.92      0.00
  -16    7   10     -0.75      0.00
  -15    7   10     -0.85      0.00
  -14    7   10     -0.39      0.00
  -13    7   10     -0.29      0.00
  -12    7   10     -1.69      0.00
  -11    7   10     -2.93      0.00
  -10    7   10      0.45      0.00
   -9    7   10     -3.24      0.00
   -8    7   10      3.65      0.00
   -7    7   10      0.81      0.00
   -6    7   10      0.65      0.00
   -5    7   10     -0.55      0.00
   -4    7   10     -0.56      0.00
   -3    7   10     -0.09      0.00
   -2    7   10      1.07      0.00
   -1    7   10      0.32      0.00
    0    7   10      0.47      0.00
    1    7   10     -2.19      0.00
    2    7   10     -3.85      0.00
    3    7   10      0.88      0.00
    4    7   10     -1.53      0.00
    5    7   10     -1.72      0.00
    6    7   10     -1.24      0.00
    7    7   10     -0.14      0.00
    8    7   10     -0.43      0.00
    9    7   10      1.19      0.00
   10    7   10      0.65      0.00
   11    7   10      0.33      0.00
   12    7   10      0.45      0.00
  -18    8   10     -0.07      0.00
  -17    8   10     -0.14      0.00
  -16    8   10     -0.18      0.00
  -15    8   10      0.69      0.00
  -14    8   10     -2.94      0.00
  -13    8   10     -2.99      0.00
  -12    8   10     -0.50      0.00
  -11    8   10      0.72      0.00
  -10    8   10     -2.59      0.00
   -9    8   10      0.00      0.00
   -8    8   10     -3.28      0.00
   -7    8   10      3.63      0.00
   -6    8   10      0.36      0.00
   -5    8   10      1.93      0.00
   -4    8   10      4.00      0.00
   -3    8   10     -2.25      0.00
   -2    8   10     -2.05      0.00
   -1    8   10      6.53      0.00
    0    8   10      0.29      0.00
    1    8   10      0.32      0.00
    2    8   10     -0.46      0.00
    3    8   10      3.29      0.00
    4    8   10      1.46      0.00
    5    8   10     -1.68      0.00
    6    8   10      0.54      0.00
    7    8   10     -0.15      0.00
    8    8   10     -1.15      0.00
    9    8   10      1.26      0.00
   10    8   10      0.95      0.00
   11    8   10     -0.26      0.00
   12    8   10      1.95      0.00
  -18    9   10      1.03      0.00
  -17    9   10     -0.46      0.00
  -16    9   10     -0.80      0.00
  -15    9   10     -0.17      0.00
  -14    9   10      0.28      0.00
  -13    9   10      0.82      0.00
  -12    9   10     -2.89      0.00
  -11    9   10      0.03      0.00
  -10    9   10     -1.06      0.00
   -9    9   10     -3.15      0.00
   -8    9   10      1.75      0.00
   -7    9   10     -3.49      0.00
   -6    9   10      0.25      0.00
   -5    9   10     -3.45      0.00
   -4    9   10      0.64      0.00
   -3    9   10      0.26      0.00
   -2    9   10      1.56      0.00
   -1    9   10     -3.26      0.00
    0    9   10     -2.24      0.00
    1    9   10     -0.99      0.00
    2    9   10      0.20      0.00
    3    9   10      0.15      0.00
    4    9   10     -2.15      0.00
    5    9   10      0.97      0.00
    6    9   10      2.41      0.00
    7    9   10      1.36      0.00
    8    9   10      0.04      0.00
    9    9   10      0.33      0.00
   10    9   10     -2.64      0.00
   11    9   10      0.25      0.00
   12    9   10      0.67      0.00
  -18   10   10     -0.47      0.00
  -17   10   10     -0.16      0.00
  -16   10   10     -0.92      0.00
  -15   10   10     -1.06      0.00
  -14   10   10     -1.23      0.00
  -13   10   10      0.81      0.00
  -12   10   10      0.66      0.00
  -11   10   10     -1.50      0.00
  -10   10   10     -1.09      0.00
   -9   10   10     -2.83      0.00
   -8   10   10      0.36      0.00
   -7   10   10      1.01      0.00
   -6   10   10      0.89      0.00
   -5   10   10      0.61      0.00
   -4   10   10      0.49      0.00
   -3   10   10     -2.47      0.00
   -2   10   10      3.11      0.00
   -1   10   10      0.16      0.00
    0   10   10      1.04      0.00
    1   10   10     -1.70      0.00
    2   10   10      0.25      0.00
    3   10   10      0.01      0.00
    4   10   10     -2.62      0.00
    5   10   10      0.16      0.00
    6   10   10      1.67      0.00
    7   10   10     -0.67      0.00
    8   10   10      0.14      0.00
    9   10   10      0.20      0.00
   10   10   10     -0.02      0.00
   11   10   10      0.86      0.00
   12   10   10     -1.51      0.00
  -18   11   10      0.61      0.00
  -17   11   10     -2.32      0.00
  -16   11   10     -0.77      0.00
  -15   11   10      0.76      0.00
  -14   11   10      1.87      0.00
  -13   11   10     -0.84      0.00
  -12   11   10     -0.35      0.00
  -11   11   10     -0.82      0.00
  -10   11   10     -1.77      0.00
   -9   11   10      0.79      0.00
   -8   11   10     -1.14      0.00
   -7   11   10      1.19      0.00
   -6   11   10     -3.61      0.00
   -5   11   10      0.52      0.00
   -4   11   10      2.37      0.00
   -3   11   10      0.30      0.00
   -2   11   10     -3.06      0.00
   -1   11   10      1.10      0.00
    0   11   10     -0.12      0.00
    1   11   10      3.17      0.00
    2   11   10      0.85      0.00
    3   11   10     -3.33      0.00
    4   11   10      0.75      0.00
    5   11   10      1.82      0.00
    6   11   10      1.78      0.00
    7   11   10     -0.70      0.00
    8   11   10      0.83      0.00
    9   11   10      0.78      0.00
   10   11   10     -0.84      0.00
   11   11   10      1.31      0.00
  -17   12   10     -1.00      0.00
  -16   12   10     -0.21      0.00
  -15   12   10     -1.46      0.00
  -14   12   10      2.22      0.00
  -13   12   10      2.03      0.00
  -12   12   10     -0.91      0.00
  -11   12   10      1.04      0.00
  -10   12   10     -1.23      0.00
   -9   12   10      0.31      0.00
   -8   12   10      3.15      0.00
   -7   12   10      0.16      0.00
   -6   12   10     -0.04      0.00
   -5   12   10     -2.85      0.00
   -4   12   10     -0.29      0.00
   -3   12   10     -3.64      0.00
   -2   12   10      3.45      0.00
   -1   12   10     -2.56      0.00
    0   12   10      1.80      0.00
    1   12   10     -2.98      0.00
    2   12   10     -0.38      0.00
    3   12   10      1.89      0.00
    4   12   10     -0.30      0.00
    5   12   10      2.10      0.00
    6   12   10     -1.86      0.00
    7   12   10      0.18      0.00
    8   12   10      1.52      0.00
    9   12   10     -0.18      0.00
   10   12   10      1.67      0.00
   11   12   10     -0.96      0.00
  -17   13   10     -1.06      0.00
  -16   13   10     -0.89      0.00
  -15   13   10      1.27      0.00
  -14   13   10      0.39      0.00
  -13   13   10     -1.20      0.00
  -12   13   10      1.03      0.00
  -11   13   10      0.25      0.00
  -10   13   10      2.46      0.00
   -9   13   10      0.06      0.00
   -8   13   10      3.28      0.00
   -7   13   10     -1.12      0.00
   -6   13   10     -1.19      0.00
   -5   13   10      4.69      0.00
   -4   13   10     -2.92      0.00
   -3   13   10      1.09      0.00
   -2   13   10     -1.81      0.00
   -1   13   10      5.32      0.00
    0   13   10     -0.18      0.00
    1   13   10      0.09      0.00
    2   13   10      1.71      0.00
    3   13   10     -0.28      0.00
    4   13   10      4.52      0.00
    5   13   10      1.15      0.00
    6   13   10      0.97      0.00
    7   13   10      0.36      0.00
    8   13   10      0.23      0.00
    9   13   10      0.94      0.00
   10   13   10      0.50      0.00
   11   13   10      0.04      0.00
  -17   14   10     -0.41      0.00
  -16   14   10      0.45      0.00
  -15   14   10      0.51      0.00
  -14   14   10      0.25      0.00
  -13   14   10     -0.50      0.00
  -12   14   10      1.44      0.00
  -11   14   10     -0.51      0.00
  -10   14   10     -0.62      0.00
   -9   14   10      3.73      0.00
   -8   14   10      0.43      0.00
   -7   14   10      1.06      0.00
   -6   14   10     -1.90      0.00
   -5   14   10     -1.51      0.00
   -4   14   10      0.71      0.00
   -3   14   10     -3.20      0.00
   -2   14   10      4.76      0.00
   -1   14   10     -2.89      0.00
    0   14   10     -2.16      0.00
    1   14   10     -0.14      0.00
    2   14   10      1.50      0.00
    3   14   10      2.61      0.00
    4   14   10     -0.48      0.00
    5   14   10     -0.59      0.00
    6   14   10      0.19      0.00
    7   14   10     -0.08      0.00
    8   14   10      1.99      0.00
    9   14   10     -0.28      0.00
   10   14   10      0.90      0.00
   11   14   10     -1.12      0.00
  -17   15   10      0.69      0.00
  -16   15   10      0.70      0.00
  -15   15   10     -0.32      0.00
  -14   15   10     -0.70      0.00
  -13   15   10     -0.34      0.00
  -12   15   10     -1.40      0.00
  -11   15   10      2.87      0.00
  -10   15   10     -1.51      0.00
   -9   15   10      1.39      0.00
   -8   15   10      1.62      0.00
   -7   15   10     -0.41      0.00
   -6   15   10      2.52      0.00
   -5   15   10      2.08      0.00
   -4   15   10     -3.82      0.00
   -3   15   10      2.83      0.00
   -2   15   10     -2.04      0.00
   -1   15   10      1.36      0.00
    0   15   10     -4.09      0.00
    1   15   10      0.17      0.00
    2   15   10     -0.45      0.00
    3   15   10     -0.56      0.00
    4   15   10      1.41      0.00
    5   15   10      0.58      0.00
    6   15   10     -0.83      0.00
    7   15   10      1.64      0.00
    8   15   10     -1.18      0.00
    9   15   10      1.50      0.00
   10   15   10      0.09      0.00
  -16   16   10     -0.59      0.00
  -15   16   10      0.35      0.00
  -14   16   10     -1.73      0.00
  -13   16   10     -0.51      0.00
  -12   16   10      1.34      0.00
  -11   16   10     -3.04      0.00
  -10   16   10      2.12      0.00
   -9   16   10      0.33      0.00
   -8   16   10      1.46      0.00
   -7   16   10      0.15      0.00
   -6   16   10      0.70      0.00
   -5   16   10      1.55      0.00
   -4   16   10      0.59      0.00
   -3   16   10     -0.27      0.00
   -2   16   10      1.06      0.00
   -1   16   10     -4.69      0.00
    0   16   10      0.40      0.00
    1   16   10      1.14      0.00
    2   16   10      0.58      0.00
    3   16   10     -0.65      0.00
    4   16   10     -0.33      0.00
    5   16   10      1.18      0.00
    6   16   10      1.79      0.00
    7   16   10     -0.07      0.00
    8   16   10      0.53      0.00
    9   16   10      0.64      0.00
   10   16   10     -1.25      0.00
  -16   17   10      0.31      0.00
  -15   17   10     -0.03      0.00
  -14   17   10     -1.31      0.00
  -13   17   10      1.07      0.00
  -12   17   10     -0.56      0.00
  -11   17   10      2.01      0.00
  -10   17   10     -1.78      0.00
   -9   17   10      1.22      0.00
   -8   17   10     -0.30      0.00
   -7   17   10      0.76      0.00
   -6   17   10      0.83      0.00
   -5   17   10      0.90      0.00
   -4   17   10     -1.50      0.00
   -3   17   10      0.33      0.00
   -2   17   10     -3.13      0.00
   -1   17   10     -0.59      0.00
    0   17   10     -0.59      0.00
    1   17   10      0.92      0.00
    2   17   10     -0.92      0.00
    3   17   10      1.72      0.00
    4   17   10      2.26      0.00
    5   17   10      0.52      0.00
    6   17   10     -0.48      0.00
    7   17   10     -0.10      0.00
    8   17   10      0.38      0.00
    9   17   10     -1.59      0.00
   10   17   10     -0.74      0.00
  -16   18   10     -0.37      0.00
  -15   18   10      0.06      0.00
  -14   18   10      1.27      0.00
  -13   18   10     -0.68      0.00
  -12   18   10      0.36      0.00
  -11   18   10      0.74      0.00
  -10   18   10     -0.06      0.00
   -9   18   10      0.84      0.00
   -8   18   10      0.10      0.00
   -7   18   10     -0.85      0.00
   -6   18   10      3.08      0.00
   -5   18   10     -0.35      0.00
   -4   18   10      1.62      0.00
   -3   18   10     -1.46      0.00
   -2   18   10      0.03      0.00
   -1   18   10     -0.49      0.00
    0   18   10      1.89      0.00
    1   18   10      1.31      0.00
    2   18   10     -1.16      0.00
    3   18   10      1.17      0.00
    4   18   10      0.54      0.00
    5   18   10     -0.52      0.00
    6   18   10      0.16      0.00
    7   18   10      0.63      0.00
    8   18   10      0.75      0.00
    9   18   10      0.73      0.00
  -15   19   10      0.15      0.00
  -14   19   10     -0.68      0.00
  -13   19   10      1.27      0.00
  -12   19   10      0.46      0.00
  -11   19   10     -0.74      0.00
  -10   19   10     -0.17      0.00
   -9   19   10     -1.09      0.00
   -8   19   10      0.43      0.00
   -7   19   10     -0.55      0.00
   -6   19   10      1.20      0.00
   -5   19   10      1.87      0.00
   -4   19   10     -1.65      0.00
   -3   19   10      1.07      0.00
   -2   19   10      0.32      0.00
   -1   19   10      0.10      0.00
    0   19   10      0.60      0.00
    1   19   10     -1.50      0.00
    2   19   10      1.45      0.00
    3   19   10     -0.74      0.00
    4   19   10     -1.24      0.00
    5   19   10     -1.11      0.00
    6   19   10     -1.62      0.00
    7   19   10      1.15      0.00
    8   19   10      1.15      0.00
    9   19   10      0.53      0.00
  -15   20   10     -0.69      0.00
  -14   20   10      0.88      0.00
  -13   20   10     -2.53      0.00
  -12   20   10      1.50      0.00
  -11   20   10     -0.20      0.00
  -10   20   10     -0.74      0.00
   -9   20   10      1.44      0.00
   -8   20   10     -1.87      0.00
   -7   20   10      0.56      0.00
   -6   20   10      1.41      0.00
   -5   20   10     -1.19      0.00
   -4   20   10      0.93      0.00
   -3   20   10      0.51      0.00
   -2   20   10      0.40      0.00
   -1   20   10     -0.29      0.00
    0   20   10     -0.56      0.00
    1   20   10     -1.21      0.00
    2   20   10     -0.51      0.00
    3   20   10      0.42      0.00
    4   20   10     -1.03      0.00
    5   20   10     -1.11      0.00
    6   20   10      2.84      0.00
    7   20   10      1.17      0.00
    8   20   10      0.45      0.00
    9   20   10     -0.79      0.00
  -15   21   10     -1.00      0.00
  -14   21   10     -1.25      0.00
  -13   21   10      0.00      0.00
  -12   21   10     -0.53      0.00
  -11   21   10     -0.86      0.00
  -10   21   10     -0.01      0.00
   -9   21   10      0.34      0.00
   -8   21   10      0.83      0.00
   -7   21   10      0.15      0.00
   -6   21   10      1.67      0.00
   -5   21   10     -1.59      0.00
   -4   21   10      0.53      0.00
   -3   21   10      0.91      0.00
   -2   21   10     -0.06      0.00
   -1   21   10     -1.47      0.00
    0   21   10     -0.44      0.00
    1   21   10      1.07      0.00
    2   21   10      0.20      0.00
    3   21   10     -0.65      0.00
    4   21   10     -0.12      0.00
    5   21   10      0.66      0.00
    6   21   10     -0.01      0.00
    7   21   10      0.02      0.00
  -14   22   10     -0.13      0.00
  -13   22   10      0.08      0.00
  -12   22   10      1.15      0.00
  -11   22   10     -1.67      0.00
  -10   22   10      0.81      0.00
   -9   22   10      0.45      0.00
   -8   22   10     -1.55      0.00
   -7   22   10      1.48      0.00
   -6   22   10     -1.76      0.00
   -5   22   10     -0.37      0.00
   -4   22   10     -0.53      0.00
   -3   22   10      0.49      0.00
   -2   22   10     -0.88      0.00
   -1   22   10      0.35      0.00
    0   22   10      0.72      0.00
    1   22   10      0.89      0.00
    2   22   10      1.15      0.00
    3   22   10      0.07      0.00
    4   22   10      0.43      0.00
    5   22   10      1.54      0.00
    6   22   10      0.07      0.00
    7   22   10     -1.88      0.00
  -14   23   10     -0.01      0.00
  -13   23   10      0.64      0.00
  -12   23   10      0.04      0.00
  -11   23   10     -0.23      0.00
  -10   23   10     -0.17      0.00
   -9   23   10      0.87      0.00
   -8   23   10      0.77      0.00
   -7   23   10     -0.35      0.00
   -6   23   10     -0.39      0.00
   -5   23   10     -1.37      0.00
   -4   23   10      0.42      0.00
   -3   23   10     -1.47      0.00
   -2   23   10      0.17      0.00
   -1   23   10      1.46      0.00
    0   23   10      2.37      0.00
    1   23   10      0.55      0.00
    2   23   10      1.01      0.00
    3   23   10     -0.05      0.00
    4   23   10      0.09      0.00
    5   23   10     -0.33      0.00
    6   23   10      0.08      0.00
    7   23   10      0.22      0.00
  -14   24   10     -0.13      0.00
  -13   24   10      0.95      0.00
  -12   24   10     -0.93      0.00
  -11   24   10     -1.19      0.00
  -10   24   10      0.28      0.00
   -9   24   10     -0.58      0.00
   -8   24   10     -0.52      0.00
   -7   24   10      0.94      0.00
   -6   24   10     -1.15      0.00
   -5   24   10      0.84      0.00
   -4   24   10     -0.68      0.00
   -3   24   10      0.41      0.00
   -2   24   10     -0.29      0.00
   -1   24   10      1.56      0.00
    0   24   10     -0.48      0.00
    1   24   10      0.96      0.00
    2   24   10     -1.45      0.00
    3   24   10      1.48      0.00
    4   24   10      0.18      0.00
    5   24   10     -0.21      0.00
    6   24   10     -1.33      0.00
    7   24   10     -1.08      0.00
  -14   25   10      0.14      0.00
  -13   25   10      0.83      0.00
  -12   25   10     -0.39      0.00
  -11   25   10     -1.63      0.00
  -10   25   10     -0.10      0.00
   -9   25   10      0.36      0.00
   -8   25   10     -0.37      0.00
   -7   25   10     -0.14      0.00
   -6   25   10      0.83      0.00
   -5   25   10     -0.26      0.00
   -4   25   10     -0.86      0.00
   -3   25   10     -0.31      0.00
   -2   25   10      0.92      0.00
   -1   25   10      0.47      0.00
    0   25   10     -0.82      0.00
    1   25   10     -1.40      0.00
    2   25   10      0.66      0.00
    3   25   10     -1.02      0.00
    4   25   10      0.35      0.00
    5   25   10      1.63      0.00
    6   25   10      1.21      0.00
  -14   26   10     -0.69      0.00
  -13   26   10      0.04      0.00
  -12   26   10     -1.72      0.00
  -11   26   10      0.29      0.00
  -10   26   10     -0.15      0.00
   -9   26   10     -0.53      0.00
   -8   26   10      0.00      0.00
   -7   26   10      1.36      0.00
   -6   26   10      0.26      0.00
   -5   26   10      1.00      0.00
   -4   26   10     -0.27      0.00
   -3   26   10     -1.15      0.00
   -2   26   10      0.33      0.00
   -1   26   10     -1.46      0.00
    0   26   10     -0.80      0.00
    1   26   10     -0.10      0.00
    2   26   10     -0.36      0.00
    3   26   10      0.29      0.00
    4   26   10     -0.43      0.00
    5   26   10     -0.16      0.00
    6   26   10      0.50      0.00
  -13   27   10     -1.10      0.00
  -12   27   10     -1.06      0.00
  -11   27   10     -0.88      0.00
  -10   27   10      1.09      0.00
   -9   27   10     -0.67      0.00
   -8   27   10      0.69      0.00
   -7   27   10     -0.48      0.00
   -6   27   10      0.22      0.00
   -5   27   10     -1.53      0.00
   -4   27   10     -0.43      0.00
   -3   27   10      0.40      0.00
   -2   27   10     -1.01      0.00
   -1   27   10      0.31      0.00
    0   27   10     -0.51      0.00
    1   27   10      0.35      0.00
    2   27   10      0.08      0.00
    3   27   10     -0.73      0.00
    4   27   10      1.30      0.00
    5   27   10      1.40      0.00
    6   27   10     -0.38      0.00
  -12   28   10     -0.11      0.00
  -11   28   10      1.24      0.00
  -10   28   10     -0.12      0.00
   -9   28   10     -0.16      0.00
   -8   28   10      0.03      0.00
   -7   28   10      1.02      0.00
   -6   28   10     -0.30      0.00
   -5   28   10     -0.46      0.00
   -4   28   10     -1.16      0.00
   -3   28   10     -0.95      0.00
   -2   28   10      0.59      0.00
   -1   28   10     -1.28      0.00
    0   28   10      1.77      0.00
    1   28   10      1.29      0.00
    2   28   10     -0.26      0.00
    3   28   10     -0.16      0.00
    4   28   10      0.47      0.00
    5   28   10      0.04      0.00
  -12   29   10      0.66      0.00
  -11   29   10      0.83      0.00
  -10   29   10      1.33      0.00
   -9   29   10     -0.13      0.00
   -8   29   10      0.00      0.00
   -7   29   10     -1.25      0.00
   -6   29   10     -0.74      0.00
   -5   29   10      0.05      0.00
   -4   29   10      0.40      0.00
   -3   29   10      0.77      0.00
   -2   29   10     -0.18      0.00
   -1   29   10     -0.41      0.00
    0   29   10      0.15      0.00
    1   29   10      0.03      0.00
    2   29   10     -0.18      0.00
    3   29   10      0.05      0.00
    4   29   10      0.27      0.00
    5   29   10     -0.20      0.00
  -10   30   10     -0.17      0.00
   -9   30   10      0.47      0.00
   -8   30   10      0.70      0.00
   -7   30   10     -0.25      0.00
   -6   30   10     -0.68      0.00
   -5   30   10     -0.75      0.00
   -4   30   10      0.21      0.00
   -3   30   10      0.66      0.00
   -2   30   10     -0.28      0.00
   -1   30   10      0.21      0.00
    0   30   10      0.51      0.00
    1   30   10     -0.60      0.00
    2   30   10     -1.06      0.00
    3   30   10     -0.70      0.00
    4   30   10      0.18      0.00
   -9   31   10     -0.60      0.00
   -8   31   10     -0.18      0.00
   -7   31   10     -0.07      0.00
   -6   31   10      1.32      0.00
   -5   31   10      0.47      0.00
   -4   31   10      1.50      0.00
   -3   31   10      1.19      0.00
   -2   31   10     -1.62      0.00
   -1   31   10     -0.63      0.00
    0   31   10     -0.06      0.00
    1   31   10     -0.13      0.00
    2   31   10     -0.54      0.00
    3   31   10     -0.78      0.00
    4   31   10     -0.97      0.00
   -7   32   10      0.01      0.00
   -6   32   10     -0.93      0.00
   -5   32   10      1.26      0.00
   -4   32   10      1.50      0.00
   -3   32   10     -0.37      0.00
   -2   32   10      0.23      0.00
   -1   32   10      0.21      0.00
    0   32   10      0.04      0.00
    1   32   10     -0.63      0.00
    2   32   10      0.11      0.00
    3   32   10      0.16      0.00
    4   32   10     -0.07      0.00
   -6   33   10      0.13      0.00
   -5   33   10      0.78      0.00
   -4   33   10      0.57      0.00
   -3   33   10     -0.77      0.00
   -2   33   10     -0.91      0.00
   -1   33   10      0.61      0.00
    0   33   10      0.21      0.00
    1   33   10      1.17      0.00
    2   33   10     -0.11      0.00
   -5   34   10      0.99      0.00
   -4   34   10      0.11      0.00
   -3   34   10     -0.76      0.00
   -2   34   10      0.16      0.00
    0   34   10     -0.43      0.00
    1   34   10      0.26      0.00
    2   34   10      0.32      0.00
    0   35   10      0.86      0.00
  -19    0   11     -1.48      0.00
  -17    0   11      0.36      0.00
  -15    0   11      0.89      0.00
  -13    0   11      1.42      0.00
  -11    0   11     -0.03      0.00
   -9    0   11      1.10      0.00
   -7    0   11     -4.19      0.00
   -5    0   11     -3.06      0.00
   -3    0   11     -1.41      0.00
   -1    0   11     -2.15      0.00
    1    0   11     -1.98      0.00
    3    0   11      0.28      0.00
    5    0   11      3.96      0.00
    7    0   11      0.77      0.00
    9    0   11     -0.94      0.00
   11    0   11      1.63      0.00
  -19    1   11      0.92      0.00
  -18    1   11     -0.38      0.00
  -17    1   11      0.13      0.00
  -16    1   11     -0.79      0.00
  -15    1   11      1.91      0.00
  -14    1   11     -0.70      0.00
  -13    1   11      0.48      0.00
  -12    1   11      0.07      0.00
  -11    1   11      1.58      0.00
  -10    1   11      0.80      0.00
   -9    1   11      2.64      0.00
   -8    1   11      2.54      0.00
   -7    1   11     -1.07      0.00
   -6    1   11     -0.08      0.00
   -5    1   11     -1.06      0.00
   -4    1   11      2.87      0.00
   -3    1   11     -1.11      0.00
   -2    1   11     -0.04      0.00
   -1    1   11      2.84      0.00
    0    1   11      1.05      0.00
    1    1   11     -2.10      0.00
    2    1   11     -2.83      0.00
    3    1   11     -2.68      0.00
    4    1   11     -0.95      0.00
    5    1   11      0.00      0.00
    6    1   11      2.07      0.00
    7    1   11      0.37      0.00
    8    1   11      1.91      0.00
    9    1   11      1.00      0.00
   10    1   11     -0.69      0.00
   11    1   11      0.86      0.00
   12    1   11     -1.03      0.00
  -19    2   11     -0.79      0.00
  -18    2   11      1.20      0.00
  -17    2   11      0.33      0.00
  -16    2   11      0.63      0.00
  -15    2   11     -1.03      0.00
  -14    2   11      0.80      0.00
  -13    2   11     -1.15      0.00
  -12    2   11     -0.37      0.00
  -11    2   11      0.02      0.00
  -10    2   11      1.81      0.00
   -9    2   11      0.54      0.00
   -8    2   11     -2.10      0.00
   -7    2   11     -1.90      0.00
   -6    2   11     -0.24      0.00
   -5    2   11      1.13      0.00
   -4    2   11      0.94      0.00
   -3    2   11      0.98      0.00
   -2    2   11      3.20      0.00
   -1    2   11     -0.09      0.00
    0    2   11      4.10      0.00
    1    2   11     -4.07      0.00
    2    2   11      0.64      0.00
    3    2   11      1.09      0.00
    4    2   11     -0.14      0.00
    5    2   11      2.50      0.00
    6    2   11     -1.87      0.00
    7    2   11      1.26      0.00
    8    2   11      0.96      0.00
    9    2   11     -0.62      0.00
   10    2   11      1.95      0.00
   11    2   11     -0.20      0.00
   12    2   11     -0.27      0.00
  -18    3   11     -0.15      0.00
  -17    3   11     -1.94      0.00
  -16    3   11      0.06      0.00
  -15    3   11      1.01      0.00
  -14    3   11     -0.84      0.00
  -13    3   11      2.31      0.00
  -12    3   11      0.46      0.00
  -11    3   11      1.92      0.00
  -10    3   11      0.55      0.00
   -9    3   11      2.68      0.00
   -8    3   11     -1.83      0.00
   -7    3   11     -2.85      0.00
   -6    3   11     -2.10      0.00
   -5    3   11     -1.43      0.00
   -4    3   11      1.45      0.00
   -3    3   11     -3.77      0.00
   -2    3   11      2.35      0.00
   -1    3   11      0.65      0.00
    0    3   11     -2.06      0.00
    1    3   11     -3.84      0.00
    2    3   11     -0.43      0.00
    3    3   11     -4.54      0.00
    4    3   11     -0.55      0.00
    5    3   11     -0.39      0.00
    6    3   11      1.27      0.00
    7    3   11      1.02      0.00
    8    3   11      0.94      0.00
    9    3   11     -1.16      0.00
   10    3   11     -0.40      0.00
   11    3   11     -0.92      0.00
   12    3   11     -0.88      0.00
  -18    4   11     -0.19      0.00
  -17    4   11     -0.58      0.00
  -16    4   11     -1.18      0.00
  -15    4   11     -1.74      0.00
  -14    4   11      1.05      0.00
  -13    4   11      1.66      0.00
  -12    4   11      1.95      0.00
  -11    4   11      2.05      0.00
  -10    4   11      0.75      0.00
   -9    4   11      1.63      0.00
   -8    4   11     -1.52      0.00
   -7    4   11      2.13      0.00
   -6    4   11     -0.61      0.00
   -5    4   11      2.13      0.00
   -4    4   11     -2.56      0.00
   -3    4   11      3.02      0.00
   -2    4   11      0.39      0.00
   -1    4   11      0.10      0.00
    0    4   11     -1.00      0.00
    1    4   11      2.15      0.00
    2    4   11      1.54      0.00
    3    4   11     -0.64      0.00
    4    4   11     -2.48      0.00
    5    4   11     -0.98      0.00
    6    4   11     -0.48      0.00
    7    4   11      0.80      0.00
    8    4   11      1.67      0.00
    9    4   11     -0.92      0.00
   10    4   11     -0.39      0.00
   11    4   11      1.53      0.00
   12    4   11     -1.34      0.00
  -18    5   11      0.58      0.00
  -17    5   11     -0.09      0.00
  -16    5   11      0.65      0.00
  -15    5   11      0.65      0.00
  -14    5   11      1.72      0.00
  -13    5   11      1.15      0.00
  -12    5   11      1.11      0.00
  -11    5   11      0.37      0.00
  -10    5   11      2.95      0.00
   -9    5   11      0.43      0.00
   -8    5   11     -2.27      0.00
   -7    5   11     -1.96      0.00
   -6    5   11     -1.50      0.00
   -5    5   11     -0.29      0.00
   -4    5   11     -1.81      0.00
   -3    5   11      0.03      0.00
   -2    5   11     -0.55      0.00
   -1    5   11     -1.80      0.00
    0    5   11      0.28      0.00
    1    5   11     -0.96      0.00
    2    5   11      1.35      0.00
    3    5   11     -3.62      0.00
    4    5   11      2.40      0.00
    5    5   11      2.04      0.00
    6    5   11      0.87      0.00
    7    5   11      2.13      0.00
    8    5   11     -1.53      0.00
    9    5   11     -0.44      0.00
   10    5   11      0.25      0.00
   11    5   11     -2.13      0.00
   12    5   11      0.72      0.00
  -18    6   11     -0.14      0.00
  -17    6   11     -0.32      0.00
  -16    6   11      0.33      0.00
  -15    6   11     -0.95      0.00
  -14    6   11      2.45      0.00
  -13    6   11      1.30      0.00
  -12    6   11      1.33      0.00
  -11    6   11     -0.29      0.00
  -10    6   11      2.44      0.00
   -9    6   11      2.07      0.00
   -8    6   11      1.04      0.00
   -7    6   11      0.77      0.00
   -6    6   11     -2.33      0.00
   -5    6   11      0.20      0.00
   -4    6   11     -2.56      0.00
   -3    6   11      2.26      0.00
   -2    6   11     -2.98      0.00
   -1    6   11      1.51      0.00
    0    6   11     -1.42      0.00
    1    6   11      4.09      0.00
    2    6   11     -1.37      0.00
    3    6   11     -3.19      0.00
    4    6   11     -0.62      0.00
    5    6   11     -0.15      0.00
    6    6   11     -0.52      0.00
    7    6   11      1.05      0.00
    8    6   11      0.70      0.00
    9    6   11     -0.93      0.00
   10    6   11      0.67      0.00
   11    6   11     -0.42      0.00
  -18    7   11     -0.62      0.00
  -17    7   11      1.40      0.00
  -16    7   11      0.27      0.00
  -15    7   11      0.62      0.00
  -14    7   11     -0.31      0.00
  -13    7   11     -0.38      0.00
  -12    7   11      0.31      0.00
  -11    7   11      1.97      0.00
  -10    7   11      2.56      0.00
   -9    7   11     -0.32      0.00
   -8    7   11      0.25      0.00
   -7    7   11      0.10      0.00
   -6    7   11      1.00      0.00
   -5    7   11      0.32      0.00
   -4    7   11      0.22      0.00
   -3    7   11      0.12      0.00
   -2    7   11      0.69      0.00
   -1    7   11      1.19      0.00
    0    7   11      2.22      0.00
    1    7   11      0.29      0.00
    2    7   11     -1.83      0.00
    3    7   11      3.78      0.00
    4    7   11      2.83      0.00
    5    7   11     -1.09      0.00
    6    7   11     -1.03      0.00
    7    7   11     -0.24      0.00
    8    7   11     -0.39      0.00
    9    7   11      1.02      0.00
   10    7   11      1.16      0.00
   11    7   11     -0.89      0.00
   12    7   11      1.66      0.00
  -18    8   11      0.07      0.00
  -17    8   11      0.64      0.00
  -16    8   11      0.42      0.00
  -15    8   11      1.33      0.00
  -14    8   11      0.85      0.00
  -13    8   11      0.44      0.00
  -12    8   11     -0.23      0.00
  -11    8   11      2.26      0.00
  -10    8   11      2.32      0.00
   -9    8   11      1.47      0.00
   -8    8   11     -0.28      0.00
   -7    8   11     -1.56      0.00
   -6    8   11      0.39      0.00
   -5    8   11     -2.11      0.00
   -4    8   11     -0.78      0.00
   -3    8   11      0.92      0.00
   -2    8   11     -1.49      0.00
   -1    8   11      1.90      0.00
    0    8   11     -2.44      0.00
    1    8   11      0.70      0.00
    2    8   11     -1.50      0.00
    3    8   11     -0.95      0.00
    4    8   11      0.74      0.00
    5    8   11     -1.92      0.00
    6    8   11      0.41      0.00
    7    8   11      1.19      0.00
    8    8   11     -0.52      0.00
    9    8   11      0.31      0.00
   10    8   11      0.37      0.00
   11    8   11     -0.56      0.00
  -18    9   11      0.18      0.00
  -17    9   11      1.49      0.00
  -16    9   11     -0.06      0.00
  -15    9   11     -1.43      0.00
  -14    9   11     -2.29      0.00
  -13    9   11      0.56      0.00
  -12    9   11      1.88      0.00
  -11    9   11      1.16      0.00
  -10    9   11      2.35      0.00
   -9    9   11     -1.41      0.00
   -8    9   11      2.30      0.00
   -7    9   11     -0.32      0.00
   -6    9   11      2.35      0.00
   -5    9   11      0.19      0.00
   -4    9   11     -0.27      0.00
   -3    9   11     -0.10      0.00
   -2    9   11      3.50      0.00
   -1    9   11     -1.21      0.00
    0    9   11     -0.57      0.00
    1    9   11     -0.88      0.00
    2    9   11      1.19      0.00
    3    9   11      4.00      0.00
    4    9   11     -1.48      0.00
    5    9   11     -0.97      0.00
    6    9   11      0.09      0.00
    7    9   11      0.06      0.00
    8    9   11     -1.16      0.00
    9    9   11      1.25      0.00
   10    9   11     -0.88      0.00
   11    9   11      0.78      0.00
  -17   10   11      1.37      0.00
  -16   10   11      0.36      0.00
  -15   10   11     -0.26      0.00
  -14   10   11     -1.40      0.00
  -13   10   11     -1.83      0.00
  -12   10   11      0.12      0.00
  -11   10   11      1.75      0.00
  -10   10   11     -0.74      0.00
   -9   10   11      0.54      0.00
   -8   10   11     -3.77      0.00
   -7   10   11      1.73      0.00
   -6   10   11     -0.10      0.00
   -5   10   11     -1.99      0.00
   -4   10   11      3.03      0.00
   -3   10   11     -0.23      0.00
   -2   10   11     -1.98      0.00
   -1   10   11     -1.09      0.00
    0   10   11      0.36      0.00
    1   10   11      0.27      0.00
    2   10   11     -0.93      0.00
    3   10   11     -0.77      0.00
    4   10   11     -0.44      0.00
    5   10   11     -0.07      0.00
    6   10   11      2.14      0.00
    7   10   11     -0.38      0.00
    8   10   11     -1.98      0.00
    9   10   11     -1.51      0.00
   10   10   11     -0.13      0.00
   11   10   11      0.51      0.00
  -17   11   11      0.46      0.00
  -16   11   11     -0.72      0.00
  -15   11   11     -1.28      0.00
  -14   11   11     -0.25      0.00
  -13   11   11      1.51      0.00
  -12   11   11     -1.47      0.00
  -11   11   11      0.26      0.00
  -10   11   11     -1.34      0.00
   -9   11   11     -2.34      0.00
   -8   11   11      0.36      0.00
   -7   11   11     -0.69      0.00
   -6   11   11      1.13      0.00
   -5   11   11     -1.38      0.00
   -4   11   11      0.41      0.00
   -3   11   11      0.64      0.00
   -2   11   11     -0.84      0.00
   -1   11   11     -2.67      0.00
    0   11   11      0.04      0.00
    1   11   11      0.11      0.00
    2   11   11     -0.14      0.00
    3   11   11     -1.86      0.00
    4   11   11     -2.80      0.00
    5   11   11      0.26      0.00
    6   11   11     -0.19      0.00
    7   11   11     -2.01      0.00
    8   11   11     -0.48      0.00
    9   11   11      0.13      0.00
   10   11   11     -0.64      0.00
   11   11   11     -0.16      0.00
  -17   12   11      0.13      0.00
  -16   12   11     -0.11      0.00
  -15   12   11     -0.55      0.00
  -14   12   11     -0.57      0.00
  -13   12   11     -0.37      0.00
  -12   12   11      0.27      0.00
  -11   12   11     -1.01      0.00
  -10   12   11      0.03      0.00
   -9   12   11     -3.65      0.00
   -8   12   11     -0.60      0.00
   -7   12   11      0.80      0.00
   -6   12   11     -0.28      0.00
   -5   12   11      1.86      0.00
   -4   12   11      2.53      0.00
   -3   12   11     -3.19      0.00
   -2   12   11      0.63      0.00
   -1   12   11      0.67      0.00
    0   12   11      4.58      0.00
    1   12   11     -2.38      0.00
    2   12   11     -2.90      0.00
    3   12   11     -0.26      0.00
    4   12   11     -0.53      0.00
    5   12   11      0.99      0.00
    6   12   11     -0.02      0.00
    7   12   11     -0.23      0.00
    8   12   11     -0.38      0.00
    9   12   11     -1.10      0.00
   10   12   11      1.32      0.00
  -17   13   11     -0.79      0.00
  -16   13   11     -0.46      0.00
  -15   13   11      1.29      0.00
  -14   13   11      2.65      0.00
  -13   13   11     -1.88      0.00
  -12   13   11      0.23      0.00
  -11   13   11     -0.31      0.00
  -10   13   11     -2.12      0.00
   -9   13   11     -0.30      0.00
   -8   13   11     -2.16      0.00
   -7   13   11      0.83      0.00
   -6   13   11     -2.53      0.00
   -5   13   11      0.33      0.00
   -4   13   11      0.37      0.00
   -3   13   11      0.76      0.00
   -2   13   11     -3.04      0.00
   -1   13   11      3.64      0.00
    0   13   11     -0.73      0.00
    1   13   11     -0.06      0.00
    2   13   11      1.67      0.00
    3   13   11     -2.64      0.00
    4   13   11      0.18      0.00
    5   13   11     -1.47      0.00
    6   13   11     -0.47      0.00
    7   13   11     -0.79      0.00
    8   13   11     -0.52      0.00
    9   13   11      0.57      0.00
   10   13   11     -1.44      0.00
  -16   14   11      1.61      0.00
  -15   14   11     -0.41      0.00
  -14   14   11      0.71      0.00
  -13   14   11      0.96      0.00
  -12   14   11     -0.85      0.00
  -11   14   11      1.28      0.00
  -10   14   11     -1.54      0.00
   -9   14   11     -1.60      0.00
   -8   14   11      0.40      0.00
   -7   14   11     -0.70      0.00
   -6   14   11      0.13      0.00
   -5   14   11     -0.27      0.00
   -4   14   11     -0.49      0.00
   -3   14   11     -1.50      0.00
   -2   14   11      4.99      0.00
   -1   14   11      1.17      0.00
    0   14   11      1.06      0.00
    1   14   11     -1.78      0.00
    2   14   11     -0.26      0.00
    3   14   11      2.44      0.00
    4   14   11     -1.07      0.00
    5   14   11      0.35      0.00
    6   14   11     -0.70      0.00
    7   14   11     -0.36      0.00
    8   14   11     -0.09      0.00
    9   14   11     -0.92      0.00
   10   14   11      1.39      0.00
  -16   15   11     -0.43      0.00
  -15   15   11      2.48      0.00
  -14   15   11     -0.30      0.00
  -13   15   11     -0.84      0.00
  -12   15   11      0.88      0.00
  -11   15   11     -1.10      0.00
  -10   15   11      1.17      0.00
   -9   15   11     -1.45      0.00
   -8   15   11      0.68      0.00
   -7   15   11     -0.56      0.00
   -6   15   11     -2.69      0.00
   -5   15   11      2.02      0.00
   -4   15   11     -1.73      0.00
   -3   15   11      2.84      0.00
   -2   15   11     -1.05      0.00
   -1   15   11      2.86      0.00
    0   15   11     -1.54      0.00
    1   15   11      1.33      0.00
    2   15   11      1.30      0.00
    3   15   11     -3.57      0.00
    4   15   11     -1.46      0.00
    5   15   11     -0.95      0.00
    6   15   11     -0.35      0.00
    7   15   11      0.56      0.00
    8   15   11     -0.09      0.00
    9   15   11      1.56      0.00
  -16   16   11     -0.38      0.00
  -15   16   11      0.31      0.00
  -14   16   11      0.02      0.00
  -13   16   11     -0.52      0.00
  -12   16   11      0.88      0.00
  -11   16   11     -0.39      0.00
  -10   16   11     -1.27      0.00
   -9   16   11      1.09      0.00
   -8   16   11     -0.39      0.00
   -7   16   11      0.19      0.00
   -6   16   11     -1.55      0.00
   -5   16   11     -2.65      0.00
   -4   16   11      1.69      0.00
   -3   16   11     -0.50      0.00
   -2   16   11      3.11      0.00
   -1   16   11     -2.21      0.00
    0   16   11     -1.14      0.00
    1   16   11     -0.55      0.00
    2   16   11     -0.40      0.00
    3   16   11      0.52      0.00
    4   16   11     -0.37      0.00
    5   16   11      0.14      0.00
    6   16   11      1.22      0.00
    7   16   11     -1.88      0.00
    8   16   11      0.95      0.00
    9   16   11      0.95      0.00
  -16   17   11      0.24      0.00
  -15   17   11     -0.71      0.00
  -14   17   11     -1.21      0.00
  -13   17   11      1.60      0.00
  -12   17   11     -2.97      0.00
  -11   17   11      2.10      0.00
  -10   17   11     -0.45      0.00
   -9   17   11     -0.38      0.00
   -8   17   11      1.54      0.00
   -7   17   11     -1.70      0.00
   -6   17   11     -1.03      0.00
   -5   17   11      1.14      0.00
   -4   17   11     -1.49      0.00
   -3   17   11      1.40      0.00
   -2   17   11     -2.24      0.00
   -1   17   11      1.79      0.00
    0   17   11     -0.86      0.00
    1   17   11      1.26      0.00
    2   17   11     -1.89      0.00
    3   17   11     -1.52      0.00
    4   17   11      1.91      0.00
    5   17   11      2.04      0.00
    6   17   11     -0.76      0.00
    7   17   11      0.80      0.00
    8   17   11      0.16      0.00
    9   17   11      0.77      0.00
  -15   18   11      1.01      0.00
  -14   18   11      0.47      0.00
  -13   18   11     -0.70      0.00
  -12   18   11      1.34      0.00
  -11   18   11     -1.38      0.00
  -10   18   11      0.40      0.00
   -9   18   11      0.02      0.00
   -8   18   11      0.38      0.00
   -7   18   11     -1.47      0.00
   -6   18   11     -1.25      0.00
   -5   18   11      0.00      0.00
   -4   18   11      0.39      0.00
   -3   18   11     -1.97      0.00
   -2   18   11      1.68      0.00
   -1   18   11     -0.52      0.00
    0   18   11      0.50      0.00
    1   18   11     -0.49      0.00
    2   18   11      1.27      0.00
    3   18   11      1.13      0.00
    4   18   11     -0.13      0.00
    5   18   11     -0.10      0.00
    6   18   11     -1.13      0.00
    7   18   11     -1.82      0.00
    8   18   11     -0.25      0.00
  -15   19   11      0.42      0.00
  -14   19   11     -0.01      0.00
  -13   19   11      0.43      0.00
  -12   19   11     -0.82      0.00
  -11   19   11      1.86      0.00
  -10   19   11     -1.25      0.00
   -9   19   11      0.31      0.00
   -8   19   11      0.64      0.00
   -7   19   11     -1.27      0.00
   -6   19   11      0.34      0.00
   -5   19   11      0.45      0.00
   -4   19   11     -1.73      0.00
   -3   19   11     -0.08      0.00
   -2   19   11      0.64      0.00
   -1   19   11      1.57      0.00
    0   19   11      1.13      0.00
    1   19   11     -0.62      0.00
    2   19   11     -0.81      0.00
    3   19   11      1.30      0.00
    4   19   11      0.44      0.00
    5   19   11     -0.75      0.00
    6   19   11      0.21      0.00
    7   19   11      0.72      0.00
    8   19   11      1.72      0.00
  -15   20   11     -0.52      0.00
  -14   20   11      1.18      0.00
  -13   20   11     -1.74      0.00
  -12   20   11      0.43      0.00
  -11   20   11     -0.42      0.00
  -10   20   11     -0.48      0.00
   -9   20   11      0.60      0.00
   -8   20   11     -0.17      0.00
   -7   20   11     -0.51      0.00
   -6   20   11      2.87      0.00
   -5   20   11     -0.64      0.00
   -4   20   11      0.58      0.00
   -3   20   11     -0.20      0.00
   -2   20   11      1.56      0.00
   -1   20   11     -0.87      0.00
    0   20   11     -2.29      0.00
    1   20   11      0.62      0.00
    2   20   11      0.11      0.00
    3   20   11     -1.37      0.00
    4   20   11     -0.80      0.00
    5   20   11     -0.91      0.00
    6   20   11     -0.23      0.00
    7   20   11      1.32      0.00
    8   20   11      1.37      0.00
  -14   21   11     -1.18      0.00
  -13   21   11      0.30      0.00
  -12   21   11      0.64      0.00
  -11   21   11      0.18      0.00
  -10   21   11     -0.65      0.00
   -9   21   11      0.21      0.00
   -8   21   11     -0.01      0.00
   -7   21   11      0.04      0.00
   -6   21   11      0.41      0.00
   -5   21   11      1.05      0.00
   -4   21   11     -0.09      0.00
   -3   21   11      1.28      0.00
   -2   21   11     -0.14      0.00
   -1   21   11     -1.49      0.00
    0   21   11     -0.69      0.00
    1   21   11     -1.85      0.00
    2   21   11      1.00      0.00
    3   21   11     -0.23      0.00
    4   21   11     -0.26      0.00
    5   21   11      2.37      0.00
    6   21   11      1.49      0.00
    7   21   11      0.53      0.00
  -14   22   11      0.74      0.00
  -13   22   11     -1.77      0.00
  -12   22   11      1.69      0.00
  -11   22   11      0.24      0.00
  -10   22   11      0.08      0.00
   -9   22   11      1.04      0.00
   -8   22   11     -0.62      0.00
   -7   22   11      1.15      0.00
   -6   22   11      0.16      0.00
   -5   22   11     -0.33      0.00
   -4   22   11      1.07      0.00
   -3   22   11     -0.01      0.00
   -2   22   11     -1.42      0.00
   -1   22   11     -1.91      0.00
    0   22   11      0.07      0.00
    1   22   11      0.78      0.00
    2   22   11     -0.52      0.00
    3   22   11     -0.20      0.00
    4   22   11      0.88      0.00
    5   22   11     -0.04      0.00
    6   22   11      0.94      0.00
    7   22   11      1.01      0.00
  -14   23   11     -0.39      0.00
  -13   23   11      0.70      0.00
  -12   23   11      0.56      0.00
  -11   23   11      0.04      0.00
  -10   23   11      0.55      0.00
   -9   23   11     -0.64      0.00
   -8   23   11     -0.04      0.00
   -7   23   11     -1.05      0.00
   -6   23   11      0.30      0.00
   -5   23   11     -0.05      0.00
   -4   23   11      0.70      0.00
   -3   23   11     -0.44      0.00
   -2   23   11     -0.88      0.00
   -1   23   11      0.29      0.00
    0   23   11     -0.25      0.00
    1   23   11      1.17      0.00
    2   23   11     -0.36      0.00
    3   23   11     -0.27      0.00
    4   23   11      0.80      0.00
    5   23   11      0.08      0.00
    6   23   11     -2.03      0.00
  -14   24   11     -0.52      0.00
  -13   24   11      0.63      0.00
  -12   24   11      1.43      0.00
  -11   24   11     -0.08      0.00
  -10   24   11     -0.02      0.00
   -9   24   11      1.18      0.00
   -8   24   11     -1.79      0.00
   -7   24   11      0.08      0.00
   -6   24   11     -1.51      0.00
   -5   24   11      1.42      0.00
   -4   24   11     -0.51      0.00
   -3   24   11      0.52      0.00
   -2   24   11     -0.06      0.00
   -1   24   11      0.99      0.00
    0   24   11      0.89      0.00
    1   24   11      0.56      0.00
    2   24   11      0.11      0.00
    3   24   11      0.40      0.00
    4   24   11     -0.22      0.00
    5   24   11     -0.36      0.00
    6   24   11     -0.02      0.00
  -14   25   11     -0.51      0.00
  -13   25   11     -0.02      0.00
  -12   25   11     -0.21      0.00
  -11   25   11      0.61      0.00
  -10   25   11     -0.27      0.00
   -9   25   11     -0.42      0.00
   -8   25   11      0.01      0.00
   -7   25   11     -0.82      0.00
   -6   25   11      1.08      0.00
   -5   25   11      0.35      0.00
   -4   25   11      0.98      0.00
   -3   25   11     -0.12      0.00
   -2   25   11      1.18      0.00
   -1   25   11     -0.23      0.00
    0   25   11     -0.44      0.00
    1   25   11     -0.95      0.00
    2   25   11      0.39      0.00
    3   25   11      0.25      0.00
    4   25   11     -0.43      0.00
    5   25   11     -1.86      0.00
    6   25   11     -1.61      0.00
  -14   26   11      0.31      0.00
  -13   26   11      0.75      0.00
  -12   26   11     -0.43      0.00
  -11   26   11     -1.28      0.00
  -10   26   11      0.86      0.00
   -9   26   11     -0.22      0.00
   -8   26   11     -1.24      0.00
   -7   26   11      1.06      0.00
   -6   26   11      0.12      0.00
   -5   26   11      0.36      0.00
   -4   26   11      0.26      0.00
   -3   26   11      1.10      0.00
   -2   26   11     -0.12      0.00
   -1   26   11     -0.22      0.00
    0   26   11     -1.06      0.00
    1   26   11      0.50      0.00
    2   26   11     -0.90      0.00
    3   26   11      0.34      0.00
    4   26   11     -0.41      0.00
    5   26   11      0.56      0.00
    6   26   11     -0.72      0.00
  -13   27   11     -0.22      0.00
  -12   27   11      0.43      0.00
  -11   27   11     -0.43      0.00
  -10   27   11     -0.21      0.00
   -9   27   11     -0.16      0.00
   -8   27   11      0.88      0.00
   -7   27   11      0.70      0.00
   -6   27   11      1.30      0.00
   -5   27   11      0.22      0.00
   -4   27   11     -0.45      0.00
   -3   27   11      0.14      0.00
   -2   27   11      0.16      0.00
   -1   27   11     -0.56      0.00
    0   27   11     -0.37      0.00
    1   27   11     -0.24      0.00
    2   27   11      0.88      0.00
    3   27   11     -0.44      0.00
    4   27   11     -0.58      0.00
    5   27   11     -0.19      0.00
  -12   28   11     -1.62      0.00
  -11   28   11      0.13      0.00
  -10   28   11      0.52      0.00
   -9   28   11     -0.42      0.00
   -8   28   11     -0.07      0.00
   -7   28   11      0.98      0.00
   -6   28   11     -0.72      0.00
   -5   28   11      0.07      0.00
   -4   28   11      0.30      0.00
   -3   28   11     -1.06      0.00
   -2   28   11      1.15      0.00
   -1   28   11     -0.51      0.00
    0   28   11      0.40      0.00
    1   28   11      0.41      0.00
    2   28   11      0.09      0.00
    3   28   11      0.54      0.00
    4   28   11      0.43      0.00
    5   28   11      0.18      0.00
  -12   29   11      0.33      0.00
  -10   29   11     -0.20      0.00
   -9   29   11     -0.22      0.00
   -8   29   11      1.64      0.00
   -7   29   11     -0.67      0.00
   -6   29   11     -0.18      0.00
   -5   29   11     -1.47      0.00
   -4   29   11     -1.36      0.00
   -3   29   11      0.83      0.00
   -2   29   11     -0.17      0.00
   -1   29   11      0.65      0.00
    0   29   11      0.45      0.00
    1   29   11      0.13      0.00
    2   29   11      1.07      0.00
    3   29   11      0.75      0.00
    4   29   11      0.44      0.00
    5   29   11      1.03      0.00
   -9   30   11     -0.06      0.00
   -8   30   11     -0.84      0.00
   -7   30   11      0.19      0.00
   -6   30   11     -0.25      0.00
   -5   30   11     -0.49      0.00
   -4   30   11     -1.00      0.00
   -3   30   11      0.01      0.00
   -2   30   11      0.72      0.00
   -1   30   11     -0.87      0.00
    0   30   11     -0.03      0.00
    1   30   11      0.09      0.00
    2   30   11      0.32      0.00
    3   30   11      0.04      0.00
    4   30   11      0.39      0.00
   -8   31   11      0.32      0.00
   -7   31   11     -1.15      0.00
   -6   31   11     -0.85      0.00
   -5   31   11     -1.39      0.00
   -4   31   11     -0.05      0.00
   -3   31   11      1.02      0.00
   -2   31   11     -0.41      0.00
   -1   31   11     -0.28      0.00
    0   31   11     -0.32      0.00
    1   31   11     -0.82      0.00
    2   31   11      0.26      0.00
    3   31   11     -0.27      0.00
   -7   32   11      1.28      0.00
   -6   32   11     -0.31      0.00
   -5   32   11     -0.53      0.00
   -4   32   11      0.43      0.00
   -3   32   11      0.19      0.00
   -2   32   11     -0.52      0.00
   -1   32   11      0.15      0.00
    0   32   11     -0.58      0.00
    1   32   11     -0.31      0.00
    2   32   11     -0.96      0.00
   -5   33   11      0.06      0.00
   -4   33   11      0.88      0.00
   -3   33   11      0.51      0.00
   -2   33   11     -0.44      0.00
   -1   33   11      0.44      0.00
    0   33   11     -0.79      0.00
    1   33   11     -0.19      0.00
   -1   34   11      0.38      0.00
    0   34   11      0.50      0.00
  -18    0   12     -0.50      0.00
  -16    0   12     -1.86      0.00
  -14    0   12     -0.42      0.00
  -12    0   12      0.53      0.00
  -10    0   12     -1.72      0.00
   -8    0   12      2.68      0.00
   -6    0   12      3.43      0.00
   -4    0   12      0.89      0.00
   -2    0   12     -3.23      0.00
    0    0   12      2.87      0.00
    2    0   12      1.19      0.00
    4    0   12     -0.98      0.00
    6    0   12     -1.27      0.00
    8    0   12     -0.51      0.00
   10    0   12     -0.94      0.00
  -18    1   12      0.80      0.00
  -17    1   12      0.64      0.00
  -16    1   12      0.59      0.00
  -15    1   12      0.10      0.00
  -14    1   12     -0.23      0.00
  -13    1   12     -0.69      0.00
  -12    1   12     -0.92      0.00
  -11    1   12     -2.76      0.00
  -10    1   12      0.32      0.00
   -9    1   12     -0.62      0.00
   -8    1   12      0.47      0.00
   -7    1   12     -0.02      0.00
   -6    1   12      0.63      0.00
   -5    1   12     -2.35      0.00
   -4    1   12      2.59      0.00
   -3    1   12      0.47      0.00
   -2    1   12      0.18      0.00
   -1    1   12     -1.60      0.00
    0    1   12      1.44      0.00
    1    1   12      1.53      0.00
    2    1   12      0.90      0.00
    3    1   12      2.74      0.00
    4    1   12      1.50      0.00
    5    1   12      0.48      0.00
    6    1   12     -0.33      0.00
    7    1   12     -2.83      0.00
    8    1   12      0.68      0.00
    9    1   12     -0.21      0.00
   10    1   12      1.71      0.00
   11    1   12      1.58      0.00
  -18    2   12      0.53      0.00
  -17    2   12      0.50      0.00
  -16    2   12      1.22      0.00
  -15    2   12      0.61      0.00
  -14    2   12     -1.48      0.00
  -13    2   12     -0.12      0.00
  -12    2   12     -0.93      0.00
  -11    2   12     -0.42      0.00
  -10    2   12     -1.88      0.00
   -9    2   12      0.70      0.00
   -8    2   12      1.40      0.00
   -7    2   12     -0.19      0.00
   -6    2   12      1.14      0.00
   -5    2   12     -1.43      0.00
   -4    2   12      0.34      0.00
   -3    2   12     -2.64      0.00
   -2    2   12      0.44      0.00
   -1    2   12      0.35      0.00
    0    2   12      1.75      0.00
    1    2   12     -3.37      0.00
    2    2   12      0.80      0.00
    3    2   12      1.32      0.00
    4    2   12     -0.40      0.00
    5    2   12      1.10      0.00
    6    2   12     -1.53      0.00
    7    2   12     -0.14      0.00
    8    2   12      0.33      0.00
    9    2   12     -1.08      0.00
   10    2   12     -0.18      0.00
   11    2   12      0.47      0.00
  -19    3   12      0.23      0.00
  -18    3   12      0.24      0.00
  -17    3   12      0.22      0.00
  -16    3   12     -0.86      0.00
  -15    3   12      1.06      0.00
  -14    3   12     -3.16      0.00
  -13    3   12     -0.97      0.00
  -12    3   12     -1.70      0.00
  -11    3   12     -0.30      0.00
  -10    3   12     -1.77      0.00
   -9    3   12      0.72      0.00
   -8    3   12     -1.02      0.00
   -7    3   12      1.82      0.00
   -6    3   12      0.53      0.00
   -5    3   12      0.61      0.00
   -4    3   12      4.21      0.00
   -3    3   12      0.22      0.00
   -2    3   12      0.42      0.00
   -1    3   12      1.13      0.00
    0    3   12     -1.45      0.00
    1    3   12      0.03      0.00
    2    3   12      3.57      0.00
    3    3   12      1.48      0.00
    4    3   12      1.49      0.00
    5    3   12     -2.04      0.00
    6    3   12     -0.44      0.00
    7    3   12     -1.63      0.00
    8    3   12      0.43      0.00
    9    3   12      1.22      0.00
   10    3   12     -0.25      0.00
   11    3   12      0.90      0.00
  -18    4   12     -0.29      0.00
  -17    4   12      0.15      0.00
  -16    4   12      1.46      0.00
  -15    4   12     -1.80      0.00
  -14    4   12      0.26      0.00
  -13    4   12     -0.66      0.00
  -12    4   12      0.08      0.00
  -11    4   12     -2.76      0.00
  -10    4   12     -2.08      0.00
   -9    4   12     -0.54      0.00
   -8    4   12     -1.94      0.00
   -7    4   12      0.57      0.00
   -6    4   12     -1.22      0.00
   -5    4   12      1.27      0.00
   -4    4   12     -1.85      0.00
   -3    4   12      0.61      0.00
   -2    4   12      1.31      0.00
   -1    4   12     -1.46      0.00
    0    4   12     -0.80      0.00
    1    4   12     -3.00      0.00
    2    4   12      0.98      0.00
    3    4   12      0.28      0.00
    4    4   12     -1.61      0.00
    5    4   12      2.01      0.00
    6    4   12     -1.80      0.00
    7    4   12      0.64      0.00
    8    4   12     -0.42      0.00
    9    4   12     -1.56      0.00
   10    4   12      0.72      0.00
   11    4   12      0.02      0.00
  -18    5   12     -0.30      0.00
  -17    5   12     -2.11      0.00
  -16    5   12      0.01      0.00
  -15    5   12     -0.05      0.00
  -14    5   12     -1.18      0.00
  -13    5   12      1.08      0.00
  -12    5   12     -0.53      0.00
  -11    5   12     -1.95      0.00
  -10    5   12     -1.34      0.00
   -9    5   12     -0.61      0.00
   -8    5   12      0.02      0.00
   -7    5   12      1.33      0.00
   -6    5   12     -0.19      0.00
   -5    5   12      1.84      0.00
   -4    5   12      2.42      0.00
   -3    5   12     -1.98      0.00
   -2    5   12     -1.59      0.00
   -1    5   12     -1.15      0.00
    0    5   12     -0.01      0.00
    1    5   12      1.09      0.00
    2    5   12      2.66      0.00
    3    5   12     -3.32      0.00
    4    5   12     -0.31      0.00
    5    5   12     -1.06      0.00
    6    5   12     -0.34      0.00
    7    5   12      0.21      0.00
    8    5   12     -0.11      0.00
    9    5   12     -0.95      0.00
   10    5   12      0.46      0.00
   11    5   12     -0.21      0.00
  -17    6   12     -0.08      0.00
  -16    6   12      0.04      0.00
  -15    6   12     -1.07      0.00
  -14    6   12      0.79      0.00
  -13    6   12     -0.79      0.00
  -12    6   12     -1.81      0.00
  -11    6   12     -2.15      0.00
  -10    6   12     -1.66      0.00
   -9    6   12     -0.37      0.00
   -8    6   12     -0.75      0.00
   -7    6   12      1.63      0.00
   -6    6   12     -1.59      0.00
   -5    6   12      2.38      0.00
   -4    6   12     -1.97      0.00
   -3    6   12      2.19      0.00
   -2    6   12     -2.36      0.00
   -1    6   12      1.12      0.00
    0    6   12     -2.07      0.00
    1    6   12      2.09      0.00
    2    6   12     -1.53      0.00
    3    6   12      0.53      0.00
    4    6   12      1.90      0.00
    5    6   12      0.96      0.00
    6    6   12      0.01      0.00
    7    6   12     -1.35      0.00
    8    6   12      0.36      0.00
    9    6   12     -0.61      0.00
   10    6   12     -0.95      0.00
   11    6   12      0.64      0.00
  -17    7   12     -0.71      0.00
  -16    7   12      0.95      0.00
  -15    7   12      0.96      0.00
  -14    7   12      1.48      0.00
  -13    7   12      0.15      0.00
  -12    7   12     -1.86      0.00
  -11    7   12     -2.92      0.00
  -10    7   12      0.58      0.00
   -9    7   12     -1.04      0.00
   -8    7   12      0.39      0.00
   -7    7   12     -1.62      0.00
   -6    7   12      0.10      0.00
   -5    7   12      1.07      0.00
   -4    7   12     -1.68      0.00
   -3    7   12     -2.71      0.00
   -2    7   12     -0.80      0.00
   -1    7   12      0.92      0.00
    0    7   12      2.48      0.00
    1    7   12      0.10      0.00
    2    7   12     -1.72      0.00
    3    7   12     -2.56      0.00
    4    7   12      0.63      0.00
    5    7   12     -1.14      0.00
    6    7   12     -1.26      0.00
    7    7   12      1.78      0.00
    8    7   12     -0.52      0.00
    9    7   12     -0.32      0.00
   10    7   12      0.31      0.00
   11    7   12     -1.70      0.00
  -17    8   12     -0.95      0.00
  -16    8   12      0.34      0.00
  -15    8   12      0.72      0.00
  -14    8   12      1.05      0.00
  -13    8   12     -0.29      0.00
  -12    8   12     -0.54      0.00
  -11    8   12     -0.78      0.00
  -10    8   12     -0.02      0.00
   -9    8   12      0.44      0.00
   -8    8   12      1.43      0.00
   -7    8   12     -0.24      0.00
   -6    8   12      0.03      0.00
   -5    8   12      1.35      0.00
   -4    8   12     -0.19      0.00
   -3    8   12      1.16      0.00
   -2    8   12      0.13      0.00
   -1    8   12      3.00      0.00
    0    8   12     -2.47      0.00
    1    8   12      1.35      0.00
    2    8   12      1.29      0.00
    3    8   12      1.88      0.00
    4    8   12      0.35      0.00
    5    8   12     -1.27      0.00
    6    8   12     -1.08      0.00
    7    8   12      1.00      0.00
    8    8   12      1.84      0.00
    9    8   12      0.92      0.00
   10    8   12     -0.47      0.00
   11    8   12      1.25      0.00
  -17    9   12      1.51      0.00
  -16    9   12      1.04      0.00
  -15    9   12      1.09      0.00
  -14    9   12      0.62      0.00
  -13    9   12     -0.60      0.00
  -12    9   12     -0.81      0.00
  -11    9   12      0.14      0.00
  -10    9   12      1.35      0.00
   -9    9   12      0.43      0.00
   -8    9   12      0.41      0.00
   -7    9   12     -1.07      0.00
   -6    9   12      1.58      0.00
   -5    9   12     -1.47      0.00
   -4    9   12     -0.94      0.00
   -3    9   12      0.24      0.00
   -2    9   12      2.81      0.00
   -1    9   12     -1.24      0.00
    0    9   12      0.90      0.00
    1    9   12      0.06      0.00
    2    9   12     -1.99      0.00
    3    9   12      1.77      0.00
    4    9   12     -0.34      0.00
    5    9   12     -1.12      0.00
    6    9   12      1.01      0.00
    7    9   12      1.54      0.00
    8    9   12      0.17      0.00
    9    9   12     -0.13      0.00
   10    9   12      0.46      0.00
  -17   10   12      0.47      0.00
  -16   10   12      0.11      0.00
  -15   10   12      0.29      0.00
  -14   10   12     -0.37      0.00
  -13   10   12      1.18      0.00
  -12   10   12     -1.13      0.00
  -11   10   12      1.28      0.00
  -10   10   12      1.01      0.00
   -9   10   12      2.37      0.00
   -8   10   12      0.29      0.00
   -7   10   12     -1.07      0.00
   -6   10   12      0.89      0.00
   -5   10   12     -1.94      0.00
   -4   10   12      0.47      0.00
   -3   10   12      1.35      0.00
   -2   10   12      0.13      0.00
   -1   10   12     -1.76      0.00
    0   10   12     -1.80      0.00
    1   10   12      3.38      0.00
    2   10   12      2.81      0.00
    3   10   12      0.41      0.00
    4   10   12     -0.16      0.00
    5   10   12     -1.19      0.00
    6   10   12      0.49      0.00
    7   10   12      0.09      0.00
    8   10   12      0.63      0.00
    9   10   12     -0.77      0.00
   10   10   12     -0.77      0.00
  -17   11   12      0.87      0.00
  -16   11   12     -1.60      0.00
  -15   11   12     -1.01      0.00
  -14   11   12     -1.25      0.00
  -13   11   12      0.26      0.00
  -12   11   12      1.02      0.00
  -11   11   12      0.46      0.00
  -10   11   12      2.61      0.00
   -9   11   12      0.67      0.00
   -8   11   12      1.58      0.00
   -7   11   12      0.11      0.00
   -6   11   12      0.00      0.00
   -5   11   12     -1.02      0.00
   -4   11   12      0.50      0.00
   -3   11   12     -0.26      0.00
   -2   11   12      0.27      0.00
   -1   11   12     -2.51      0.00
    0   11   12      1.80      0.00
    1   11   12     -0.68      0.00
    2   11   12     -0.46      0.00
    3   11   12      1.81      0.00
    4   11   12     -0.33      0.00
    5   11   12      1.66      0.00
    6   11   12      0.34      0.00
    7   11   12      0.12      0.00
    8   11   12     -0.80      0.00
    9   11   12      1.19      0.00
   10   11   12      0.21      0.00
  -17   12   12     -0.19      0.00
  -16   12   12     -0.42      0.00
  -15   12   12     -1.46      0.00
  -14   12   12      1.20      0.00
  -13   12   12     -0.32      0.00
  -12   12   12     -0.12      0.00
  -11   12   12      1.31      0.00
  -10   12   12      0.91      0.00
   -9   12   12      1.81      0.00
   -8   12   12     -1.93      0.00
   -7   12   12      1.38      0.00
   -6   12   12      0.17      0.00
   -5   12   12     -0.99      0.00
   -4   12   12      1.48      0.00
   -3   12   12     -1.04      0.00
   -2   12   12     -3.27      0.00
   -1   12   12     -2.17      0.00
    0   12   12      2.19      0.00
    1   12   12      0.07      0.00
    2   12   12     -0.39      0.00
    3   12   12     -0.32      0.00
    4   12   12      0.78      0.00
    5   12   12     -0.14      0.00
    6   12   12     -0.40      0.00
    7   12   12      0.76      0.00
    8   12   12      0.22      0.00
    9   12   12     -0.59      0.00
  -16   13   12     -1.69      0.00
  -15   13   12     -0.73      0.00
  -14   13   12      0.29      0.00
  -13   13   12      0.82      0.00
  -12   13   12     -0.57      0.00
  -11   13   12      1.19      0.00
  -10   13   12      0.19      0.00
   -9   13   12      0.20      0.00
   -8   13   12      0.61      0.00
   -7   13   12     -0.01      0.00
   -6   13   12      0.93      0.00
   -5   13   12      0.89      0.00
   -4   13   12     -1.60      0.00
   -3   13   12     -0.63      0.00
   -2   13   12     -1.19      0.00
   -1   13   12      1.12      0.00
    0   13   12     -1.16      0.00
    1   13   12     -2.01      0.00
    2   13   12      0.88      0.00
    3   13   12      1.58      0.00
    4   13   12      1.48      0.00
    5   13   12      0.81      0.00
    6   13   12      1.38      0.00
    7   13   12     -0.04      0.00
    8   13   12     -0.69      0.00
    9   13   12      0.94      0.00
  -16   14   12      0.01      0.00
  -15   14   12     -0.03      0.00
  -14   14   12     -0.19      0.00
  -13   14   12     -0.91      0.00
  -12   14   12      0.92      0.00
  -11   14   12     -0.80      0.00
  -10   14   12      1.61      0.00
   -9   14   12     -1.59      0.00
   -8   14   12     -0.01      0.00
   -7   14   12      1.78      0.00
   -6   14   12      0.83      0.00
   -5   14   12      0.87      0.00
   -4   14   12      0.05      0.00
   -3   14   12     -3.26      0.00
   -2   14   12     -0.15      0.00
   -1   14   12     -0.63      0.00
    0   14   12      2.28      0.00
    1   14   12     -0.94      0.00
    2   14   12     -0.61      0.00
    3   14   12      1.42      0.00
    4   14   12     -1.50      0.00
    5   14   12     -0.71      0.00
    6   14   12     -0.61      0.00
    7   14   12      0.10      0.00
    8   14   12     -0.75      0.00
    9   14   12     -1.55      0.00
  -16   15   12     -0.71      0.00
  -15   15   12      0.39      0.00
  -14   15   12      1.26      0.00
  -13   15   12     -1.35      0.00
  -12   15   12      0.74      0.00
  -11   15   12      0.17      0.00
  -10   15   12     -0.75      0.00
   -9   15   12      0.69      0.00
   -8   15   12     -1.57      0.00
   -7   15   12      2.01      0.00
   -6   15   12      0.37      0.00
   -5   15   12     -0.16      0.00
   -4   15   12     -1.33      0.00
   -3   15   12      2.75      0.00
   -2   15   12     -1.69      0.00
   -1   15   12      2.02      0.00
    0   15   12     -1.99      0.00
    1   15   12      0.45      0.00
    2   15   12      3.47      0.00
    3   15   12     -0.90      0.00
    4   15   12      0.24      0.00
    5   15   12     -0.89      0.00
    6   15   12      0.71      0.00
    7   15   12     -0.83      0.00
    8   15   12     -2.38      0.00
    9   15   12      1.19      0.00
  -16   16   12      1.02      0.00
  -15   16   12     -0.84      0.00
  -14   16   12     -1.04      0.00
  -13   16   12      1.65      0.00
  -12   16   12     -0.93      0.00
  -11   16   12      1.24      0.00
  -10   16   12     -0.06      0.00
   -9   16   12     -0.81      0.00
   -8   16   12      1.19      0.00
   -7   16   12      1.01      0.00
   -6   16   12      0.87      0.00
   -5   16   12     -0.10      0.00
   -4   16   12      0.88      0.00
   -3   16   12     -1.46      0.00
   -2   16   12      0.61      0.00
   -1   16   12     -0.91      0.00
    0   16   12      1.37      0.00
    1   16   12      0.15      0.00
    2   16   12     -1.59      0.00
    3   16   12     -0.40      0.00
    4   16   12     -1.27      0.00
    5   16   12     -0.09      0.00
    6   16   12      0.92      0.00
    7   16   12     -0.21      0.00
    8   16   12      0.37      0.00
  -15   17   12      1.59      0.00
  -14   17   12     -0.48      0.00
  -13   17   12      0.41      0.00
  -12   17   12      0.56      0.00
  -11   17   12     -0.75      0.00
  -10   17   12      1.36      0.00
   -9   17   12     -1.62      0.00
   -8   17   12      0.47      0.00
   -7   17   12      0.99      0.00
   -6   17   12     -1.72      0.00
   -5   17   12      1.56      0.00
   -4   17   12      0.74      0.00
   -3   17   12      1.86      0.00
   -2   17   12     -3.36      0.00
   -1   17   12      0.74      0.00
    0   17   12     -1.56      0.00
    1   17   12      0.28      0.00
    2   17   12      1.10      0.00
    3   17   12     -0.55      0.00
    4   17   12      0.19      0.00
    5   17   12      0.92      0.00
    6   17   12     -0.79      0.00
    7   17   12     -1.37      0.00
    8   17   12     -0.51      0.00
  -15   18   12     -0.24      0.00
  -14   18   12      1.10      0.00
  -13   18   12     -0.23      0.00
  -12   18   12      0.33      0.00
  -11   18   12      0.67      0.00
  -10   18   12     -0.81      0.00
   -9   18   12     -0.07      0.00
   -8   18   12     -0.20      0.00
   -7   18   12     -0.82      0.00
   -6   18   12     -0.21      0.00
   -5   18   12     -1.41      0.00
   -4   18   12      1.21      0.00
   -3   18   12     -3.15      0.00
   -2   18   12      1.31      0.00
   -1   18   12     -0.06      0.00
    0   18   12      1.48      0.00
    1   18   12     -0.84      0.00
    2   18   12     -1.56      0.00
    3   18   12      1.98      0.00
    4   18   12      0.95      0.00
    5   18   12     -0.67      0.00
    6   18   12      1.03      0.00
    7   18   12     -0.69      0.00
    8   18   12      0.27      0.00
  -15   19   12      0.49      0.00
  -14   19   12     -0.61      0.00
  -13   19   12      1.94      0.00
  -12   19   12     -2.23      0.00
  -11   19   12      1.62      0.00
  -10   19   12     -0.62      0.00
   -9   19   12     -1.19      0.00
   -8   19   12      0.78      0.00
   -7   19   12     -1.38      0.00
   -6   19   12     -0.62      0.00
   -5   19   12      0.66      0.00
   -4   19   12     -1.67      0.00
   -3   19   12      0.14      0.00
   -2   19   12     -1.33      0.00
   -1   19   12      1.72      0.00
    0   19   12     -1.06      0.00
    1   19   12      0.66      0.00
    2   19   12      1.05      0.00
    3   19   12     -1.09      0.00
    4   19   12     -1.28      0.00
    5   19   12     -1.04      0.00
    6   19   12     -2.74      0.00
    7   19   12     -0.64      0.00
  -14   20   12      1.11      0.00
  -13   20   12     -1.49      0.00
  -12   20   12      1.14      0.00
  -11   20   12     -0.73      0.00
  -10   20   12     -0.59      0.00
   -9   20   12      0.27      0.00
   -8   20   12     -0.54      0.00
   -7   20   12     -0.25      0.00
   -6   20   12     -0.27      0.00
   -5   20   12     -1.05      0.00
   -4   20   12     -0.15      0.00
   -3   20   12     -0.60      0.00
   -2   20   12      3.30      0.00
   -1   20   12      1.33      0.00
    0   20   12      0.20      0.00
    1   20   12     -1.37      0.00
    2   20   12      1.30      0.00
    3   20   12      0.49      0.00
    4   20   12     -1.68      0.00
    5   20   12     -0.30      0.00
    6   20   12      1.26      0.00
    7   20   12      0.41      0.00
  -14   21   12     -0.78      0.00
  -13   21   12     -0.53      0.00
  -12   21   12     -1.06      0.00
  -11   21   12      0.29      0.00
  -10   21   12     -0.66      0.00
   -9   21   12     -0.37      0.00
   -8   21   12      1.17      0.00
   -7   21   12      0.52      0.00
   -6   21   12      0.11      0.00
   -5   21   12     -0.82      0.00
   -4   21   12      0.02      0.00
   -3   21   12      1.03      0.00
   -2   21   12      0.25      0.00
   -1   21   12     -0.99      0.00
    0   21   12      0.41      0.00
    1   21   12      0.55      0.00
    2   21   12     -0.78      0.00
    3   21   12     -0.90      0.00
    4   21   12     -1.30      0.00
    5   21   12      0.16      0.00
    6   21   12      0.77      0.00
    7   21   12      1.25      0.00
  -14   22   12      1.52      0.00
  -13   22   12     -1.12      0.00
  -12   22   12      0.47      0.00
  -11   22   12     -1.56      0.00
  -10   22   12      0.33      0.00
   -9   22   12      0.42      0.00
   -8   22   12      0.34      0.00
   -7   22   12      0.29      0.00
   -6   22   12      0.65      0.00
   -5   22   12     -0.75      0.00
   -4   22   12      0.69      0.00
   -3   22   12      0.04      0.00
   -2   22   12      0.50      0.00
   -1   22   12      0.42      0.00
    0   22   12     -2.04      0.00
    1   22   12      0.15      0.00
    2   22   12      0.59      0.00
    3   22   12     -1.79      0.00
    4   22   12      0.68      0.00
    5   22   12      2.02      0.00
    6   22   12      0.26      0.00
    7   22   12     -0.42      0.00
  -14   23   12     -0.18      0.00
  -13   23   12      1.40      0.00
  -12   23   12     -0.29      0.00
  -11   23   12      0.80      0.00
  -10   23   12     -0.60      0.00
   -9   23   12      0.88      0.00
   -8   23   12      1.36      0.00
   -7   23   12      0.26      0.00
   -6   23   12     -1.42      0.00
   -5   23   12      0.89      0.00
   -4   23   12     -0.51      0.00
   -3   23   12     -0.64      0.00
   -2   23   12     -0.79      0.00
   -1   23   12      0.67      0.00
    0   23   12      1.33      0.00
    1   23   12      0.33      0.00
    2   23   12     -0.07      0.00
    3   23   12     -0.31      0.00
    4   23   12      0.44      0.00
    5   23   12      1.33      0.00
    6   23   12      1.96      0.00
  -13   24   12     -0.74      0.00
  -12   24   12      0.04      0.00
  -11   24   12      0.31      0.00
  -10   24   12     -0.26      0.00
   -9   24   12      0.93      0.00
   -8   24   12     -0.43      0.00
   -7   24   12      0.32      0.00
   -6   24   12     -0.63      0.00
   -5   24   12     -0.09      0.00
   -4   24   12     -0.70      0.00
   -3   24   12     -0.96      0.00
   -2   24   12      0.71      0.00
   -1   24   12      0.00      0.00
    0   24   12      0.08      0.00
    1   24   12      0.11      0.00
    2   24   12     -0.43      0.00
    3   24   12      0.13      0.00
    4   24   12      0.87      0.00
    5   24   12     -0.64      0.00
    6   24   12     -0.74      0.00
  -14   25   12      0.33      0.00
  -13   25   12      0.48      0.00
  -12   25   12      0.03      0.00
  -11   25   12     -0.91      0.00
  -10   25   12      0.66      0.00
   -9   25   12     -0.32      0.00
   -8   25   12     -0.05      0.00
   -7   25   12     -1.87      0.00
   -6   25   12      0.85      0.00
   -5   25   12     -0.27      0.00
   -4   25   12     -0.63      0.00
   -3   25   12     -0.28      0.00
   -2   25   12      0.35      0.00
   -1   25   12      0.99      0.00
    0   25   12     -0.15      0.00
    1   25   12      1.05      0.00
    2   25   12     -0.29      0.00
    3   25   12      0.04      0.00
    4   25   12      0.45      0.00
    5   25   12      0.56      0.00
    6   25   12      0.32      0.00
  -13   26   12     -0.16      0.00
  -12   26   12      0.44      0.00
  -11   26   12     -0.05      0.00
  -10   26   12     -0.78      0.00
   -9   26   12      0.79      0.00
   -8   26   12     -1.41      0.00
   -7   26   12      0.58      0.00
   -6   26   12     -0.55      0.00
   -5   26   12      0.86      0.00
   -4   26   12     -0.44      0.00
   -3   26   12      0.94      0.00
   -2   26   12     -0.44      0.00
   -1   26   12     -0.71      0.00
    0   26   12     -0.40      0.00
    1   26   12      0.06      0.00
    2   26   12     -0.03      0.00
    3   26   12      0.48      0.00
    4   26   12     -0.68      0.00
    5   26   12     -0.86      0.00
  -12   27   12     -1.20      0.00
  -11   27   12      0.12      0.00
  -10   27   12      0.01      0.00
   -9   27   12     -0.75      0.00
   -8   27   12      0.08      0.00
   -7   27   12     -0.27      0.00
   -6   27   12      0.91      0.00
   -5   27   12     -0.13      0.00
   -4   27   12      0.87      0.00
   -3   27   12     -0.93      0.00
   -2   27   12      0.00      0.00
   -1   27   12     -0.59      0.00
    0   27   12      0.39      0.00
    1   27   12     -0.71      0.00
    2   27   12     -0.86      0.00
    3   27   12     -0.54      0.00
    4   27   12      0.03      0.00
    5   27   12     -0.09      0.00
  -12   28   12      0.50      0.00
  -11   28   12     -0.99      0.00
  -10   28   12      0.33      0.00
   -9   28   12      0.45      0.00
   -8   28   12     -0.16      0.00
   -7   28   12      1.49      0.00
   -6   28   12      0.37      0.00
   -5   28   12      0.70      0.00
   -4   28   12      0.64      0.00
   -3   28   12     -0.35      0.00
   -2   28   12     -0.59      0.00
   -1   28   12     -0.15      0.00
    0   28   12      0.18      0.00
    1   28   12      0.13      0.00
    2   28   12     -0.62      0.00
    3   28   12      0.01      0.00
    4   28   12     -1.00      0.00
   -9   29   12     -0.24      0.00
   -8   29   12      0.93      0.00
   -7   29   12     -0.34      0.00
   -6   29   12      1.05      0.00
   -5   29   12      1.23      0.00
   -4   29   12     -0.56      0.00
   -3   29   12      0.03      0.00
   -2   29   12      0.25      0.00
   -1   29   12      0.62      0.00
    0   29   12      0.42      0.00
    1   29   12     -0.65      0.00
    2   29   12      0.09      0.00
    3   29   12      0.14      0.00
   -8   30   12     -0.44      0.00
   -7   30   12     -0.10      0.00
   -6   30   12     -0.35      0.00
   -5   30   12     -0.15      0.00
   -4   30   12     -0.08      0.00
   -3   30   12     -0.72      0.00
   -2   30   12      1.14      0.00
   -1   30   12      0.12      0.00
    0   30   12      0.72      0.00
    1   30   12      0.93      0.00
    2   30   12      1.12      0.00
   -7   31   12     -0.18      0.00
   -6   31   12      0.67      0.00
   -5   31   12     -0.84      0.00
   -4   31   12     -1.23      0.00
   -3   31   12      0.67      0.00
   -2   31   12     -0.44      0.00
   -1   31   12      0.25      0.00
    0   31   12      0.75      0.00
    1   31   12      0.39      0.00
   -6   32   12     -0.07      0.00
   -5   32   12     -0.06      0.00
   -4   32   12      0.06      0.00
   -3   32   12     -0.24      0.00
   -2   32   12     -0.85      0.00
   -1   32   12     -0.31      0.00
    0   32   12     -0.04      0.00
   -3   33   12      0.23      0.00
   -2   33   12     -0.83      0.00
   -1   33   12     -0.69      0.00
  -17    0   13     -1.50      0.00
  -15    0   13      0.70      0.00
  -13    0   13      0.09      0.00
  -11    0   13      0.70      0.00
   -9    0   13     -1.09      0.00
   -7    0   13     -3.04      0.00
   -5    0   13     -1.61      0.00
   -3    0   13      1.03      0.00
   -1    0   13     -1.08      0.00
    1    0   13     -0.98      0.00
    3    0   13     -2.92      0.00
    5    0   13      1.30      0.00
    7    0   13      0.41      0.00
    9    0   13     -0.88      0.00
  -18    1   13     -0.61      0.00
  -17    1   13     -0.98      0.00
  -16    1   13     -1.09      0.00
  -15    1   13      0.88      0.00
  -14    1   13      1.34      0.00
  -13    1   13      1.13      0.00
  -12    1   13      2.43      0.00
  -11    1   13      0.24      0.00
  -10    1   13      0.23      0.00
   -9    1   13      0.55      0.00
   -8    1   13      0.68      0.00
   -7    1   13      0.39      0.00
   -6    1   13      1.12      0.00
   -5    1   13     -1.91      0.00
   -4    1   13     -1.47      0.00
   -3    1   13     -1.44      0.00
   -2    1   13     -0.69      0.00
   -1    1   13      0.98      0.00
    0    1   13      1.30      0.00
    1    1   13     -0.09      0.00
    2    1   13     -2.97      0.00
    3    1   13     -0.24      0.00
    4    1   13     -1.37      0.00
    5    1   13      0.38      0.00
    6    1   13      1.82      0.00
    7    1   13     -0.79      0.00
    8    1   13      0.80      0.00
    9    1   13     -0.17      0.00
   10    1   13     -2.23      0.00
  -18    2   13     -0.13      0.00
  -17    2   13      0.34      0.00
  -16    2   13     -0.92      0.00
  -15    2   13      1.81      0.00
  -14    2   13     -0.43      0.00
  -13    2   13     -0.30      0.00
  -12    2   13      0.44      0.00
  -11    2   13      2.86      0.00
  -10    2   13      1.13      0.00
   -9    2   13      1.18      0.00
   -8    2   13      0.45      0.00
   -7    2   13     -1.16      0.00
   -6    2   13      1.41      0.00
   -5    2   13     -1.40      0.00
   -4    2   13      1.30      0.00
   -3    2   13      0.44      0.00
   -2    2   13     -0.39      0.00
   -1    2   13      0.81      0.00
    0    2   13      2.19      0.00
    1    2   13     -1.33      0.00
    2    2   13      0.69      0.00
    3    2   13      0.01      0.00
    4    2   13      1.69      0.00
    5    2   13      1.08      0.00
    6    2   13     -0.56      0.00
    7    2   13      1.00      0.00
    8    2   13      0.47      0.00
    9    2   13      1.01      0.00
   10    2   13      0.94      0.00
  -18    3   13      0.73      0.00
  -17    3   13      0.61      0.00
  -16    3   13      0.22      0.00
  -15    3   13      0.99      0.00
  -14    3   13     -0.18      0.00
  -13    3   13      0.66      0.00
  -12    3   13      1.92      0.00
  -11    3   13      0.09      0.00
  -10    3   13      0.59      0.00
   -9    3   13      1.72      0.00
   -8    3   13     -0.14      0.00
   -7    3   13     -0.15      0.00
   -6    3   13     -1.01      0.00
   -5    3   13     -4.05      0.00
   -4    3   13     -0.14      0.00
   -3    3   13     -0.86      0.00
   -2    3   13      2.20      0.00
   -1    3   13      1.20      0.00
    0    3   13     -0.68      0.00
    1    3   13     -1.27      0.00
    2    3   13     -0.09      0.00
    3    3   13     -0.01      0.00
    4    3   13     -0.53      0.00
    5    3   13      0.78      0.00
    6    3   13      0.58      0.00
    7    3   13     -0.51      0.00
    8    3   13      1.04      0.00
    9    3   13     -0.97      0.00
   10    3   13      0.44      0.00
  -18    4   13      0.46      0.00
  -17    4   13     -0.82      0.00
  -16    4   13      0.95      0.00
  -15    4   13     -1.13      0.00
  -14    4   13     -1.38      0.00
  -13    4   13      0.62      0.00
  -12    4   13      2.23      0.00
  -11    4   13      3.02      0.00
  -10    4   13      0.58      0.00
   -9    4   13      0.39      0.00
   -8    4   13     -0.78      0.00
   -7    4   13      0.62      0.00
   -6    4   13     -0.16      0.00
   -5    4   13      0.45      0.00
   -4    4   13      1.24      0.00
   -3    4   13      0.66      0.00
   -2    4   13      0.76      0.00
   -1    4   13     -1.58      0.00
    0    4   13      0.95      0.00
    1    4   13     -0.40      0.00
    2    4   13      1.66      0.00
    3    4   13      0.77      0.00
    4    4   13     -0.59      0.00
    5    4   13      0.66      0.00
    6    4   13     -1.04      0.00
    7    4   13      0.89      0.00
    8    4   13      0.64      0.00
    9    4   13      0.24      0.00
   10    4   13      0.49      0.00
  -18    5   13      1.16      0.00
  -17    5   13      0.47      0.00
  -16    5   13     -1.65      0.00
  -15    5   13      0.17      0.00
  -14    5   13     -1.82      0.00
  -13    5   13      1.38      0.00
  -12    5   13      0.56      0.00
  -11    5   13      0.45      0.00
  -10    5   13      0.18      0.00
   -9    5   13      1.51      0.00
   -8    5   13     -1.34      0.00
   -7    5   13      1.22      0.00
   -6    5   13     -2.14      0.00
   -5    5   13     -0.84      0.00
   -4    5   13      1.95      0.00
   -3    5   13      1.93      0.00
   -2    5   13      0.07      0.00
   -1    5   13     -0.45      0.00
    0    5   13     -3.19      0.00
    1    5   13     -0.08      0.00
    2    5   13      0.99      0.00
    3    5   13     -2.39      0.00
    4    5   13      2.27      0.00
    5    5   13     -0.05      0.00
    6    5   13      1.65      0.00
    7    5   13     -0.63      0.00
    8    5   13     -0.72      0.00
    9    5   13      1.22      0.00
   10    5   13     -0.02      0.00
  -18    6   13      0.10      0.00
  -17    6   13     -0.21      0.00
  -16    6   13      0.54      0.00
  -15    6   13     -2.61      0.00
  -14    6   13      0.35      0.00
  -13    6   13      0.43      0.00
  -12    6   13      2.07      0.00
  -11    6   13     -0.38      0.00
  -10    6   13     -0.55      0.00
   -9    6   13     -0.58      0.00
   -8    6   13     -1.04      0.00
   -7    6   13      1.19      0.00
   -6    6   13     -1.50      0.00
   -5    6   13      2.08      0.00
   -4    6   13     -1.85      0.00
   -3    6   13     -0.10      0.00
   -2    6   13     -2.20      0.00
   -1    6   13      0.00      0.00
    0    6   13      0.90      0.00
    1    6   13      0.67      0.00
    2    6   13     -1.27      0.00
    3    6   13     -0.19      0.00
    4    6   13     -0.74      0.00
    5    6   13      1.26      0.00
    6    6   13     -1.39      0.00
    7    6   13     -0.98      0.00
    8    6   13     -0.73      0.00
    9    6   13     -0.51      0.00
   10    6   13      0.26      0.00
  -17    7   13     -2.29      0.00
  -16    7   13     -0.91      0.00
  -15    7   13     -0.74      0.00
  -14    7   13     -0.70      0.00
  -13    7   13      0.86      0.00
  -12    7   13      0.69      0.00
  -11    7   13     -0.62      0.00
  -10    7   13      1.33      0.00
   -9    7   13     -1.00      0.00
   -8    7   13      0.80      0.00
   -7    7   13     -0.66      0.00
   -6    7   13     -1.16      0.00
   -5    7   13      0.74      0.00
   -4    7   13      1.82      0.00
   -3    7   13     -1.27      0.00
   -2    7   13     -0.67      0.00
   -1    7   13     -0.33      0.00
    0    7   13     -0.04      0.00
    1    7   13     -1.11      0.00
    2    7   13      0.65      0.00
    3    7   13      0.25      0.00
    4    7   13      2.88      0.00
    5    7   13      0.64      0.00
    6    7   13     -1.07      0.00
    7    7   13     -0.46      0.00
    8    7   13     -0.63      0.00
    9    7   13     -0.11      0.00
   10    7   13      0.15      0.00
  -17    8   13      0.09      0.00
  -16    8   13      0.14      0.00
  -15    8   13     -0.73      0.00
  -14    8   13      1.44      0.00
  -13    8   13      0.05      0.00
  -12    8   13      0.00      0.00
  -11    8   13     -0.31      0.00
  -10    8   13     -1.64      0.00
   -9    8   13     -0.87      0.00
   -8    8   13     -0.16      0.00
   -7    8   13      0.75      0.00
   -6    8   13      0.14      0.00
   -5    8   13      0.70      0.00
   -4    8   13     -2.96      0.00
   -3    8   13      0.17      0.00
   -2    8   13      0.04      0.00
   -1    8   13      3.50      0.00
    0    8   13     -2.46      0.00
    1    8   13     -0.06      0.00
    2    8   13     -3.17      0.00
    3    8   13      0.06      0.00
    4    8   13      0.32      0.00
    5    8   13     -0.97      0.00
    6    8   13      1.26      0.00
    7    8   13     -1.10      0.00
    8    8   13      0.47      0.00
    9    8   13      0.47      0.00
   10    8   13     -0.45      0.00
  -17    9   13     -0.36      0.00
  -16    9   13      1.64      0.00
  -15    9   13      0.93      0.00
  -14    9   13     -0.23      0.00
  -13    9   13      0.78      0.00
  -12    9   13     -0.32      0.00
  -11    9   13     -1.85      0.00
  -10    9   13     -0.56      0.00
   -9    9   13     -1.65      0.00
   -8    9   13      0.31      0.00
   -7    9   13     -1.80      0.00
   -6    9   13      1.49      0.00
   -5    9   13      1.43      0.00
   -4    9   13      0.00      0.00
   -3    9   13     -0.81      0.00
   -2    9   13      2.20      0.00
   -1    9   13     -0.93      0.00
    0    9   13     -0.40      0.00
    1    9   13      0.44      0.00
    2    9   13      0.42      0.00
    3    9   13      0.44      0.00
    4    9   13      0.24      0.00
    5    9   13     -0.57      0.00
    6    9   13     -0.10      0.00
    7    9   13      1.05      0.00
    8    9   13      0.46      0.00
    9    9   13     -1.02      0.00
   10    9   13      0.39      0.00
  -17   10   13      1.15      0.00
  -16   10   13     -0.06      0.00
  -15   10   13      0.61      0.00
  -14   10   13     -0.54      0.00
  -13   10   13     -0.54      0.00
  -12   10   13     -1.29      0.00
  -11   10   13     -0.99      0.00
  -10   10   13     -1.57      0.00
   -9   10   13     -0.38      0.00
   -8   10   13      0.68      0.00
   -7   10   13      0.37      0.00
   -6   10   13      0.03      0.00
   -5   10   13     -1.19      0.00
   -4   10   13      0.88      0.00
   -3   10   13      1.84      0.00
   -2   10   13      1.17      0.00
   -1   10   13      0.39      0.00
    0   10   13     -1.81      0.00
    1   10   13     -0.70      0.00
    2   10   13     -0.80      0.00
    3   10   13     -0.65      0.00
    4   10   13     -1.42      0.00
    5   10   13      0.95      0.00
    6   10   13      0.25      0.00
    7   10   13     -0.25      0.00
    8   10   13     -0.03      0.00
    9   10   13      0.26      0.00
  -16   11   13      1.16      0.00
  -15   11   13     -0.53      0.00
  -14   11   13     -0.49      0.00
  -13   11   13     -0.67      0.00
  -12   11   13     -0.79      0.00
  -11   11   13     -1.35      0.00
  -10   11   13     -0.84      0.00
   -9   11   13     -0.40      0.00
   -8   11   13     -0.69      0.00
   -7   11   13     -1.45      0.00
   -6   11   13      0.96      0.00
   -5   11   13     -0.17      0.00
   -4   11   13      1.14      0.00
   -3   11   13      1.10      0.00
   -2   11   13      1.92      0.00
   -1   11   13     -2.60      0.00
    0   11   13      3.26      0.00
    1   11   13      2.01      0.00
    2   11   13     -1.87      0.00
    3   11   13     -0.51      0.00
    4   11   13     -1.27      0.00
    5   11   13     -0.84      0.00
    6   11   13     -1.24      0.00
    7   11   13      0.17      0.00
    8   11   13     -0.58      0.00
    9   11   13     -1.91      0.00
  -16   12   13      0.01      0.00
  -15   12   13      0.22      0.00
  -14   12   13     -0.21      0.00
  -13   12   13      0.96      0.00
  -12   12   13     -1.36      0.00
  -11   12   13      0.41      0.00
  -10   12   13     -0.01      0.00
   -9   12   13      0.86      0.00
   -8   12   13     -0.07      0.00
   -7   12   13     -1.71      0.00
   -6   12   13     -1.23      0.00
   -5   12   13      0.00      0.00
   -4   12   13      2.09      0.00
   -3   12   13      1.27      0.00
   -2   12   13     -0.14      0.00
   -1   12   13      0.60      0.00
    0   12   13     -0.27      0.00
    1   12   13      0.05      0.00
    2   12   13     -0.09      0.00
    3   12   13     -0.65      0.00
    4   12   13      1.21      0.00
    5   12   13      0.00      0.00
    6   12   13     -0.22      0.00
    7   12   13      0.45      0.00
    8   12   13      1.44      0.00
    9   12   13     -0.12      0.00
  -16   13   13     -0.91      0.00
  -15   13   13      0.36      0.00
  -14   13   13      0.34      0.00
  -13   13   13     -0.29      0.00
  -12   13   13      0.64      0.00
  -11   13   13     -0.70      0.00
  -10   13   13      0.24      0.00
   -9   13   13      0.10      0.00
   -8   13   13     -0.15      0.00
   -7   13   13     -0.28      0.00
   -6   13   13     -0.15      0.00
   -5   13   13      1.06      0.00
   -4   13   13      0.27      0.00
   -3   13   13     -0.10      0.00
   -2   13   13      0.07      0.00
   -1   13   13     -0.47      0.00
    0   13   13      1.78      0.00
    1   13   13     -1.87      0.00
    2   13   13     -1.68      0.00
    3   13   13      0.89      0.00
    4   13   13     -0.74      0.00
    5   13   13     -0.28      0.00
    6   13   13     -0.24      0.00
    7   13   13      1.45      0.00
    8   13   13     -0.35      0.00
    9   13   13      0.58      0.00
  -16   14   13      1.64      0.00
  -15   14   13     -0.54      0.00
  -14   14   13      0.97      0.00
  -13   14   13     -1.02      0.00
  -12   14   13     -0.63      0.00
  -11   14   13     -0.17      0.00
  -10   14   13     -0.13      0.00
   -9   14   13      0.89      0.00
   -8   14   13     -2.36      0.00
   -7   14   13     -0.93      0.00
   -6   14   13     -0.13      0.00
   -5   14   13     -0.31      0.00
   -4   14   13     -0.22      0.00
   -3   14   13      0.71      0.00
   -2   14   13      0.64      0.00
   -1   14   13     -0.97      0.00
    0   14   13      0.34      0.00
    1   14   13     -0.56      0.00
    2   14   13      0.76      0.00
    3   14   13      0.63      0.00
    4   14   13      1.06      0.00
    5   14   13      0.62      0.00
    6   14   13      0.20      0.00
    7   14   13      1.37      0.00
    8   14   13      0.13      0.00
  -15   15   13     -0.07      0.00
  -14   15   13     -0.56      0.00
  -13   15   13     -0.05      0.00
  -12   15   13     -0.79      0.00
  -11   15   13     -0.09      0.00
  -10   15   13     -0.03      0.00
   -9   15   13      0.84      0.00
   -8   15   13      0.52      0.00
   -7   15   13      0.02      0.00
   -6   15   13      0.02      0.00
   -5   15   13     -0.23      0.00
   -4   15   13     -2.63      0.00
   -3   15   13      1.17      0.00
   -2   15   13     -0.70      0.00
   -1   15   13      1.38      0.00
    0   15   13     -1.36      0.00
    1   15   13     -0.54      0.00
    2   15   13      0.70      0.00
    3   15   13     -1.59      0.00
    4   15   13     -0.54      0.00
    5   15   13     -1.06      0.00
    6   15   13      1.31      0.00
    7   15   13      0.83      0.00
    8   15   13     -0.87      0.00
  -15   16   13     -0.56      0.00
  -14   16   13     -0.85      0.00
  -13   16   13     -0.94      0.00
  -12   16   13      0.91      0.00
  -11   16   13     -1.27      0.00
  -10   16   13      2.07      0.00
   -9   16   13     -0.81      0.00
   -8   16   13     -0.15      0.00
   -7   16   13      1.27      0.00
   -6   16   13      0.74      0.00
   -5   16   13     -0.65      0.00
   -4   16   13      2.14      0.00
   -3   16   13      0.93      0.00
   -2   16   13      1.04      0.00
   -1   16   13     -1.58      0.00
    0   16   13      2.11      0.00
    1   16   13      0.85      0.00
    2   16   13     -0.97      0.00
    3   16   13      0.94      0.00
    4   16   13     -0.25      0.00
    5   16   13      0.80      0.00
    6   16   13      0.29      0.00
    7   16   13     -1.09      0.00
    8   16   13      0.39      0.00
  -15   17   13     -0.53      0.00
  -14   17   13      0.08      0.00
  -13   17   13     -0.54      0.00
  -12   17   13     -0.32      0.00
  -11   17   13      0.29      0.00
  -10   17   13      0.49      0.00
   -9   17   13      1.67      0.00
   -8   17   13     -0.49      0.00
   -7   17   13      0.66      0.00
   -6   17   13      0.16      0.00
   -5   17   13      0.48      0.00
   -4   17   13     -0.49      0.00
   -3   17   13      2.12      0.00
   -2   17   13     -1.90      0.00
   -1   17   13      2.01      0.00
    0   17   13     -0.28      0.00
    1   17   13      0.02      0.00
    2   17   13      0.13      0.00
    3   17   13     -0.92      0.00
    4   17   13      1.64      0.00
    5   17   13      0.72      0.00
    6   17   13      1.25      0.00
    7   17   13      0.52      0.00
    8   17   13     -0.51      0.00
  -15   18   13      0.10      0.00
  -14   18   13     -0.77      0.00
  -13   18   13      1.80      0.00
  -12   18   13     -1.54      0.00
  -11   18   13      1.31      0.00
  -10   18   13      0.18      0.00
   -9   18   13     -0.33      0.00
   -8   18   13      1.03      0.00
   -7   18   13      0.20      0.00
   -6   18   13      0.98      0.00
   -5   18   13      1.04      0.00
   -4   18   13      1.81      0.00
   -3   18   13     -2.10      0.00
   -2   18   13     -0.79      0.00
   -1   18   13     -1.60      0.00
    0   18   13      0.47      0.00
    1   18   13     -0.45      0.00
    2   18   13     -0.70      0.00
    3   18   13      1.19      0.00
    4   18   13      0.83      0.00
    5   18   13     -0.92      0.00
    6   18   13     -1.20      0.00
    7   18   13     -1.47      0.00
  -14   19   13      0.12      0.00
  -13   19   13      0.38      0.00
  -12   19   13      0.73      0.00
  -11   19   13      0.13      0.00
  -10   19   13      0.90      0.00
   -9   19   13     -0.55      0.00
   -8   19   13     -0.88      0.00
   -7   19   13      0.07      0.00
   -6   19   13      0.03      0.00
   -5   19   13      0.70      0.00
   -4   19   13     -1.08      0.00
   -3   19   13      0.64      0.00
   -2   19   13     -1.32      0.00
   -1   19   13      2.06      0.00
    0   19   13     -0.41      0.00
    1   19   13     -1.55      0.00
    2   19   13      1.19      0.00
    3   19   13      1.96      0.00
    4   19   13      0.03      0.00
    5   19   13     -0.11      0.00
    6   19   13      0.08      0.00
    7   19   13     -0.37      0.00
  -14   20   13      0.87      0.00
  -13   20   13     -0.93      0.00
  -12   20   13      0.94      0.00
  -11   20   13      0.25      0.00
  -10   20   13     -0.15      0.00
   -9   20   13      0.03      0.00
   -8   20   13     -0.74      0.00
   -7   20   13     -0.62      0.00
   -6   20   13      1.27      0.00
   -5   20   13     -1.60      0.00
   -4   20   13      0.30      0.00
   -3   20   13     -2.69      0.00
   -2   20   13      0.68      0.00
   -1   20   13     -1.68      0.00
    0   20   13      0.29      0.00
    1   20   13      0.99      0.00
    2   20   13     -0.71      0.00
    3   20   13      0.90      0.00
    4   20   13     -1.07      0.00
    5   20   13     -2.66      0.00
    6   20   13     -0.96      0.00
    7   20   13      0.69      0.00
  -14   21   13     -1.64      0.00
  -13   21   13      1.05      0.00
  -12   21   13     -0.76      0.00
  -11   21   13      0.29      0.00
  -10   21   13     -0.28      0.00
   -9   21   13     -1.24      0.00
   -8   21   13     -0.24      0.00
   -7   21   13     -0.14      0.00
   -6   21   13     -0.19      0.00
   -5   21   13     -0.19      0.00
   -4   21   13     -0.19      0.00
   -3   21   13      2.20      0.00
   -2   21   13     -1.14      0.00
   -1   21   13      0.63      0.00
    0   21   13     -1.49      0.00
    1   21   13     -0.93      0.00
    2   21   13      2.09      0.00
    3   21   13      0.10      0.00
    4   21   13     -1.48      0.00
    5   21   13      0.77      0.00
    6   21   13     -0.75      0.00
    7   21   13     -0.58      0.00
  -13   22   13     -0.99      0.00
  -12   22   13      0.88      0.00
  -11   22   13     -0.65      0.00
  -10   22   13     -0.53      0.00
   -9   22   13      0.00      0.00
   -8   22   13     -0.95      0.00
   -7   22   13      0.84      0.00
   -6   22   13     -1.09      0.00
   -5   22   13     -0.05      0.00
   -4   22   13      1.58      0.00
   -3   22   13     -0.83      0.00
   -2   22   13     -0.06      0.00
   -1   22   13     -0.04      0.00
    0   22   13      0.68      0.00
    1   22   13     -0.63      0.00
    2   22   13      0.42      0.00
    3   22   13     -0.54      0.00
    4   22   13      0.22      0.00
    5   22   13     -0.58      0.00
    6   22   13      0.89      0.00
  -13   23   13      0.55      0.00
  -12   23   13     -0.70      0.00
  -11   23   13      0.37      0.00
  -10   23   13      0.29      0.00
   -9   23   13     -1.01      0.00
   -8   23   13      0.82      0.00
   -7   23   13      0.22      0.00
   -6   23   13     -0.42      0.00
   -5   23   13     -0.02      0.00
   -4   23   13      0.93      0.00
   -3   23   13     -0.26      0.00
   -2   23   13     -0.38      0.00
   -1   23   13     -0.89      0.00
    0   23   13     -1.21      0.00
    1   23   13     -0.10      0.00
    2   23   13     -0.93      0.00
    3   23   13      0.15      0.00
    4   23   13      0.12      0.00
    5   23   13      0.24      0.00
    6   23   13     -1.32      0.00
  -13   24   13      0.26      0.00
  -12   24   13      1.44      0.00
  -11   24   13     -0.58      0.00
  -10   24   13      0.83      0.00
   -9   24   13      0.39      0.00
   -8   24   13      0.69      0.00
   -7   24   13     -0.30      0.00
   -6   24   13      0.32      0.00
   -5   24   13      0.80      0.00
   -4   24   13     -0.24      0.00
   -3   24   13     -0.83      0.00
   -2   24   13      0.56      0.00
   -1   24   13      1.57      0.00
    0   24   13     -0.74      0.00
    1   24   13     -0.38      0.00
    2   24   13      0.19      0.00
    3   24   13     -0.43      0.00
    4   24   13      0.51      0.00
    5   24   13      0.87      0.00
  -13   25   13      1.03      0.00
  -12   25   13     -0.37      0.00
  -11   25   13      1.72      0.00
  -10   25   13     -0.52      0.00
   -9   25   13     -0.06      0.00
   -8   25   13      0.57      0.00
   -7   25   13     -0.21      0.00
   -6   25   13     -0.62      0.00
   -5   25   13      0.65      0.00
   -4   25   13     -0.95      0.00
   -3   25   13      0.88      0.00
   -2   25   13      0.73      0.00
   -1   25   13     -0.28      0.00
    0   25   13     -0.78      0.00
    1   25   13      0.56      0.00
    2   25   13      0.29      0.00
    3   25   13      0.14      0.00
    4   25   13      0.23      0.00
    5   25   13     -1.90      0.00
  -12   26   13     -0.69      0.00
  -11   26   13      0.48      0.00
  -10   26   13     -0.90      0.00
   -9   26   13      0.16      0.00
   -8   26   13     -1.41      0.00
   -7   26   13      0.31      0.00
   -6   26   13     -0.70      0.00
   -5   26   13     -0.94      0.00
   -4   26   13     -0.45      0.00
   -3   26   13      0.40      0.00
   -2   26   13      1.22      0.00
   -1   26   13     -0.39      0.00
    0   26   13      0.79      0.00
    1   26   13      0.18      0.00
    2   26   13     -0.13      0.00
    3   26   13      0.27      0.00
    4   26   13      0.10      0.00
  -12   27   13      0.74      0.00
  -11   27   13     -0.85      0.00
  -10   27   13     -0.26      0.00
   -9   27   13     -0.81      0.00
   -8   27   13      0.37      0.00
   -7   27   13     -1.22      0.00
   -6   27   13      0.80      0.00
   -5   27   13     -0.87      0.00
   -4   27   13      0.46      0.00
   -3   27   13      0.43      0.00
   -2   27   13     -0.61      0.00
   -1   27   13     -0.28      0.00
    0   27   13      0.14      0.00
    1   27   13      1.05      0.00
    2   27   13      0.12      0.00
    3   27   13      0.12      0.00
  -10   28   13     -0.72      0.00
   -9   28   13      0.26      0.00
   -8   28   13     -0.18      0.00
   -7   28   13      0.78      0.00
   -6   28   13     -0.98      0.00
   -5   28   13      0.69      0.00
   -4   28   13      0.10      0.00
   -3   28   13      0.22      0.00
   -2   28   13     -0.87      0.00
   -1   28   13     -0.12      0.00
    0   28   13     -0.27      0.00
    1   28   13     -1.17      0.00
    2   28   13     -1.06      0.00
   -8   29   13      1.11      0.00
   -7   29   13     -0.29      0.00
   -6   29   13      0.85      0.00
   -5   29   13      0.49      0.00
   -4   29   13      0.81      0.00
   -3   29   13     -1.02      0.00
   -2   29   13     -0.06      0.00
   -1   29   13     -0.42      0.00
    0   29   13     -0.70      0.00
    1   29   13     -1.13      0.00
   -7   30   13      0.46      0.00
   -6   30   13      0.47      0.00
   -5   30   13      0.64      0.00
   -4   30   13      0.21      0.00
   -3   30   13     -0.03      0.00
   -2   30   13      0.82      0.00
   -1   30   13     -0.25      0.00
    0   30   13     -1.01      0.00
   -6   31   13      0.16      0.00
   -5   31   13     -0.08      0.00
   -4   31   13     -0.77      0.00
   -3   31   13      1.07      0.00
   -2   31   13      0.44      0.00
   -1   31   13      0.42      0.00
    0   31   13      0.53      0.00
   -5   32   13     -1.04      0.00
   -4   32   13     -0.06      0.00
   -3   32   13      0.31      0.00
   -2   32   13      1.25      0.00
   -1   32   13      0.53      0.00
  -16    0   14     -1.80      0.00
  -14    0   14      0.05      0.00
  -12    0   14     -2.14      0.00
  -10    0   14     -1.32      0.00
   -8    0   14      0.23      0.00
   -6    0   14      1.75      0.00
   -4    0   14      0.33      0.00
   -2    0   14     -1.81      0.00
    0    0   14     -0.09      0.00
    2    0   14      1.03      0.00
    4    0   14     -1.91      0.00
    6    0   14      0.10      0.00
    8    0   14     -1.18      0.00
  -17    1   14      1.00      0.00
  -16    1   14     -1.06      0.00
  -15    1   14     -0.33      0.00
  -14    1   14     -0.22      0.00
  -13    1   14     -2.95      0.00
  -12    1   14     -0.38      0.00
  -11    1   14     -1.03      0.00
  -10    1   14     -0.73      0.00
   -9    1   14     -1.56      0.00
   -8    1   14      0.13      0.00
   -7    1   14     -0.39      0.00
   -6    1   14      1.72      0.00
   -5    1   14      1.86      0.00
   -4    1   14      0.37      0.00
   -3    1   14      0.69      0.00
   -2    1   14     -0.93      0.00
   -1    1   14     -1.44      0.00
    0    1   14      0.27      0.00
    1    1   14      0.00      0.00
    2    1   14     -1.29      0.00
    3    1   14      0.14      0.00
    4    1   14      0.00      0.00
    5    1   14      0.03      0.00
    6    1   14      0.16      0.00
    7    1   14     -1.28      0.00
    8    1   14      0.09      0.00
    9    1   14      0.55      0.00
  -18    2   14      0.03      0.00
  -17    2   14     -1.35      0.00
  -16    2   14      0.08      0.00
  -15    2   14      1.99      0.00
  -14    2   14      1.15      0.00
  -13    2   14     -0.94      0.00
  -12    2   14     -2.18      0.00
  -11    2   14     -1.72      0.00
  -10    2   14     -0.79      0.00
   -9    2   14     -0.63      0.00
   -8    2   14      1.31      0.00
   -7    2   14     -1.14      0.00
   -6    2   14      1.59      0.00
   -5    2   14     -1.51      0.00
   -4    2   14     -0.23      0.00
   -3    2   14     -1.21      0.00
   -2    2   14      0.22      0.00
   -1    2   14      1.26      0.00
    0    2   14      1.01      0.00
    1    2   14     -2.03      0.00
    2    2   14      1.27      0.00
    3    2   14     -1.79      0.00
    4    2   14     -0.88      0.00
    5    2   14      0.23      0.00
    6    2   14     -0.93      0.00
    7    2   14     -0.35      0.00
    8    2   14      0.16      0.00
    9    2   14     -1.97      0.00
  -18    3   14     -0.15      0.00
  -17    3   14     -0.09      0.00
  -16    3   14      0.87      0.00
  -15    3   14      1.51      0.00
  -14    3   14     -0.70      0.00
  -13    3   14     -0.80      0.00
  -12    3   14      0.35      0.00
  -11    3   14      0.69      0.00
  -10    3   14     -0.84      0.00
   -9    3   14      0.26      0.00
   -8    3   14     -0.14      0.00
   -7    3   14      0.94      0.00
   -6    3   14      1.15      0.00
   -5    3   14     -0.76      0.00
   -4    3   14      0.10      0.00
   -3    3   14     -0.77      0.00
   -2    3   14      0.84      0.00
   -1    3   14      1.41      0.00
    0    3   14     -0.26      0.00
    1    3   14      0.96      0.00
    2    3   14      0.36      0.00
    3    3   14      2.03      0.00
    4    3   14     -0.05      0.00
    5    3   14      0.15      0.00
    6    3   14      0.09      0.00
    7    3   14     -0.59      0.00
    8    3   14      0.75      0.00
    9    3   14      0.62      0.00
  -18    4   14     -0.59      0.00
  -17    4   14      0.72      0.00
  -16    4   14      1.24      0.00
  -15    4   14      2.44      0.00
  -14    4   14     -0.13      0.00
  -13    4   14     -0.58      0.00
  -12    4   14     -2.00      0.00
  -11    4   14      0.46      0.00
  -10    4   14      0.12      0.00
   -9    4   14      1.63      0.00
   -8    4   14      0.00      0.00
   -7    4   14     -0.29      0.00
   -6    4   14     -0.37      0.00
   -5    4   14     -0.94      0.00
   -4    4   14     -0.47      0.00
   -3    4   14      0.81      0.00
   -2    4   14      1.38      0.00
   -1    4   14      0.16      0.00
    0    4   14     -0.18      0.00
    1    4   14     -0.96      0.00
    2    4   14      1.40      0.00
    3    4   14     -2.21      0.00
    4    4   14      0.32      0.00
    5    4   14      0.22      0.00
    6    4   14     -0.05      0.00
    7    4   14      2.15      0.00
    8    4   14     -0.44      0.00
    9    4   14     -0.10      0.00
  -18    5   14     -0.06      0.00
  -17    5   14      1.51      0.00
  -16    5   14      0.22      0.00
  -15    5   14      0.96      0.00
  -14    5   14     -0.82      0.00
  -13    5   14     -0.11      0.00
  -12    5   14      1.34      0.00
  -11    5   14     -0.63      0.00
  -10    5   14     -1.41      0.00
   -9    5   14      0.13      0.00
   -8    5   14     -0.42      0.00
   -7    5   14      1.37      0.00
   -6    5   14      0.09      0.00
   -5    5   14     -0.70      0.00
   -4    5   14      1.19      0.00
   -3    5   14     -0.36      0.00
   -2    5   14     -0.26      0.00
   -1    5   14      0.25      0.00
    0    5   14     -0.05      0.00
    1    5   14      1.61      0.00
    2    5   14      1.18      0.00
    3    5   14     -0.73      0.00
    4    5   14     -1.15      0.00
    5    5   14     -0.05      0.00
    6    5   14      0.01      0.00
    7    5   14      0.26      0.00
    8    5   14      0.96      0.00
    9    5   14     -0.40      0.00
  -18    6   14      0.90      0.00
  -17    6   14     -1.06      0.00
  -16    6   14      1.67      0.00
  -15    6   14     -1.32      0.00
  -14    6   14     -0.55      0.00
  -13    6   14     -1.52      0.00
  -12    6   14     -0.62      0.00
  -11    6   14      0.96      0.00
  -10    6   14      1.09      0.00
   -9    6   14      0.76      0.00
   -8    6   14     -0.66      0.00
   -7    6   14      0.14      0.00
   -6    6   14     -1.21      0.00
   -5    6   14      1.26      0.00
   -4    6   14      0.60      0.00
   -3    6   14      0.84      0.00
   -2    6   14     -1.00      0.00
   -1    6   14     -2.13      0.00
    0    6   14      1.01      0.00
    1    6   14      0.80      0.00
    2    6   14     -1.25      0.00
    3    6   14     -0.39      0.00
    4    6   14      0.76      0.00
    5    6   14      1.12      0.00
    6    6   14     -0.16      0.00
    7    6   14      0.89      0.00
    8    6   14      0.04      0.00
    9    6   14      0.32      0.00
  -18    7   14      1.20      0.00
  -17    7   14      0.14      0.00
  -16    7   14     -0.88      0.00
  -15    7   14     -0.15      0.00
  -14    7   14     -0.77      0.00
  -13    7   14      0.40      0.00
  -12    7   14      0.30      0.00
  -11    7   14     -0.52      0.00
  -10    7   14     -0.05      0.00
   -9    7   14      0.46      0.00
   -8    7   14      0.39      0.00
   -7    7   14      0.74      0.00
   -6    7   14     -1.18      0.00
   -5    7   14     -0.03      0.00
   -4    7   14     -0.15      0.00
   -3    7   14     -0.97      0.00
   -2    7   14     -0.93      0.00
   -1    7   14      2.06      0.00
    0    7   14     -0.23      0.00
    1    7   14      0.58      0.00
    2    7   14      0.45      0.00
    3    7   14     -2.70      0.00
    4    7   14      1.06      0.00
    5    7   14     -2.78      0.00
    6    7   14     -0.33      0.00
    7    7   14     -0.24      0.00
    8    7   14     -0.32      0.00
    9    7   14      0.90      0.00
  -17    8   14     -1.05      0.00
  -16    8   14      0.40      0.00
  -15    8   14     -0.78      0.00
  -14    8   14      0.96      0.00
  -13    8   14     -0.04      0.00
  -12    8   14      2.23      0.00
  -11    8   14      1.80      0.00
  -10    8   14      1.08      0.00
   -9    8   14      0.15      0.00
   -8    8   14     -1.02      0.00
   -7    8   14     -0.38      0.00
   -6    8   14     -0.78      0.00
   -5    8   14      1.50      0.00
   -4    8   14     -1.77      0.00
   -3    8   14     -0.40      0.00
   -2    8   14     -1.38      0.00
   -1    8   14      1.23      0.00
    0    8   14     -0.17      0.00
    1    8   14      1.25      0.00
    2    8   14      0.15      0.00
    3    8   14      2.71      0.00
    4    8   14      0.61      0.00
    5    8   14     -0.64      0.00
    6    8   14      0.04      0.00
    7    8   14     -1.12      0.00
    8    8   14      0.51      0.00
    9    8   14     -0.22      0.00
  -17    9   14     -1.13      0.00
  -16    9   14     -0.19      0.00
  -15    9   14      0.82      0.00
  -14    9   14      0.23      0.00
  -13    9   14      1.47      0.00
  -12    9   14      1.50      0.00
  -11    9   14      0.10      0.00
  -10    9   14      1.99      0.00
   -9    9   14      0.22      0.00
   -8    9   14      2.24      0.00
   -7    9   14      0.02      0.00
   -6    9   14     -0.06      0.00
   -5    9   14     -1.79      0.00
   -4    9   14     -0.60      0.00
   -3    9   14     -1.49      0.00
   -2    9   14      1.41      0.00
   -1    9   14     -1.39      0.00
    0    9   14     -0.84      0.00
    1    9   14     -0.81      0.00
    2    9   14      0.51      0.00
    3    9   14      0.31      0.00
    4    9   14     -0.11      0.00
    5    9   14      1.18      0.00
    6    9   14      0.24      0.00
    7    9   14      0.78      0.00
    8    9   14      0.58      0.00
  -16   10   14      0.59      0.00
  -15   10   14     -0.35      0.00
  -14   10   14      0.98      0.00
  -13   10   14      0.21      0.00
  -12   10   14      0.34      0.00
  -11   10   14      0.57      0.00
  -10   10   14     -0.89      0.00
   -9   10   14     -0.37      0.00
   -8   10   14      0.03      0.00
   -7   10   14      0.77      0.00
   -6   10   14      1.16      0.00
   -5   10   14     -1.22      0.00
   -4   10   14     -2.14      0.00
   -3   10   14     -0.29      0.00
   -2   10   14     -0.07      0.00
   -1   10   14      0.37      0.00
    0   10   14     -1.62      0.00
    1   10   14      2.93      0.00
    2   10   14      0.43      0.00
    3   10   14      1.07      0.00
    4   10   14      0.25      0.00
    5   10   14      0.01      0.00
    6   10   14      1.09      0.00
    7   10   14     -0.96      0.00
    8   10   14     -0.44      0.00
  -16   11   14     -0.25      0.00
  -15   11   14      0.48      0.00
  -14   11   14     -0.99      0.00
  -13   11   14      0.62      0.00
  -12   11   14      0.37      0.00
  -11   11   14     -0.35      0.00
  -10   11   14      0.65      0.00
   -9   11   14      0.16      0.00
   -8   11   14      1.54      0.00
   -7   11   14     -0.75      0.00
   -6   11   14     -0.84      0.00
   -5   11   14     -1.03      0.00
   -4   11   14     -0.16      0.00
   -3   11   14     -1.05      0.00
   -2   11   14      0.14      0.00
   -1   11   14     -2.24      0.00
    0   11   14      0.24      0.00
    1   11   14      0.48      0.00
    2   11   14     -0.11      0.00
    3   11   14      0.19      0.00
    4   11   14      1.13      0.00
    5   11   14      1.19      0.00
    6   11   14     -0.46      0.00
    7   11   14     -0.61      0.00
    8   11   14      0.90      0.00
  -16   12   14     -1.91      0.00
  -15   12   14     -0.54      0.00
  -14   12   14     -0.21      0.00
  -13   12   14      1.07      0.00
  -12   12   14     -0.46      0.00
  -11   12   14      0.67      0.00
  -10   12   14     -0.56      0.00
   -9   12   14      0.19      0.00
   -8   12   14      0.59      0.00
   -7   12   14      1.45      0.00
   -6   12   14      0.17      0.00
   -5   12   14     -0.37      0.00
   -4   12   14      0.53      0.00
   -3   12   14      0.27      0.00
   -2   12   14     -0.35      0.00
   -1   12   14      0.72      0.00
    0   12   14      1.20      0.00
    1   12   14     -0.35      0.00
    2   12   14     -0.42      0.00
    3   12   14      0.29      0.00
    4   12   14     -0.94      0.00
    5   12   14     -0.16      0.00
    6   12   14     -1.43      0.00
    7   12   14     -0.69      0.00
    8   12   14     -0.82      0.00
  -15   13   14      0.36      0.00
  -14   13   14      0.31      0.00
  -13   13   14      0.16      0.00
  -12   13   14      0.87      0.00
  -11   13   14      0.35      0.00
  -10   13   14     -0.77      0.00
   -9   13   14      0.22      0.00
   -8   13   14     -0.58      0.00
   -7   13   14     -1.65      0.00
   -6   13   14      0.06      0.00
   -5   13   14      1.31      0.00
   -4   13   14      0.25      0.00
   -3   13   14     -1.49      0.00
   -2   13   14      1.40      0.00
   -1   13   14     -1.11      0.00
    0   13   14      1.53      0.00
    1   13   14      0.65      0.00
    2   13   14      0.03      0.00
    3   13   14      1.75      0.00
    4   13   14      0.57      0.00
    5   13   14     -0.29      0.00
    6   13   14     -1.19      0.00
    7   13   14      0.89      0.00
    8   13   14     -0.29      0.00
  -15   14   14      0.65      0.00
  -14   14   14      1.27      0.00
  -13   14   14      0.92      0.00
  -12   14   14     -0.31      0.00
  -11   14   14     -0.39      0.00
  -10   14   14     -0.38      0.00
   -9   14   14      0.09      0.00
   -8   14   14      0.58      0.00
   -7   14   14     -0.27      0.00
   -6   14   14     -0.34      0.00
   -5   14   14     -0.01      0.00
   -4   14   14     -1.04      0.00
   -3   14   14     -0.57      0.00
   -2   14   14     -1.48      0.00
   -1   14   14      0.31      0.00
    0   14   14     -2.14      0.00
    1   14   14     -1.43      0.00
    2   14   14      1.20      0.00
    3   14   14     -0.64      0.00
    4   14   14     -0.74      0.00
    5   14   14     -1.13      0.00
    6   14   14     -0.27      0.00
    7   14   14      0.30      0.00
    8   14   14     -0.57      0.00
  -15   15   14      0.31      0.00
  -14   15   14      0.28      0.00
  -13   15   14     -0.56      0.00
  -12   15   14      1.12      0.00
  -11   15   14     -1.16      0.00
  -10   15   14     -0.88      0.00
   -9   15   14     -0.69      0.00
   -8   15   14     -1.21      0.00
   -7   15   14     -0.32      0.00
   -6   15   14     -0.23      0.00
   -5   15   14      0.41      0.00
   -4   15   14     -1.44      0.00
   -3   15   14      0.22      0.00
   -2   15   14      0.73      0.00
   -1   15   14     -0.93      0.00
    0   15   14      0.31      0.00
    1   15   14      0.18      0.00
    2   15   14     -0.19      0.00
    3   15   14      0.46      0.00
    4   15   14     -0.52      0.00
    5   15   14     -0.38      0.00
    6   15   14      0.30      0.00
    7   15   14      0.05      0.00
  -15   16   14     -0.46      0.00
  -14   16   14      0.42      0.00
  -13   16   14     -0.51      0.00
  -12   16   14     -0.42      0.00
  -11   16   14     -0.43      0.00
  -10   16   14     -0.12      0.00
   -9   16   14      0.92      0.00
   -8   16   14     -0.63      0.00
   -7   16   14     -1.14      0.00
   -6   16   14     -1.20      0.00
   -5   16   14     -1.83      0.00
   -4   16   14     -0.29      0.00
   -3   16   14      0.16      0.00
   -2   16   14      0.08      0.00
   -1   16   14     -1.41      0.00
    0   16   14      0.82      0.00
    1   16   14      0.61      0.00
    2   16   14     -0.08      0.00
    3   16   14     -1.78      0.00
    4   16   14     -0.42      0.00
    5   16   14      0.99      0.00
    6   16   14      0.71      0.00
    7   16   14      0.08      0.00
  -14   17   14     -0.81      0.00
  -13   17   14      0.86      0.00
  -12   17   14     -0.68      0.00
  -11   17   14     -0.08      0.00
  -10   17   14     -0.57      0.00
   -9   17   14     -0.18      0.00
   -8   17   14      0.93      0.00
   -7   17   14      0.13      0.00
   -6   17   14     -0.85      0.00
   -5   17   14      1.25      0.00
   -4   17   14     -0.26      0.00
   -3   17   14      1.93      0.00
   -2   17   14     -0.98      0.00
   -1   17   14      1.44      0.00
    0   17   14     -0.34      0.00
    1   17   14     -0.03      0.00
    2   17   14      0.35      0.00
    3   17   14     -1.15      0.00
    4   17   14      1.27      0.00
    5   17   14     -0.01      0.00
    6   17   14     -0.39      0.00
    7   17   14     -0.30      0.00
  -14   18   14     -0.34      0.00
  -13   18   14     -1.11      0.00
  -12   18   14      0.43      0.00
  -11   18   14     -0.64      0.00
  -10   18   14      1.21      0.00
   -9   18   14     -0.54      0.00
   -8   18   14     -0.32      0.00
   -7   18   14     -0.83      0.00
   -6   18   14      0.45      0.00
   -5   18   14     -0.44      0.00
   -4   18   14      2.01      0.00
   -3   18   14     -0.12      0.00
   -2   18   14      1.80      0.00
   -1   18   14      0.10      0.00
    0   18   14      2.39      0.00
    1   18   14      0.29      0.00
    2   18   14     -1.93      0.00
    3   18   14      1.31      0.00
    4   18   14      1.46      0.00
    5   18   14      1.53      0.00
    6   18   14      0.95      0.00
    7   18   14     -0.85      0.00
  -14   19   14      0.61      0.00
  -13   19   14     -0.45      0.00
  -12   19   14     -0.47      0.00
  -11   19   14      0.57      0.00
  -10   19   14     -0.55      0.00
   -9   19   14      1.56      0.00
   -8   19   14      0.49      0.00
   -7   19   14     -0.17      0.00
   -6   19   14      0.96      0.00
   -5   19   14      1.04      0.00
   -4   19   14     -1.89      0.00
   -3   19   14      0.35      0.00
   -2   19   14     -1.47      0.00
   -1   19   14      0.91      0.00
    0   19   14     -0.85      0.00
    1   19   14      0.11      0.00
    2   19   14     -0.37      0.00
    3   19   14     -0.83      0.00
    4   19   14      0.31      0.00
    5   19   14     -0.37      0.00
    6   19   14     -0.77      0.00
  -14   20   14     -0.19      0.00
  -13   20   14      1.29      0.00
  -12   20   14     -0.21      0.00
  -11   20   14      1.15      0.00
  -10   20   14     -0.17      0.00
   -9   20   14      0.18      0.00
   -8   20   14      0.15      0.00
   -7   20   14      0.69      0.00
   -6   20   14      1.27      0.00
   -5   20   14     -0.11      0.00
   -4   20   14      0.33      0.00
   -3   20   14     -0.21      0.00
   -2   20   14      1.66      0.00
   -1   20   14     -0.52      0.00
    0   20   14      0.25      0.00
    1   20   14     -0.11      0.00
    2   20   14      0.08      0.00
    3   20   14      0.26      0.00
    4   20   14     -0.01      0.00
    5   20   14      0.39      0.00
    6   20   14      0.19      0.00
  -13   21   14     -0.62      0.00
  -12   21   14      0.80      0.00
  -11   21   14      0.01      0.00
  -10   21   14      0.18      0.00
   -9   21   14      0.37      0.00
   -8   21   14     -0.74      0.00
   -7   21   14      0.70      0.00
   -6   21   14      0.12      0.00
   -5   21   14     -1.03      0.00
   -4   21   14     -1.00      0.00
   -3   21   14      1.49      0.00
   -2   21   14     -1.43      0.00
   -1   21   14      1.00      0.00
    0   21   14      2.37      0.00
    1   21   14     -0.17      0.00
    2   21   14      0.13      0.00
    3   21   14     -0.41      0.00
    4   21   14     -0.74      0.00
    5   21   14     -0.38      0.00
  -13   22   14     -1.39      0.00
  -12   22   14      0.36      0.00
  -11   22   14     -1.81      0.00
  -10   22   14      0.20      0.00
   -9   22   14     -0.13      0.00
   -8   22   14     -0.80      0.00
   -7   22   14     -0.39      0.00
   -6   22   14      0.32      0.00
   -5   22   14     -1.33      0.00
   -4   22   14      1.79      0.00
   -3   22   14     -1.35      0.00
   -2   22   14      0.41      0.00
   -1   22   14     -0.60      0.00
    0   22   14     -0.15      0.00
    1   22   14      2.06      0.00
    2   22   14     -0.44      0.00
    3   22   14     -0.68      0.00
    4   22   14      0.21      0.00
    5   22   14      0.13      0.00
  -13   23   14      0.64      0.00
  -12   23   14     -0.67      0.00
  -11   23   14     -0.84      0.00
  -10   23   14      0.36      0.00
   -9   23   14     -0.98      0.00
   -8   23   14      0.44      0.00
   -7   23   14     -0.47      0.00
   -6   23   14     -0.75      0.00
   -5   23   14      0.93      0.00
   -4   23   14      0.26      0.00
   -3   23   14      0.56      0.00
   -2   23   14     -1.69      0.00
   -1   23   14      2.06      0.00
    0   23   14      0.87      0.00
    1   23   14     -0.81      0.00
    2   23   14      0.14      0.00
    3   23   14      1.14      0.00
    4   23   14     -0.25      0.00
  -13   24   14     -0.05      0.00
  -12   24   14     -0.22      0.00
  -11   24   14      0.25      0.00
  -10   24   14      0.58      0.00
   -9   24   14      0.69      0.00
   -8   24   14     -0.75      0.00
   -7   24   14      0.83      0.00
   -6   24   14     -0.60      0.00
   -5   24   14      1.18      0.00
   -4   24   14      0.39      0.00
   -3   24   14     -1.81      0.00
   -2   24   14      0.15      0.00
   -1   24   14     -0.67      0.00
    0   24   14     -0.59      0.00
    1   24   14     -0.44      0.00
    2   24   14      0.62      0.00
    3   24   14     -0.71      0.00
  -12   25   14     -0.79      0.00
  -11   25   14      1.00      0.00
  -10   25   14      1.07      0.00
   -9   25   14      0.04      0.00
   -8   25   14      0.54      0.00
   -7   25   14     -0.30      0.00
   -6   25   14      0.74      0.00
   -5   25   14      0.33      0.00
   -4   25   14     -0.57      0.00
   -3   25   14     -0.64      0.00
   -2   25   14      0.51      0.00
   -1   25   14     -0.62      0.00
    0   25   14     -1.13      0.00
    1   25   14      0.16      0.00
    2   25   14     -0.39      0.00
  -12   26   14      1.19      0.00
  -11   26   14      0.27      0.00
  -10   26   14      0.41      0.00
   -9   26   14     -0.36      0.00
   -8   26   14     -0.13      0.00
   -7   26   14     -0.31      0.00
   -6   26   14      0.09      0.00
   -5   26   14     -0.09      0.00
   -4   26   14     -0.18      0.00
   -3   26   14      0.80      0.00
   -2   26   14     -0.29      0.00
   -1   26   14     -0.61      0.00
    0   26   14      0.43      0.00
    1   26   14      0.85      0.00
   -9   27   14     -1.03      0.00
   -8   27   14     -0.07      0.00
   -7   27   14     -0.97      0.00
   -6   27   14     -1.13      0.00
   -5   27   14     -0.52      0.00
   -4   27   14     -0.54      0.00
   -3   27   14      1.07      0.00
   -2   27   14      0.09      0.00
   -1   27   14      0.67      0.00
    0   27   14      1.02      0.00
    1   27   14      1.11      0.00
   -8   28   14     -0.53      0.00
   -7   28   14      0.89      0.00
   -6   28   14     -1.13      0.00
   -5   28   14     -0.55      0.00
   -4   28   14      0.63      0.00
   -3   28   14     -0.53      0.00
   -2   28   14     -0.20      0.00
   -1   28   14      0.69      0.00
    0   28   14      2.46      0.00
   -7   29   14     -1.21      0.00
   -6   29   14      1.11      0.00
   -5   29   14      0.15      0.00
   -4   29   14      0.18      0.00
   -3   29   14     -0.79      0.00
   -2   29   14     -0.43      0.00
   -1   29   14      0.83      0.00
    0   29   14     -0.02      0.00
   -6   30   14     -0.27      0.00
   -5   30   14      0.87      0.00
   -4   30   14     -0.52      0.00
   -3   30   14     -0.63      0.00
   -2   30   14     -0.46      0.00
   -5   31   14     -0.05      0.00
   -4   31   14     -0.18      0.00
   -3   31   14     -0.24      0.00
  -17    0   15      1.89      0.00
  -15    0   15     -1.92      0.00
  -13    0   15      1.91      0.00
  -11    0   15      1.62      0.00
   -9    0   15     -0.03      0.00
   -7    0   15     -0.92      0.00
   -5    0   15     -0.37      0.00
   -3    0   15      0.25      0.00
   -1    0   15     -0.97      0.00
    1    0   15     -0.20      0.00
    3    0   15      0.52      0.00
    5    0   15      0.63      0.00
    7    0   15      0.56      0.00
  -17    1   15     -1.44      0.00
  -16    1   15     -1.70      0.00
  -15    1   15     -0.60      0.00
  -14    1   15      2.27      0.00
  -13    1   15     -1.19      0.00
  -12    1   15      1.29      0.00
  -11    1   15     -0.67      0.00
  -10    1   15      1.14      0.00
   -9    1   15     -1.29      0.00
   -8    1   15     -0.48      0.00
   -7    1   15      0.23      0.00
   -6    1   15     -0.69      0.00
   -5    1   15      0.77      0.00
   -4    1   15     -0.44      0.00
   -3    1   15     -0.92      0.00
   -2    1   15     -0.69      0.00
   -1    1   15     -0.88      0.00
    0    1   15      1.60      0.00
    1    1   15     -0.96      0.00
    2    1   15      0.14      0.00
    3    1   15     -1.61      0.00
    4    1   15     -1.14      0.00
    5    1   15      0.27      0.00
    6    1   15      1.26      0.00
    7    1   15     -1.45      0.00
  -17    2   15     -0.84      0.00
  -16    2   15     -2.74      0.00
  -15    2   15     -1.16      0.00
  -14    2   15     -0.85      0.00
  -13    2   15      1.65      0.00
  -12    2   15     -0.11      0.00
  -11    2   15      0.27      0.00
  -10    2   15     -0.36      0.00
   -9    2   15     -0.46      0.00
   -8    2   15      0.41      0.00
   -7    2   15     -0.33      0.00
   -6    2   15      1.93      0.00
   -5    2   15     -0.59      0.00
   -4    2   15      0.27      0.00
   -3    2   15     -0.34      0.00
   -2    2   15     -1.99      0.00
   -1    2   15      0.76      0.00
    0    2   15     -0.40      0.00
    1    2   15     -1.50      0.00
    2    2   15      0.24      0.00
    3    2   15      0.52      0.00
    4    2   15     -0.02      0.00
    5    2   15      0.29      0.00
    6    2   15     -0.32      0.00
    7    2   15     -0.07      0.00
  -17    3   15     -0.37      0.00
  -16    3   15     -0.90      0.00
  -15    3   15      1.64      0.00
  -14    3   15      0.16      0.00
  -13    3   15     -1.01      0.00
  -12    3   15     -0.65      0.00
  -11    3   15      0.30      0.00
  -10    3   15      0.24      0.00
   -9    3   15     -0.44      0.00
   -8    3   15     -0.03      0.00
   -7    3   15      0.42      0.00
   -6    3   15      0.06      0.00
   -5    3   15     -0.04      0.00
   -4    3   15     -0.45      0.00
   -3    3   15     -0.54      0.00
   -2    3   15      0.73      0.00
   -1    3   15      0.63      0.00
    0    3   15     -1.10      0.00
    1    3   15     -0.83      0.00
    2    3   15     -0.92      0.00
    3    3   15     -0.75      0.00
    4    3   15     -1.24      0.00
    5    3   15      0.61      0.00
    6    3   15     -0.36      0.00
    7    3   15     -1.44      0.00
  -17    4   15     -0.92      0.00
  -16    4   15     -0.53      0.00
  -15    4   15      0.16      0.00
  -14    4   15      1.21      0.00
  -13    4   15      1.50      0.00
  -12    4   15      0.32      0.00
  -11    4   15     -0.19      0.00
  -10    4   15      0.02      0.00
   -9    4   15     -0.29      0.00
   -8    4   15      0.49      0.00
   -7    4   15     -0.45      0.00
   -6    4   15      0.30      0.00
   -5    4   15     -1.37      0.00
   -4    4   15      0.54      0.00
   -3    4   15      0.44      0.00
   -2    4   15      1.06      0.00
   -1    4   15      0.29      0.00
    0    4   15     -0.01      0.00
    1    4   15     -1.12      0.00
    2    4   15      3.01      0.00
    3    4   15      0.06      0.00
    4    4   15     -0.01      0.00
    5    4   15     -0.01      0.00
    6    4   15     -1.43      0.00
    7    4   15     -0.58      0.00
    8    4   15      0.07      0.00
  -17    5   15      0.24      0.00
  -16    5   15      0.85      0.00
  -15    5   15      0.98      0.00
  -14    5   15     -0.61      0.00
  -13    5   15     -0.60      0.00
  -12    5   15     -0.52      0.00
  -11    5   15      1.85      0.00
  -10    5   15      0.25      0.00
   -9    5   15      0.90      0.00
   -8    5   15     -0.26      0.00
   -7    5   15      0.68      0.00
   -6    5   15     -0.09      0.00
   -5    5   15     -0.83      0.00
   -4    5   15      0.24      0.00
   -3    5   15      0.28      0.00
   -2    5   15      0.76      0.00
   -1    5   15     -0.26      0.00
    0    5   15     -2.27      0.00
    1    5   15      1.07      0.00
    2    5   15     -0.68      0.00
    3    5   15      0.13      0.00
    4    5   15      0.18      0.00
    5    5   15      2.25      0.00
    6    5   15      0.58      0.00
    7    5   15     -0.39      0.00
    8    5   15     -0.53      0.00
  -17    6   15     -0.40      0.00
  -16    6   15      0.73      0.00
  -15    6   15      0.12      0.00
  -14    6   15      0.20      0.00
  -13    6   15      0.03      0.00
  -12    6   15     -2.46      0.00
  -11    6   15     -1.43      0.00
  -10    6   15     -1.18      0.00
   -9    6   15      0.16      0.00
   -8    6   15      0.29      0.00
   -7    6   15      1.05      0.00
   -6    6   15     -0.87      0.00
   -5    6   15      1.71      0.00
   -4    6   15      0.27      0.00
   -3    6   15      0.69      0.00
   -2    6   15     -0.08      0.00
   -1    6   15     -0.35      0.00
    0    6   15      0.48      0.00
    1    6   15     -0.22      0.00
    2    6   15      1.11      0.00
    3    6   15     -2.25      0.00
    4    6   15      1.05      0.00
    5    6   15     -0.65      0.00
    6    6   15     -0.67      0.00
    7    6   15      1.03      0.00
    8    6   15     -0.54      0.00
  -17    7   15      0.71      0.00
  -16    7   15     -1.20      0.00
  -15    7   15     -0.61      0.00
  -14    7   15     -1.05      0.00
  -13    7   15     -2.32      0.00
  -12    7   15      0.23      0.00
  -11    7   15     -0.20      0.00
  -10    7   15     -0.93      0.00
   -9    7   15     -0.91      0.00
   -8    7   15     -1.17      0.00
   -7    7   15     -0.04      0.00
   -6    7   15      0.38      0.00
   -5    7   15      0.53      0.00
   -4    7   15      1.35      0.00
   -3    7   15     -0.18      0.00
   -2    7   15     -0.56      0.00
   -1    7   15      1.13      0.00
    0    7   15     -0.35      0.00
    1    7   15     -1.02      0.00
    2    7   15     -0.48      0.00
    3    7   15      0.10      0.00
    4    7   15      1.07      0.00
    5    7   15      0.25      0.00
    6    7   15     -0.04      0.00
    7    7   15     -0.61      0.00
    8    7   15      0.69      0.00
  -17    8   15     -1.62      0.00
  -16    8   15      0.75      0.00
  -15    8   15     -1.49      0.00
  -14    8   15     -0.05      0.00
  -13    8   15     -1.45      0.00
  -12    8   15     -1.08      0.00
  -11    8   15     -0.47      0.00
  -10    8   15      0.16      0.00
   -9    8   15      0.49      0.00
   -8    8   15      0.09      0.00
   -7    8   15     -0.17      0.00
   -6    8   15      0.25      0.00
   -5    8   15      2.31      0.00
   -4    8   15     -0.12      0.00
   -3    8   15      0.43      0.00
   -2    8   15      0.66      0.00
   -1    8   15     -0.26      0.00
    0    8   15     -0.29      0.00
    1    8   15     -0.57      0.00
    2    8   15     -2.72      0.00
    3    8   15     -1.22      0.00
    4    8   15     -1.52      0.00
    5    8   15     -1.58      0.00
    6    8   15      0.32      0.00
    7    8   15      0.76      0.00
    8    8   15      0.68      0.00
  -17    9   15      0.03      0.00
  -16    9   15      0.23      0.00
  -15    9   15      0.19      0.00
  -14    9   15     -0.30      0.00
  -13    9   15     -0.19      0.00
  -12    9   15      1.02      0.00
  -11    9   15     -0.60      0.00
  -10    9   15     -0.63      0.00
   -9    9   15     -1.88      0.00
   -8    9   15     -0.60      0.00
   -7    9   15      0.01      0.00
   -6    9   15      0.95      0.00
   -5    9   15      0.73      0.00
   -4    9   15      0.64      0.00
   -3    9   15     -0.05      0.00
   -2    9   15      0.94      0.00
   -1    9   15      1.81      0.00
    0    9   15     -1.68      0.00
    1    9   15      0.17      0.00
    2    9   15      1.26      0.00
    3    9   15     -1.42      0.00
    4    9   15     -0.39      0.00
    5    9   15     -1.44      0.00
    6    9   15     -0.26      0.00
    7    9   15      0.30      0.00
  -16   10   15      0.51      0.00
  -15   10   15     -0.03      0.00
  -14   10   15      0.53      0.00
  -13   10   15     -0.64      0.00
  -12   10   15      0.12      0.00
  -11   10   15      0.44      0.00
  -10   10   15      0.42      0.00
   -9   10   15      0.44      0.00
   -8   10   15     -0.34      0.00
   -7   10   15     -0.38      0.00
   -6   10   15      0.07      0.00
   -5   10   15     -0.06      0.00
   -4   10   15     -0.98      0.00
   -3   10   15      0.73      0.00
   -2   10   15     -1.11      0.00
   -1   10   15     -0.83      0.00
    0   10   15     -0.94      0.00
    1   10   15      0.29      0.00
    2   10   15     -1.82      0.00
    3   10   15     -0.49      0.00
    4   10   15      0.00      0.00
    5   10   15      0.65      0.00
    6   10   15      2.03      0.00
    7   10   15     -0.42      0.00
  -16   11   15     -0.45      0.00
  -15   11   15      0.71      0.00
  -14   11   15     -1.63      0.00
  -13   11   15      0.08      0.00
  -12   11   15     -0.54      0.00
  -11   11   15     -0.93      0.00
  -10   11   15      0.02      0.00
   -9   11   15     -0.69      0.00
   -8   11   15      1.40      0.00
   -7   11   15      0.93      0.00
   -6   11   15      0.42      0.00
   -5   11   15     -1.04      0.00
   -4   11   15      1.27      0.00
   -3   11   15      0.30      0.00
   -2   11   15      1.54      0.00
   -1   11   15     -1.73      0.00
    0   11   15      1.35      0.00
    1   11   15      0.09      0.00
    2   11   15     -1.37      0.00
    3   11   15     -0.85      0.00
    4   11   15     -0.56      0.00
    5   11   15      1.71      0.00
    6   11   15     -0.40      0.00
    7   11   15     -0.07      0.00
  -15   12   15     -0.70      0.00
  -14   12   15     -0.29      0.00
  -13   12   15     -0.32      0.00
  -12   12   15     -0.56      0.00
  -11   12   15      0.99      0.00
  -10   12   15     -0.21      0.00
   -9   12   15      0.19      0.00
   -8   12   15     -0.20      0.00
   -7   12   15     -0.32      0.00
   -6   12   15     -0.11      0.00
   -5   12   15     -0.51      0.00
   -4   12   15      0.96      0.00
   -3   12   15      0.21      0.00
   -2   12   15     -0.41      0.00
   -1   12   15      1.59      0.00
    0   12   15     -0.13      0.00
    1   12   15      1.10      0.00
    2   12   15     -1.18      0.00
    3   12   15      0.68      0.00
    4   12   15      1.45      0.00
    5   12   15      0.59      0.00
    6   12   15     -0.43      0.00
    7   12   15      0.71      0.00
  -15   13   15      0.13      0.00
  -14   13   15     -0.48      0.00
  -13   13   15     -0.18      0.00
  -12   13   15      0.75      0.00
  -11   13   15      0.46      0.00
  -10   13   15      0.47      0.00
   -9   13   15      0.39      0.00
   -8   13   15      1.74      0.00
   -7   13   15      0.78      0.00
   -6   13   15      0.01      0.00
   -5   13   15      0.50      0.00
   -4   13   15      1.02      0.00
   -3   13   15      0.52      0.00
   -2   13   15      0.38      0.00
   -1   13   15     -0.16      0.00
    0   13   15      0.56      0.00
    1   13   15     -1.31      0.00
    2   13   15     -0.61      0.00
    3   13   15      0.61      0.00
    4   13   15      0.27      0.00
    5   13   15     -0.14      0.00
    6   13   15     -0.56      0.00
  -15   14   15     -0.72      0.00
  -14   14   15     -0.31      0.00
  -13   14   15      0.68      0.00
  -12   14   15     -0.27      0.00
  -11   14   15      0.43      0.00
  -10   14   15     -0.39      0.00
   -9   14   15     -0.03      0.00
   -8   14   15     -0.63      0.00
   -7   14   15      1.16      0.00
   -6   14   15      0.64      0.00
   -5   14   15      0.96      0.00
   -4   14   15     -0.17      0.00
   -3   14   15      0.44      0.00
   -2   14   15      1.11      0.00
   -1   14   15      1.31      0.00
    0   14   15      0.62      0.00
    1   14   15     -0.21      0.00
    2   14   15      1.03      0.00
    3   14   15      1.13      0.00
    4   14   15     -0.26      0.00
    5   14   15     -0.39      0.00
    6   14   15      0.43      0.00
  -14   15   15      0.24      0.00
  -13   15   15     -0.43      0.00
  -12   15   15      0.22      0.00
  -11   15   15      0.29      0.00
  -10   15   15     -0.44      0.00
   -9   15   15      1.03      0.00
   -8   15   15      0.62      0.00
   -7   15   15      0.31      0.00
   -6   15   15     -0.30      0.00
   -5   15   15     -0.70      0.00
   -4   15   15     -0.39      0.00
   -3   15   15     -1.80      0.00
   -2   15   15      0.05      0.00
   -1   15   15     -2.50      0.00
    0   15   15     -1.17      0.00
    1   15   15      0.17      0.00
    2   15   15      0.42      0.00
    3   15   15     -0.49      0.00
    4   15   15     -0.99      0.00
    5   15   15      0.03      0.00
    6   15   15      0.65      0.00
  -14   16   15      1.15      0.00
  -13   16   15      0.63      0.00
  -12   16   15      0.23      0.00
  -11   16   15     -0.80      0.00
  -10   16   15      0.43      0.00
   -9   16   15     -0.65      0.00
   -8   16   15      0.95      0.00
   -7   16   15      0.99      0.00
   -6   16   15      0.19      0.00
   -5   16   15     -0.58      0.00
   -4   16   15     -0.49      0.00
   -3   16   15      1.19      0.00
   -2   16   15     -1.21      0.00
   -1   16   15     -0.34      0.00
    0   16   15     -1.26      0.00
    1   16   15     -1.34      0.00
    2   16   15      0.74      0.00
    3   16   15     -0.76      0.00
    4   16   15     -1.01      0.00
    5   16   15     -0.15      0.00
    6   16   15      0.48      0.00
  -14   17   15      0.04      0.00
  -13   17   15     -0.57      0.00
  -12   17   15      0.63      0.00
  -11   17   15     -0.36      0.00
  -10   17   15      0.74      0.00
   -9   17   15     -0.06      0.00
   -8   17   15     -0.76      0.00
   -7   17   15     -0.95      0.00
   -6   17   15     -1.83      0.00
   -5   17   15      0.43      0.00
   -4   17   15      0.02      0.00
   -3   17   15     -0.38      0.00
   -2   17   15     -0.13      0.00
   -1   17   15      0.02      0.00
    0   17   15      0.43      0.00
    1   17   15      1.20      0.00
    2   17   15     -0.38      0.00
    3   17   15      0.01      0.00
    4   17   15      0.32      0.00
    5   17   15      0.11      0.00
  -14   18   15      0.59      0.00
  -13   18   15     -0.05      0.00
  -12   18   15     -1.39      0.00
  -11   18   15     -0.07      0.00
  -10   18   15     -0.41      0.00
   -9   18   15      0.41      0.00
   -8   18   15      0.56      0.00
   -7   18   15     -1.38      0.00
   -6   18   15     -0.49      0.00
   -5   18   15     -0.59      0.00
   -4   18   15      1.08      0.00
   -3   18   15     -0.70      0.00
   -2   18   15     -0.08      0.00
   -1   18   15     -1.40      0.00
    0   18   15     -0.52      0.00
    1   18   15     -0.50      0.00
    2   18   15      1.02      0.00
    3   18   15      0.23      0.00
    4   18   15     -0.68      0.00
    5   18   15     -0.36      0.00
  -13   19   15      0.90      0.00
  -12   19   15     -0.84      0.00
  -11   19   15      0.90      0.00
  -10   19   15     -0.48      0.00
   -9   19   15     -0.47      0.00
   -8   19   15     -0.33      0.00
   -7   19   15     -0.33      0.00
   -6   19   15     -0.78      0.00
   -5   19   15      2.28      0.00
   -4   19   15     -0.75      0.00
   -3   19   15      1.00      0.00
   -2   19   15      0.42      0.00
   -1   19   15      1.20      0.00
    0   19   15     -1.58      0.00
    1   19   15     -0.73      0.00
    2   19   15      1.52      0.00
    3   19   15      0.56      0.00
    4   19   15      0.70      0.00
  -13   20   15     -0.97      0.00
  -12   20   15      0.91      0.00
  -11   20   15      0.44      0.00
  -10   20   15      0.81      0.00
   -9   20   15      1.18      0.00
   -8   20   15      0.36      0.00
   -7   20   15     -0.05      0.00
   -6   20   15      1.02      0.00
   -5   20   15     -1.42      0.00
   -4   20   15     -0.04      0.00
   -3   20   15     -0.63      0.00
   -2   20   15      0.68      0.00
   -1   20   15     -2.34      0.00
    0   20   15     -0.41      0.00
    1   20   15      0.06      0.00
    2   20   15     -0.69      0.00
    3   20   15      0.12      0.00
    4   20   15     -0.35      0.00
  -13   21   15      0.11      0.00
  -12   21   15      0.82      0.00
  -11   21   15      0.54      0.00
  -10   21   15     -0.59      0.00
   -9   21   15      0.84      0.00
   -8   21   15      1.15      0.00
   -7   21   15      0.49      0.00
   -6   21   15      0.59      0.00
   -5   21   15     -0.20      0.00
   -4   21   15     -1.23      0.00
   -3   21   15      1.54      0.00
   -2   21   15     -1.17      0.00
   -1   21   15     -0.72      0.00
    0   21   15     -1.66      0.00
    1   21   15      0.37      0.00
    2   21   15      0.07      0.00
    3   21   15     -1.39      0.00
  -13   22   15      0.43      0.00
  -12   22   15      0.82      0.00
  -11   22   15     -0.41      0.00
  -10   22   15     -0.36      0.00
   -9   22   15      0.22      0.00
   -8   22   15     -0.01      0.00
   -7   22   15      0.42      0.00
   -6   22   15     -1.25      0.00
   -5   22   15     -1.13      0.00
   -4   22   15      0.93      0.00
   -3   22   15      0.21      0.00
   -2   22   15      0.88      0.00
   -1   22   15      0.63      0.00
    0   22   15      0.71      0.00
    1   22   15      0.04      0.00
    2   22   15     -0.66      0.00
    3   22   15     -0.55      0.00
  -13   23   15     -0.75      0.00
  -12   23   15     -0.55      0.00
  -11   23   15     -0.85      0.00
  -10   23   15     -0.22      0.00
   -9   23   15     -0.25      0.00
   -8   23   15     -0.12      0.00
   -7   23   15      0.32      0.00
   -6   23   15     -0.84      0.00
   -5   23   15     -0.71      0.00
   -4   23   15     -0.29      0.00
   -3   23   15      0.94      0.00
   -2   23   15     -0.32      0.00
   -1   23   15      0.62      0.00
    0   23   15      1.68      0.00
    1   23   15     -0.77      0.00
    2   23   15     -1.07      0.00
  -12   24   15      0.14      0.00
  -11   24   15     -1.68      0.00
  -10   24   15      0.57      0.00
   -9   24   15      0.63      0.00
   -8   24   15      0.14      0.00
   -7   24   15     -0.40      0.00
   -6   24   15      0.87      0.00
   -5   24   15      0.14      0.00
   -4   24   15      0.97      0.00
   -3   24   15     -1.50      0.00
   -2   24   15      1.92      0.00
   -1   24   15      1.06      0.00
    0   24   15     -1.81      0.00
    1   24   15      0.13      0.00
  -11   25   15      0.53      0.00
  -10   25   15      1.22      0.00
   -9   25   15     -0.62      0.00
   -8   25   15      1.32      0.00
   -7   25   15      0.71      0.00
   -6   25   15      0.66      0.00
   -5   25   15      0.81      0.00
   -4   25   15     -1.06      0.00
   -3   25   15      1.34      0.00
   -2   25   15     -0.48      0.00
   -1   25   15     -0.91      0.00
    0   25   15     -0.99      0.00
    1   25   15     -0.29      0.00
   -9   26   15      0.38      0.00
   -8   26   15     -1.17      0.00
   -7   26   15      1.21      0.00
   -6   26   15      0.20      0.00
   -5   26   15     -0.01      0.00
   -4   26   15     -0.49      0.00
   -3   26   15     -0.10      0.00
   -2   26   15      0.17      0.00
   -1   26   15     -2.27      0.00
   -8   27   15      0.00      0.00
   -7   27   15     -0.25      0.00
   -6   27   15     -0.07      0.00
   -5   27   15     -0.50      0.00
   -4   27   15      0.62      0.00
   -3   27   15      0.38      0.00
   -2   27   15     -1.04      0.00
   -1   27   15     -1.61      0.00
   -7   28   15     -0.27      0.00
   -6   28   15     -0.60      0.00
   -5   28   15     -0.21      0.00
   -4   28   15      0.73      0.00
   -3   28   15      0.82      0.00
   -2   28   15     -0.96      0.00
   -1   28   15     -0.01      0.00
   -6   29   15     -0.57      0.00
   -5   29   15      0.71      0.00
   -4   29   15      0.16      0.00
   -3   29   15     -0.35      0.00
   -4   30   15      0.16      0.00
  -16    0   16      1.97      0.00
  -14    0   16      0.18      0.00
  -12    0   16     -0.06      0.00
  -10    0   16      0.43      0.00
   -8    0   16     -1.17      0.00
   -6    0   16     -0.53      0.00
   -4    0   16      1.51      0.00
   -2    0   16      1.12      0.00
    0    0   16      1.83      0.00
    2    0   16      2.08      0.00
    4    0   16     -0.57      0.00
    6    0   16      0.61      0.00
  -16    1   16     -1.51      0.00
  -15    1   16     -1.04      0.00
  -14    1   16      0.42      0.00
  -13    1   16     -0.55      0.00
  -12    1   16      0.95      0.00
  -11    1   16     -0.58      0.00
  -10    1   16      0.35      0.00
   -9    1   16      0.82      0.00
   -8    1   16     -0.33      0.00
   -7    1   16     -0.76      0.00
   -6    1   16      0.00      0.00
   -5    1   16      0.43      0.00
   -4    1   16     -0.29      0.00
   -3    1   16      1.07      0.00
   -2    1   16     -1.02      0.00
   -1    1   16     -0.42      0.00
    0    1   16      1.23      0.00
    1    1   16      0.19      0.00
    2    1   16      0.45      0.00
    3    1   16      2.19      0.00
    4    1   16      0.04      0.00
    5    1   16     -0.82      0.00
    6    1   16      1.22      0.00
  -16    2   16      0.18      0.00
  -15    2   16      0.45      0.00
  -14    2   16     -1.18      0.00
  -13    2   16      0.44      0.00
  -12    2   16     -0.63      0.00
  -11    2   16     -0.65      0.00
  -10    2   16     -0.81      0.00
   -9    2   16     -0.92      0.00
   -8    2   16      0.06      0.00
   -7    2   16     -0.02      0.00
   -6    2   16      1.48      0.00
   -5    2   16      0.09      0.00
   -4    2   16      0.24      0.00
   -3    2   16     -0.84      0.00
   -2    2   16     -1.18      0.00
   -1    2   16      1.27      0.00
    0    2   16      0.76      0.00
    1    2   16     -0.55      0.00
    2    2   16     -0.51      0.00
    3    2   16     -0.83      0.00
    4    2   16     -0.30      0.00
    5    2   16      0.82      0.00
    6    2   16      0.33      0.00
  -16    3   16     -1.78      0.00
  -15    3   16     -0.50      0.00
  -14    3   16      1.44      0.00
  -13    3   16      0.00      0.00
  -12    3   16      0.58      0.00
  -11    3   16     -1.72      0.00
  -10    3   16     -0.17      0.00
   -9    3   16     -0.66      0.00
   -8    3   16     -1.15      0.00
   -7    3   16      0.59      0.00
   -6    3   16     -0.18      0.00
   -5    3   16      0.32      0.00
   -4    3   16      0.31      0.00
   -3    3   16     -1.00      0.00
   -2    3   16      0.52      0.00
   -1    3   16      0.12      0.00
    0    3   16      0.96      0.00
    1    3   16     -0.82      0.00
    2    3   16      0.79      0.00
    3    3   16      0.63      0.00
    4    3   16     -0.69      0.00
    5    3   16     -0.30      0.00
    6    3   16      1.60      0.00
  -16    4   16      0.70      0.00
  -15    4   16      0.14      0.00
  -14    4   16     -1.09      0.00
  -13    4   16      1.85      0.00
  -12    4   16      0.21      0.00
  -11    4   16      0.28      0.00
  -10    4   16      0.01      0.00
   -9    4   16     -0.15      0.00
   -8    4   16      0.85      0.00
   -7    4   16     -0.53      0.00
   -6    4   16      1.00      0.00
   -5    4   16     -1.17      0.00
   -4    4   16     -0.98      0.00
   -3    4   16     -0.09      0.00
   -2    4   16     -0.95      0.00
   -1    4   16      1.32      0.00
    0    4   16     -0.87      0.00
    1    4   16     -1.30      0.00
    2    4   16     -0.39      0.00
    3    4   16     -0.71      0.00
    4    4   16     -0.20      0.00
    5    4   16      0.69      0.00
    6    4   16     -0.30      0.00
    7    4   16      0.95      0.00
  -16    5   16     -0.24      0.00
  -15    5   16      2.30      0.00
  -14    5   16      1.25      0.00
  -13    5   16      1.89      0.00
  -12    5   16     -0.57      0.00
  -11    5   16      0.38      0.00
  -10    5   16      0.33      0.00
   -9    5   16     -0.10      0.00
   -8    5   16     -0.75      0.00
   -7    5   16      0.77      0.00
   -6    5   16     -1.41      0.00
   -5    5   16      0.01      0.00
   -4    5   16      0.68      0.00
   -3    5   16     -0.53      0.00
   -2    5   16      0.20      0.00
   -1    5   16      0.15      0.00
    0    5   16     -0.36      0.00
    1    5   16      1.70      0.00
    2    5   16      0.59      0.00
    3    5   16      0.39      0.00
    4    5   16     -1.66      0.00
    5    5   16      0.61      0.00
    6    5   16     -0.18      0.00
    7    5   16     -0.98      0.00
  -16    6   16      0.92      0.00
  -15    6   16     -0.70      0.00
  -14    6   16      1.05      0.00
  -13    6   16      0.97      0.00
  -12    6   16      1.07      0.00
  -11    6   16      0.69      0.00
  -10    6   16      0.70      0.00
   -9    6   16      0.57      0.00
   -8    6   16      0.03      0.00
   -7    6   16     -0.32      0.00
   -6    6   16     -1.30      0.00
   -5    6   16     -1.83      0.00
   -4    6   16     -0.34      0.00
   -3    6   16      0.00      0.00
   -2    6   16     -0.21      0.00
   -1    6   16     -0.59      0.00
    0    6   16      1.78      0.00
    1    6   16     -0.33      0.00
    2    6   16      2.07      0.00
    3    6   16      0.35      0.00
    4    6   16      2.79      0.00
    5    6   16      1.05      0.00
    6    6   16     -0.45      0.00
    7    6   16     -0.65      0.00
  -16    7   16      0.86      0.00
  -15    7   16      0.70      0.00
  -14    7   16      0.65      0.00
  -13    7   16     -0.79      0.00
  -12    7   16     -1.64      0.00
  -11    7   16      0.95      0.00
  -10    7   16      0.33      0.00
   -9    7   16      1.24      0.00
   -8    7   16      1.16      0.00
   -7    7   16      0.05      0.00
   -6    7   16     -0.04      0.00
   -5    7   16      0.59      0.00
   -4    7   16      0.17      0.00
   -3    7   16     -0.87      0.00
   -2    7   16     -0.16      0.00
   -1    7   16      0.81      0.00
    0    7   16     -0.19      0.00
    1    7   16      1.77      0.00
    2    7   16      0.25      0.00
    3    7   16      0.98      0.00
    4    7   16      0.07      0.00
    5    7   16      0.61      0.00
    6    7   16     -0.14      0.00
    7    7   16     -0.36      0.00
  -16    8   16      0.40      0.00
  -15    8   16     -0.42      0.00
  -14    8   16      0.13      0.00
  -13    8   16      0.22      0.00
  -12    8   16      0.40      0.00
  -11    8   16     -0.56      0.00
  -10    8   16     -0.01      0.00
   -9    8   16     -0.60      0.00
   -8    8   16     -0.59      0.00
   -7    8   16      0.63      0.00
   -6    8   16     -1.68      0.00
   -5    8   16      1.41      0.00
   -4    8   16     -0.27      0.00
   -3    8   16      0.91      0.00
   -2    8   16      0.66      0.00
   -1    8   16      0.85      0.00
    0    8   16      0.08      0.00
    1    8   16     -0.11      0.00
    2    8   16      2.61      0.00
    3    8   16      0.81      0.00
    4    8   16      1.44      0.00
    5    8   16     -1.70      0.00
    6    8   16     -0.80      0.00
  -16    9   16     -0.59      0.00
  -15    9   16     -0.51      0.00
  -14    9   16      0.77      0.00
  -13    9   16     -0.96      0.00
  -12    9   16      0.89      0.00
  -11    9   16      0.95      0.00
  -10    9   16      1.01      0.00
   -9    9   16      0.40      0.00
   -8    9   16     -0.19      0.00
   -7    9   16     -1.11      0.00
   -6    9   16      1.11      0.00
   -5    9   16     -0.73      0.00
   -4    9   16     -0.89      0.00
   -3    9   16     -1.01      0.00
   -2    9   16     -0.27      0.00
   -1    9   16      0.21      0.00
    0    9   16     -0.96      0.00
    1    9   16     -0.30      0.00
    2    9   16      1.06      0.00
    3    9   16     -0.11      0.00
    4    9   16     -1.25      0.00
    5    9   16     -0.23      0.00
    6    9   16      0.72      0.00
  -16   10   16      0.79      0.00
  -15   10   16      0.24      0.00
  -14   10   16      0.09      0.00
  -13   10   16      0.69      0.00
  -12   10   16     -0.13      0.00
  -11   10   16     -0.72      0.00
  -10   10   16     -0.46      0.00
   -9   10   16     -0.52      0.00
   -8   10   16      0.03      0.00
   -7   10   16     -0.10      0.00
   -6   10   16      0.34      0.00
   -5   10   16      0.75      0.00
   -4   10   16     -1.19      0.00
   -3   10   16      0.33      0.00
   -2   10   16      1.05      0.00
   -1   10   16     -1.94      0.00
    0   10   16      0.01      0.00
    1   10   16      2.23      0.00
    2   10   16      0.31      0.00
    3   10   16     -0.65      0.00
    4   10   16     -1.13      0.00
    5   10   16     -0.84      0.00
    6   10   16      0.85      0.00
  -16   11   16     -0.19      0.00
  -15   11   16      0.75      0.00
  -14   11   16      0.52      0.00
  -13   11   16     -0.12      0.00
  -12   11   16      0.19      0.00
  -11   11   16     -0.12      0.00
  -10   11   16      0.33      0.00
   -9   11   16     -0.96      0.00
   -8   11   16     -0.97      0.00
   -7   11   16     -0.81      0.00
   -6   11   16     -0.02      0.00
   -5   11   16     -1.72      0.00
   -4   11   16     -0.58      0.00
   -3   11   16     -1.06      0.00
   -2   11   16     -1.42      0.00
   -1   11   16      0.79      0.00
    0   11   16     -1.14      0.00
    1   11   16      0.90      0.00
    2   11   16      0.52      0.00
    3   11   16     -0.52      0.00
    4   11   16      0.02      0.00
    5   11   16      1.46      0.00
  -16   12   16     -0.09      0.00
  -15   12   16     -0.28      0.00
  -14   12   16      0.22      0.00
  -13   12   16      0.04      0.00
  -12   12   16     -0.58      0.00
  -11   12   16      0.21      0.00
  -10   12   16      0.19      0.00
   -9   12   16      0.40      0.00
   -8   12   16      0.21      0.00
   -7   12   16     -0.26      0.00
   -6   12   16      0.67      0.00
   -5   12   16      0.23      0.00
   -4   12   16     -0.70      0.00
   -3   12   16      0.74      0.00
   -2   12   16     -1.49      0.00
   -1   12   16     -0.53      0.00
    0   12   16      0.26      0.00
    1   12   16     -0.25      0.00
    2   12   16     -2.12      0.00
    3   12   16     -0.10      0.00
    4   12   16      0.65      0.00
    5   12   16      0.05      0.00
  -15   13   16      1.36      0.00
  -14   13   16     -1.16      0.00
  -13   13   16      0.20      0.00
  -12   13   16     -0.22      0.00
  -11   13   16      0.31      0.00
  -10   13   16     -0.22      0.00
   -9   13   16     -0.74      0.00
   -8   13   16     -1.23      0.00
   -7   13   16     -0.51      0.00
   -6   13   16      0.21      0.00
   -5   13   16      0.61      0.00
   -4   13   16      1.15      0.00
   -3   13   16     -0.80      0.00
   -2   13   16      2.21      0.00
   -1   13   16      0.24      0.00
    0   13   16      2.12      0.00
    1   13   16     -0.14      0.00
    2   13   16     -0.12      0.00
    3   13   16      0.80      0.00
    4   13   16     -0.29      0.00
    5   13   16     -0.57      0.00
  -15   14   16     -0.11      0.00
  -14   14   16     -0.22      0.00
  -13   14   16      0.25      0.00
  -12   14   16     -0.17      0.00
  -11   14   16      0.62      0.00
  -10   14   16     -0.60      0.00
   -9   14   16      0.28      0.00
   -8   14   16     -0.46      0.00
   -7   14   16      0.02      0.00
   -6   14   16      0.46      0.00
   -5   14   16     -0.58      0.00
   -4   14   16      0.24      0.00
   -3   14   16     -0.35      0.00
   -2   14   16     -0.63      0.00
   -1   14   16      1.61      0.00
    0   14   16     -1.05      0.00
    1   14   16      0.23      0.00
    2   14   16      0.57      0.00
    3   14   16      0.41      0.00
    4   14   16      0.21      0.00
  -14   15   16      0.06      0.00
  -13   15   16     -0.86      0.00
  -12   15   16      0.66      0.00
  -11   15   16     -0.51      0.00
  -10   15   16     -0.42      0.00
   -9   15   16     -0.85      0.00
   -8   15   16      0.08      0.00
   -7   15   16      1.34      0.00
   -6   15   16      1.51      0.00
   -5   15   16      0.45      0.00
   -4   15   16     -0.95      0.00
   -3   15   16      1.36      0.00
   -2   15   16      1.34      0.00
   -1   15   16      0.44      0.00
    0   15   16      1.15      0.00
    1   15   16     -0.33      0.00
    2   15   16     -0.70      0.00
    3   15   16      0.28      0.00
    4   15   16     -0.31      0.00
  -14   16   16     -0.25      0.00
  -13   16   16      0.21      0.00
  -12   16   16      0.40      0.00
  -11   16   16     -0.56      0.00
  -10   16   16      0.17      0.00
   -9   16   16      0.36      0.00
   -8   16   16      0.26      0.00
   -7   16   16      1.05      0.00
   -6   16   16     -0.34      0.00
   -5   16   16     -0.47      0.00
   -4   16   16     -0.51      0.00
   -3   16   16     -0.63      0.00
   -2   16   16     -0.53      0.00
   -1   16   16      0.28      0.00
    0   16   16      1.10      0.00
    1   16   16      0.24      0.00
    2   16   16     -0.51      0.00
    3   16   16     -0.63      0.00
    4   16   16      0.59      0.00
  -13   17   16      0.30      0.00
  -12   17   16     -0.34      0.00
  -11   17   16     -0.14      0.00
  -10   17   16     -0.81      0.00
   -9   17   16      0.00      0.00
   -8   17   16      0.99      0.00
   -7   17   16      1.31      0.00
   -6   17   16      0.23      0.00
   -5   17   16     -1.52      0.00
   -4   17   16      0.62      0.00
   -3   17   16     -0.94      0.00
   -2   17   16     -0.22      0.00
   -1   17   16     -0.40      0.00
    0   17   16     -0.08      0.00
    1   17   16     -1.10      0.00
    2   17   16     -0.87      0.00
    3   17   16     -0.36      0.00
  -13   18   16      0.13      0.00
  -12   18   16     -0.18      0.00
  -11   18   16     -0.76      0.00
  -10   18   16     -0.09      0.00
   -9   18   16     -1.85      0.00
   -8   18   16     -0.90      0.00
   -7   18   16     -0.78      0.00
   -6   18   16     -0.08      0.00
   -5   18   16      0.29      0.00
   -4   18   16     -0.18      0.00
   -3   18   16      0.12      0.00
   -2   18   16      0.49      0.00
   -1   18   16      2.48      0.00
    0   18   16      2.12      0.00
    1   18   16     -0.81      0.00
    2   18   16      0.18      0.00
    3   18   16      1.24      0.00
  -13   19   16     -1.11      0.00
  -12   19   16     -0.75      0.00
  -11   19   16     -0.40      0.00
  -10   19   16     -0.24      0.00
   -9   19   16     -0.13      0.00
   -8   19   16     -1.06      0.00
   -7   19   16     -0.23      0.00
   -6   19   16     -0.67      0.00
   -5   19   16      0.84      0.00
   -4   19   16     -0.36      0.00
   -3   19   16     -0.90      0.00
   -2   19   16      0.16      0.00
   -1   19   16      1.20      0.00
    0   19   16     -0.66      0.00
    1   19   16      0.85      0.00
    2   19   16      0.80      0.00
  -12   20   16     -0.74      0.00
  -11   20   16      0.52      0.00
  -10   20   16     -0.94      0.00
   -9   20   16     -0.84      0.00
   -8   20   16     -0.18      0.00
   -7   20   16      0.22      0.00
   -6   20   16      2.21      0.00
   -5   20   16      0.42      0.00
   -4   20   16      0.43      0.00
   -3   20   16     -0.08      0.00
   -2   20   16      0.86      0.00
   -1   20   16     -0.83      0.00
    0   20   16     -0.48      0.00
    1   20   16     -0.19      0.00
    2   20   16      1.58      0.00
  -12   21   16      0.44      0.00
  -11   21   16      1.29      0.00
  -10   21   16      0.19      0.00
   -9   21   16      0.00      0.00
   -8   21   16     -0.60      0.00
   -7   21   16      1.18      0.00
   -6   21   16     -0.58      0.00
   -5   21   16      1.37      0.00
   -4   21   16     -0.42      0.00
   -3   21   16      0.21      0.00
   -2   21   16     -1.02      0.00
   -1   21   16     -0.09      0.00
    0   21   16     -0.52      0.00
    1   21   16      0.65      0.00
  -12   22   16      0.82      0.00
  -11   22   16     -0.54      0.00
  -10   22   16     -0.25      0.00
   -9   22   16      0.39      0.00
   -8   22   16     -0.21      0.00
   -7   22   16      0.23      0.00
   -6   22   16      0.29      0.00
   -5   22   16     -0.90      0.00
   -4   22   16      0.28      0.00
   -3   22   16     -1.26      0.00
   -2   22   16     -0.82      0.00
   -1   22   16     -1.33      0.00
    0   22   16      0.74      0.00
    1   22   16      0.72      0.00
  -12   23   16      0.25      0.00
  -11   23   16     -1.10      0.00
  -10   23   16     -0.32      0.00
   -9   23   16     -0.77      0.00
   -8   23   16      0.12      0.00
   -7   23   16     -1.90      0.00
   -6   23   16     -0.90      0.00
   -5   23   16      0.69      0.00
   -4   23   16     -0.08      0.00
   -3   23   16     -0.16      0.00
   -2   23   16     -0.62      0.00
   -1   23   16      1.76      0.00
    0   23   16      0.26      0.00
    1   23   16      0.12      0.00
  -11   24   16     -0.95      0.00
  -10   24   16      0.25      0.00
   -9   24   16      0.54      0.00
   -8   24   16      0.07      0.00
   -7   24   16     -0.58      0.00
   -6   24   16     -0.98      0.00
   -5   24   16      0.21      0.00
   -4   24   16      0.04      0.00
   -3   24   16     -0.78      0.00
   -2   24   16      1.79      0.00
   -1   24   16      1.93      0.00
    0   24   16     -0.09      0.00
   -9   25   16      0.56      0.00
   -8   25   16      0.01      0.00
   -7   25   16      0.24      0.00
   -6   25   16      0.85      0.00
   -5   25   16      0.44      0.00
   -4   25   16     -1.32      0.00
   -3   25   16      0.73      0.00
   -2   25   16      1.92      0.00
   -1   25   16      0.00      0.00
    0   25   16     -0.12      0.00
   -8   26   16      0.37      0.00
   -7   26   16     -0.13      0.00
   -6   26   16      0.89      0.00
   -5   26   16     -0.65      0.00
   -4   26   16      0.34      0.00
   -3   26   16      0.28      0.00
   -7   27   16      0.53      0.00
   -6   27   16     -0.26      0.00
   -5   27   16     -0.63      0.00
   -4   27   16     -0.79      0.00
   -5   28   16     -0.21      0.00
  -15    0   17     -0.40      0.00
  -13    0   17     -0.46      0.00
  -11    0   17      2.37      0.00
   -9    0   17      0.92      0.00
   -7    0   17     -1.29      0.00
   -5    0   17     -1.35      0.00
   -3    0   17      0.67      0.00
   -1    0   17     -2.16      0.00
    1    0   17     -0.74      0.00
    3    0   17      0.79      0.00
    5    0   17     -1.05      0.00
  -15    1   17     -0.46      0.00
  -14    1   17     -0.16      0.00
  -13    1   17     -0.77      0.00
  -12    1   17      1.31      0.00
  -11    1   17      0.65      0.00
  -10    1   17      0.34      0.00
   -9    1   17      0.22      0.00
   -8    1   17      0.03      0.00
   -7    1   17     -0.54      0.00
   -6    1   17     -0.46      0.00
   -5    1   17      0.32      0.00
   -4    1   17     -0.02      0.00
   -3    1   17      0.48      0.00
   -2    1   17     -0.53      0.00
   -1    1   17     -0.39      0.00
    0    1   17      0.19      0.00
    1    1   17      0.90      0.00
    2    1   17     -0.63      0.00
    3    1   17     -0.30      0.00
    4    1   17     -0.05      0.00
    5    1   17     -0.81      0.00
  -16    2   17     -1.16      0.00
  -15    2   17     -0.37      0.00
  -14    2   17     -1.01      0.00
  -13    2   17     -0.44      0.00
  -12    2   17      0.69      0.00
  -11    2   17      0.92      0.00
  -10    2   17      0.54      0.00
   -9    2   17      0.35      0.00
   -8    2   17     -1.19      0.00
   -7    2   17     -0.45      0.00
   -6    2   17     -0.04      0.00
   -5    2   17     -0.55      0.00
   -4    2   17      1.49      0.00
   -3    2   17     -0.15      0.00
   -2    2   17     -0.10      0.00
   -1    2   17     -0.29      0.00
    0    2   17      1.14      0.00
    1    2   17      0.01      0.00
    2    2   17      2.46      0.00
    3    2   17     -0.12      0.00
    4    2   17     -0.60      0.00
    5    2   17     -0.60      0.00
  -16    3   17     -0.72      0.00
  -15    3   17     -0.86      0.00
  -14    3   17     -1.23      0.00
  -13    3   17     -0.91      0.00
  -12    3   17      0.72      0.00
  -11    3   17     -0.70      0.00
  -10    3   17     -0.09      0.00
   -9    3   17      0.39      0.00
   -8    3   17      0.93      0.00
   -7    3   17      0.64      0.00
   -6    3   17      0.55      0.00
   -5    3   17      0.66      0.00
   -4    3   17     -0.64      0.00
   -3    3   17      0.15      0.00
   -2    3   17     -0.10      0.00
   -1    3   17      0.16      0.00
    0    3   17      0.21      0.00
    1    3   17     -0.47      0.00
    2    3   17     -1.50      0.00
    3    3   17      0.50      0.00
    4    3   17     -0.12      0.00
    5    3   17     -1.08      0.00
    6    3   17      0.00      0.00
  -16    4   17     -0.92      0.00
  -15    4   17      0.38      0.00
  -14    4   17     -1.37      0.00
  -13    4   17      0.43      0.00
  -12    4   17     -0.64      0.00
  -11    4   17     -0.76      0.00
  -10    4   17     -0.65      0.00
   -9    4   17     -1.09      0.00
   -8    4   17     -0.44      0.00
   -7    4   17      0.22      0.00
   -6    4   17      1.52      0.00
   -5    4   17      0.55      0.00
   -4    4   17      0.70      0.00
   -3    4   17      0.93      0.00
   -2    4   17     -0.82      0.00
   -1    4   17      0.92      0.00
    0    4   17     -1.04      0.00
    1    4   17     -0.56      0.00
    2    4   17     -0.35      0.00
    3    4   17     -1.14      0.00
    4    4   17     -1.70      0.00
    5    4   17     -0.04      0.00
    6    4   17      0.12      0.00
  -16    5   17     -1.20      0.00
  -15    5   17     -1.06      0.00
  -14    5   17      0.01      0.00
  -13    5   17      0.53      0.00
  -12    5   17      0.38      0.00
  -11    5   17     -0.67      0.00
  -10    5   17     -0.52      0.00
   -9    5   17      0.48      0.00
   -8    5   17     -1.40      0.00
   -7    5   17      0.54      0.00
   -6    5   17     -0.81      0.00
   -5    5   17     -1.30      0.00
   -4    5   17      0.04      0.00
   -3    5   17     -1.23      0.00
   -2    5   17      0.99      0.00
   -1    5   17     -1.37      0.00
    0    5   17     -0.99      0.00
    1    5   17     -1.29      0.00
    2    5   17     -1.55      0.00
    3    5   17     -0.47      0.00
    4    5   17     -0.70      0.00
    5    5   17     -0.36      0.00
    6    5   17      1.32      0.00
  -16    6   17      1.29      0.00
  -15    6   17      0.13      0.00
  -14    6   17      0.11      0.00
  -13    6   17      0.66      0.00
  -12    6   17     -0.82      0.00
  -11    6   17     -0.09      0.00
  -10    6   17     -0.56      0.00
   -9    6   17     -1.05      0.00
   -8    6   17      0.91      0.00
   -7    6   17     -0.26      0.00
   -6    6   17      0.72      0.00
   -5    6   17      0.33      0.00
   -4    6   17     -0.80      0.00
   -3    6   17     -0.27      0.00
   -2    6   17     -1.48      0.00
   -1    6   17      0.32      0.00
    0    6   17      0.08      0.00
    1    6   17     -1.18      0.00
    2    6   17     -0.79      0.00
    3    6   17     -1.52      0.00
    4    6   17      0.05      0.00
    5    6   17      0.87      0.00
    6    6   17     -0.67      0.00
  -16    7   17     -0.99      0.00
  -15    7   17      0.71      0.00
  -14    7   17      0.28      0.00
  -13    7   17      0.63      0.00
  -12    7   17     -0.56      0.00
  -11    7   17     -0.51      0.00
  -10    7   17     -0.30      0.00
   -9    7   17     -0.49      0.00
   -8    7   17     -1.28      0.00
   -7    7   17      0.72      0.00
   -6    7   17     -1.78      0.00
   -5    7   17      0.29      0.00
   -4    7   17      1.05      0.00
   -3    7   17     -0.32      0.00
   -2    7   17      0.35      0.00
   -1    7   17      1.07      0.00
    0    7   17     -0.19      0.00
    1    7   17     -0.01      0.00
    2    7   17     -1.06      0.00
    3    7   17      1.90      0.00
    4    7   17      0.42      0.00
    5    7   17      0.45      0.00
  -16    8   17      0.87      0.00
  -15    8   17     -0.88      0.00
  -14    8   17      0.25      0.00
  -13    8   17     -1.46      0.00
  -12    8   17      0.67      0.00
  -11    8   17      0.03      0.00
  -10    8   17      0.37      0.00
   -9    8   17      0.99      0.00
   -8    8   17      0.51      0.00
   -7    8   17      0.50      0.00
   -6    8   17      0.49      0.00
   -5    8   17      0.34      0.00
   -4    8   17     -0.29      0.00
   -3    8   17     -0.21      0.00
   -2    8   17      0.57      0.00
   -1    8   17     -0.04      0.00
    0    8   17      1.03      0.00
    1    8   17     -2.65      0.00
    2    8   17      0.44      0.00
    3    8   17     -0.42      0.00
    4    8   17      1.57      0.00
    5    8   17     -0.93      0.00
  -16    9   17      0.20      0.00
  -15    9   17     -0.13      0.00
  -14    9   17     -0.22      0.00
  -13    9   17      0.20      0.00
  -12    9   17     -0.65      0.00
  -11    9   17      0.07      0.00
  -10    9   17     -0.67      0.00
   -9    9   17     -0.73      0.00
   -8    9   17      1.61      0.00
   -7    9   17     -0.63      0.00
   -6    9   17      0.49      0.00
   -5    9   17      1.86      0.00
   -4    9   17      1.53      0.00
   -3    9   17      0.28      0.00
   -2    9   17      1.38      0.00
   -1    9   17      0.37      0.00
    0    9   17     -1.19      0.00
    1    9   17      0.16      0.00
    2    9   17      0.32      0.00
    3    9   17      0.15      0.00
    4    9   17     -1.26      0.00
    5    9   17     -1.08      0.00
  -15   10   17     -0.15      0.00
  -14   10   17     -0.28      0.00
  -13   10   17     -0.12      0.00
  -12   10   17      1.39      0.00
  -11   10   17     -0.58      0.00
  -10   10   17      0.30      0.00
   -9   10   17     -0.13      0.00
   -8   10   17     -0.77      0.00
   -7   10   17      0.60      0.00
   -6   10   17     -1.69      0.00
   -5   10   17     -0.20      0.00
   -4   10   17     -1.39      0.00
   -3   10   17      1.28      0.00
   -2   10   17     -0.28      0.00
   -1   10   17      0.02      0.00
    0   10   17     -0.58      0.00
    1   10   17      0.03      0.00
    2   10   17      0.67      0.00
    3   10   17     -0.74      0.00
    4   10   17     -0.14      0.00
  -15   11   17     -1.03      0.00
  -14   11   17      0.59      0.00
  -13   11   17      0.15      0.00
  -12   11   17     -0.64      0.00
  -11   11   17     -0.32      0.00
  -10   11   17     -0.28      0.00
   -9   11   17      0.62      0.00
   -8   11   17      1.81      0.00
   -7   11   17     -0.91      0.00
   -6   11   17      1.12      0.00
   -5   11   17     -0.72      0.00
   -4   11   17      0.21      0.00
   -3   11   17      0.17      0.00
   -2   11   17     -1.15      0.00
   -1   11   17     -0.02      0.00
    0   11   17      0.02      0.00
    1   11   17      0.60      0.00
    2   11   17     -0.98      0.00
    3   11   17     -0.10      0.00
    4   11   17     -0.47      0.00
  -15   12   17      1.23      0.00
  -14   12   17     -0.62      0.00
  -13   12   17      0.59      0.00
  -12   12   17     -0.42      0.00
  -11   12   17     -0.34      0.00
  -10   12   17     -0.12      0.00
   -9   12   17      0.05      0.00
   -8   12   17      0.01      0.00
   -7   12   17     -0.69      0.00
   -6   12   17     -1.17      0.00
   -5   12   17      0.40      0.00
   -4   12   17      0.51      0.00
   -3   12   17     -0.14      0.00
   -2   12   17      1.06      0.00
   -1   12   17     -1.67      0.00
    0   12   17      0.88      0.00
    1   12   17      0.71      0.00
    2   12   17     -0.20      0.00
    3   12   17     -0.26      0.00
    4   12   17      1.13      0.00
  -15   13   17      0.28      0.00
  -14   13   17      0.84      0.00
  -13   13   17      0.04      0.00
  -12   13   17     -0.08      0.00
  -11   13   17      0.69      0.00
  -10   13   17      0.24      0.00
   -9   13   17      0.96      0.00
   -8   13   17     -0.31      0.00
   -7   13   17     -0.79      0.00
   -6   13   17     -0.33      0.00
   -5   13   17     -1.16      0.00
   -4   13   17      0.67      0.00
   -3   13   17     -0.43      0.00
   -2   13   17     -2.13      0.00
   -1   13   17      0.80      0.00
    0   13   17     -1.78      0.00
    1   13   17     -0.98      0.00
    2   13   17      0.41      0.00
    3   13   17      1.15      0.00
  -15   14   17     -0.17      0.00
  -14   14   17     -0.04      0.00
  -13   14   17      0.00      0.00
  -12   14   17      0.05      0.00
  -11   14   17      0.39      0.00
  -10   14   17      0.28      0.00
   -9   14   17     -0.68      0.00
   -8   14   17     -1.25      0.00
   -7   14   17     -1.19      0.00
   -6   14   17      0.69      0.00
   -5   14   17      2.15      0.00
   -4   14   17     -0.76      0.00
   -3   14   17      1.18      0.00
   -2   14   17      0.13      0.00
   -1   14   17      0.17      0.00
    0   14   17     -0.27      0.00
    1   14   17      1.04      0.00
    2   14   17      0.03      0.00
    3   14   17     -0.02      0.00
  -14   15   17     -0.02      0.00
  -13   15   17      0.04      0.00
  -12   15   17      0.33      0.00
  -11   15   17      0.48      0.00
  -10   15   17      0.40      0.00
   -9   15   17      0.65      0.00
   -8   15   17     -0.82      0.00
   -7   15   17     -0.86      0.00
   -6   15   17     -0.68      0.00
   -5   15   17      0.51      0.00
   -4   15   17      1.24      0.00
   -3   15   17     -0.92      0.00
   -2   15   17      1.05      0.00
   -1   15   17     -2.27      0.00
    0   15   17      0.50      0.00
    1   15   17      1.15      0.00
    2   15   17      1.31      0.00
  -14   16   17      0.05      0.00
  -13   16   17      0.44      0.00
  -12   16   17      0.46      0.00
  -11   16   17      0.68      0.00
  -10   16   17      0.33      0.00
   -9   16   17      0.56      0.00
   -8   16   17      0.94      0.00
   -7   16   17      1.06      0.00
   -6   16   17      1.70      0.00
   -5   16   17     -0.76      0.00
   -4   16   17      0.77      0.00
   -3   16   17      0.94      0.00
   -2   16   17     -1.20      0.00
   -1   16   17     -0.65      0.00
    0   16   17     -1.25      0.00
    1   16   17     -0.55      0.00
    2   16   17     -0.27      0.00
  -13   17   17      0.03      0.00
  -12   17   17      0.88      0.00
  -11   17   17      0.20      0.00
  -10   17   17      1.30      0.00
   -9   17   17      1.02      0.00
   -8   17   17      0.13      0.00
   -7   17   17     -0.69      0.00
   -6   17   17      0.20      0.00
   -5   17   17      1.24      0.00
   -4   17   17     -0.31      0.00
   -3   17   17      0.52      0.00
   -2   17   17     -0.71      0.00
   -1   17   17     -0.72      0.00
    0   17   17      1.42      0.00
    1   17   17      0.26      0.00
    2   17   17     -2.04      0.00
  -13   18   17     -0.07      0.00
  -12   18   17      0.40      0.00
  -11   18   17     -0.38      0.00
  -10   18   17      0.61      0.00
   -9   18   17      1.20      0.00
   -8   18   17      1.03      0.00
   -7   18   17     -0.59      0.00
   -6   18   17     -1.59      0.00
   -5   18   17     -1.06      0.00
   -4   18   17      0.37      0.00
   -3   18   17     -0.95      0.00
   -2   18   17     -1.07      0.00
   -1   18   17     -0.07      0.00
    0   18   17      0.07      0.00
    1   18   17     -1.07      0.00
  -12   19   17     -1.12      0.00
  -11   19   17     -0.07      0.00
  -10   19   17     -0.66      0.00
   -9   19   17     -0.23      0.00
   -8   19   17     -1.09      0.00
   -7   19   17     -0.79      0.00
   -6   19   17      0.39      0.00
   -5   19   17     -1.12      0.00
   -4   19   17      0.02      0.00
   -3   19   17     -0.14      0.00
   -2   19   17      0.92      0.00
   -1   19   17      1.60      0.00
    0   19   17      0.33      0.00
    1   19   17     -1.09      0.00
  -12   20   17      0.08      0.00
  -11   20   17      0.36      0.00
  -10   20   17      0.45      0.00
   -9   20   17      0.35      0.00
   -8   20   17     -0.58      0.00
   -7   20   17     -0.21      0.00
   -6   20   17     -0.50      0.00
   -5   20   17     -0.31      0.00
   -4   20   17     -0.25      0.00
   -3   20   17      0.51      0.00
   -2   20   17      0.98      0.00
   -1   20   17      0.27      0.00
    0   20   17      0.67      0.00
  -12   21   17      0.19      0.00
  -11   21   17      0.30      0.00
  -10   21   17     -0.37      0.00
   -9   21   17      0.71      0.00
   -8   21   17      0.27      0.00
   -7   21   17      2.51      0.00
   -6   21   17      0.32      0.00
   -5   21   17     -0.11      0.00
   -4   21   17      0.13      0.00
   -3   21   17      0.55      0.00
   -2   21   17     -0.77      0.00
   -1   21   17     -0.02      0.00
    0   21   17     -1.09      0.00
  -11   22   17      0.17      0.00
  -10   22   17     -0.55      0.00
   -9   22   17     -0.98      0.00
   -8   22   17      0.45      0.00
   -7   22   17      0.53      0.00
   -6   22   17      0.30      0.00
   -5   22   17      0.00      0.00
   -4   22   17      0.95      0.00
   -3   22   17     -0.03      0.00
   -2   22   17     -0.81      0.00
   -1   22   17     -0.69      0.00
    0   22   17      1.01      0.00
  -11   23   17     -0.40      0.00
   -9   23   17     -0.71      0.00
   -8   23   17      0.34      0.00
   -7   23   17      0.91      0.00
   -6   23   17     -1.73      0.00
   -5   23   17      0.25      0.00
   -4   23   17      0.02      0.00
   -3   23   17     -1.27      0.00
   -2   23   17     -1.30      0.00
   -1   23   17      0.94      0.00
   -9   24   17     -0.49      0.00
   -8   24   17     -0.35      0.00
   -7   24   17     -0.62      0.00
   -6   24   17      0.38      0.00
   -5   24   17      0.60      0.00
   -4   24   17     -0.25      0.00
   -2   24   17      0.26      0.00
   -1   24   17      0.38      0.00
   -8   25   17      0.88      0.00
   -7   25   17     -1.20      0.00
   -6   25   17      0.27      0.00
   -5   25   17      0.55      0.00
  -14    0   18      1.39      0.00
  -12    0   18     -2.06      0.00
  -10    0   18     -0.19      0.00
   -8    0   18      1.37      0.00
   -6    0   18      0.95      0.00
   -4    0   18     -0.15      0.00
   -2    0   18      0.81      0.00
    0    0   18     -1.12      0.00
    2    0   18     -0.77      0.00
  -15    1   18      0.91      0.00
  -14    1   18      0.06      0.00
  -13    1   18     -0.99      0.00
  -12    1   18      1.02      0.00
  -11    1   18     -0.24      0.00
  -10    1   18     -0.04      0.00
   -9    1   18      0.37      0.00
   -8    1   18     -1.24      0.00
   -7    1   18     -0.06      0.00
   -6    1   18     -1.21      0.00
   -5    1   18     -0.54      0.00
   -4    1   18      0.24      0.00
   -3    1   18      0.23      0.00
   -2    1   18     -0.74      0.00
   -1    1   18     -0.13      0.00
    0    1   18     -0.11      0.00
    1    1   18     -0.83      0.00
    2    1   18      1.31      0.00
    3    1   18      0.96      0.00
    4    1   18      0.42      0.00
  -15    2   18      0.62      0.00
  -14    2   18      0.10      0.00
  -13    2   18      0.42      0.00
  -12    2   18     -0.75      0.00
  -11    2   18      1.42      0.00
  -10    2   18      0.41      0.00
   -9    2   18      0.28      0.00
   -8    2   18      0.65      0.00
   -7    2   18     -1.01      0.00
   -6    2   18      0.10      0.00
   -5    2   18     -0.99      0.00
   -4    2   18     -0.05      0.00
   -3    2   18     -0.77      0.00
   -2    2   18     -0.08      0.00
   -1    2   18     -0.64      0.00
    0    2   18      1.17      0.00
    1    2   18      0.18      0.00
    2    2   18      0.33      0.00
    3    2   18      1.01      0.00
    4    2   18      1.39      0.00
  -15    3   18      0.26      0.00
  -14    3   18     -0.01      0.00
  -13    3   18     -0.84      0.00
  -12    3   18      1.60      0.00
  -11    3   18      0.20      0.00
  -10    3   18      0.24      0.00
   -9    3   18      0.03      0.00
   -8    3   18     -0.39      0.00
   -7    3   18      0.13      0.00
   -6    3   18     -0.06      0.00
   -5    3   18      1.26      0.00
   -4    3   18      0.57      0.00
   -3    3   18      0.51      0.00
   -2    3   18     -0.08      0.00
   -1    3   18      0.72      0.00
    0    3   18      0.96      0.00
    1    3   18      2.32      0.00
    2    3   18      0.90      0.00
    3    3   18      0.25      0.00
    4    3   18      1.18      0.00
    5    3   18      0.00      0.00
  -15    4   18     -0.10      0.00
  -14    4   18     -0.73      0.00
  -13    4   18      0.51      0.00
  -12    4   18     -0.04      0.00
  -11    4   18      1.00      0.00
  -10    4   18      0.73      0.00
   -9    4   18      1.60      0.00
   -8    4   18      0.18      0.00
   -7    4   18     -0.49      0.00
   -6    4   18      0.25      0.00
   -5    4   18     -0.34      0.00
   -4    4   18      0.85      0.00
   -3    4   18      0.32      0.00
   -2    4   18      0.05      0.00
   -1    4   18      0.43      0.00
    0    4   18      0.37      0.00
    1    4   18     -0.12      0.00
    2    4   18      1.32      0.00
    3    4   18      0.25      0.00
    4    4   18      0.01      0.00
    5    4   18     -0.67      0.00
  -15    5   18     -0.06      0.00
  -14    5   18     -0.57      0.00
  -13    5   18      0.25      0.00
  -12    5   18      0.50      0.00
  -11    5   18      0.15      0.00
  -10    5   18      0.33      0.00
   -9    5   18      0.16      0.00
   -8    5   18      0.70      0.00
   -7    5   18      1.04      0.00
   -6    5   18      0.22      0.00
   -5    5   18      0.72      0.00
   -4    5   18      0.45      0.00
   -3    5   18     -0.37      0.00
   -2    5   18     -0.10      0.00
   -1    5   18     -0.79      0.00
    0    5   18     -0.11      0.00
    1    5   18      1.10      0.00
    2    5   18     -1.59      0.00
    3    5   18     -0.25      0.00
    4    5   18     -0.73      0.00
  -15    6   18     -0.50      0.00
  -14    6   18      0.15      0.00
  -13    6   18      0.48      0.00
  -12    6   18     -0.45      0.00
  -11    6   18      0.25      0.00
  -10    6   18      0.70      0.00
   -9    6   18     -0.29      0.00
   -8    6   18     -1.26      0.00
   -7    6   18     -0.91      0.00
   -6    6   18     -0.71      0.00
   -5    6   18     -0.33      0.00
   -4    6   18     -0.42      0.00
   -3    6   18      0.78      0.00
   -2    6   18     -2.03      0.00
   -1    6   18      0.11      0.00
    0    6   18      0.23      0.00
    1    6   18      0.65      0.00
    2    6   18     -0.13      0.00
    3    6   18     -0.28      0.00
    4    6   18     -0.40      0.00
  -14    7   18      0.65      0.00
  -13    7   18     -0.48      0.00
  -12    7   18      0.20      0.00
  -11    7   18      0.34      0.00
  -10    7   18     -0.07      0.00
   -9    7   18      1.50      0.00
   -8    7   18     -0.59      0.00
   -7    7   18      0.68      0.00
   -6    7   18     -0.41      0.00
   -5    7   18     -1.19      0.00
   -4    7   18     -0.06      0.00
   -3    7   18     -2.17      0.00
   -2    7   18      0.89      0.00
   -1    7   18     -0.79      0.00
    0    7   18      0.84      0.00
    1    7   18      0.55      0.00
    2    7   18     -0.18      0.00
    3    7   18      0.72      0.00
    4    7   18      1.33      0.00
  -14    8   18      0.47      0.00
  -13    8   18     -0.44      0.00
  -12    8   18     -0.39      0.00
  -11    8   18      0.41      0.00
  -10    8   18      0.88      0.00
   -9    8   18     -1.84      0.00
   -8    8   18      0.59      0.00
   -7    8   18     -0.15      0.00
   -6    8   18      0.48      0.00
   -5    8   18      1.32      0.00
   -4    8   18     -0.05      0.00
   -3    8   18      0.10      0.00
   -2    8   18     -0.04      0.00
   -1    8   18      0.63      0.00
    0    8   18      1.29      0.00
    1    8   18     -0.91      0.00
    2    8   18      1.82      0.00
    3    8   18      0.45      0.00
  -14    9   18     -0.55      0.00
  -13    9   18     -0.24      0.00
  -12    9   18      0.69      0.00
  -11    9   18      0.73      0.00
  -10    9   18      0.83      0.00
   -9    9   18     -0.36      0.00
   -8    9   18     -1.04      0.00
   -7    9   18      0.63      0.00
   -6    9   18     -0.74      0.00
   -5    9   18     -0.07      0.00
   -4    9   18     -0.85      0.00
   -3    9   18     -0.10      0.00
   -2    9   18      0.26      0.00
   -1    9   18      0.15      0.00
    0    9   18     -1.44      0.00
    1    9   18      0.78      0.00
    2    9   18      0.31      0.00
    3    9   18      1.34      0.00
  -14   10   18      0.10      0.00
  -13   10   18     -0.67      0.00
  -12   10   18      0.99      0.00
  -11   10   18      0.34      0.00
  -10   10   18     -0.25      0.00
   -9   10   18      0.05      0.00
   -8   10   18      0.18      0.00
   -7   10   18      0.62      0.00
   -6   10   18      1.56      0.00
   -5   10   18      0.48      0.00
   -4   10   18     -1.14      0.00
   -3   10   18      0.24      0.00
   -2   10   18     -0.20      0.00
   -1   10   18     -0.73      0.00
    0   10   18      0.56      0.00
    1   10   18     -0.54      0.00
    2   10   18      0.48      0.00
    3   10   18     -0.96      0.00
  -14   11   18     -0.87      0.00
  -13   11   18      0.93      0.00
  -12   11   18     -0.44      0.00
  -11   11   18      0.57      0.00
  -10   11   18     -0.34      0.00
   -9   11   18     -1.56      0.00
   -8   11   18      1.65      0.00
   -7   11   18     -0.54      0.00
   -6   11   18      0.10      0.00
   -5   11   18     -0.69      0.00
   -4   11   18      0.88      0.00
   -3   11   18     -0.42      0.00
   -2   11   18      0.65      0.00
   -1   11   18     -0.41      0.00
    0   11   18      0.10      0.00
    1   11   18      0.86      0.00
    2   11   18     -0.21      0.00
  -14   12   18      0.29      0.00
  -13   12   18     -0.45      0.00
  -12   12   18      0.34      0.00
  -11   12   18     -0.59      0.00
  -10   12   18      0.00      0.00
   -9   12   18      1.66      0.00
   -8   12   18      0.23      0.00
   -7   12   18      1.78      0.00
   -6   12   18     -0.50      0.00
   -5   12   18     -0.88      0.00
   -4   12   18     -1.62      0.00
   -3   12   18      0.93      0.00
   -2   12   18     -0.88      0.00
   -1   12   18      0.77      0.00
    0   12   18      0.09      0.00
    1   12   18     -1.54      0.00
    2   12   18     -0.96      0.00
  -14   13   18     -0.06      0.00
  -13   13   18     -0.02      0.00
  -12   13   18     -1.00      0.00
  -11   13   18     -0.06      0.00
  -10   13   18     -0.70      0.00
   -9   13   18     -0.13      0.00
   -8   13   18      1.15      0.00
   -7   13   18     -0.47      0.00
   -6   13   18      0.55      0.00
   -5   13   18      0.01      0.00
   -4   13   18      0.34      0.00
   -3   13   18      0.25      0.00
   -2   13   18     -0.71      0.00
   -1   13   18      2.20      0.00
    0   13   18     -0.36      0.00
    1   13   18     -0.02      0.00
  -14   14   18     -0.68      0.00
  -13   14   18     -0.15      0.00
  -12   14   18     -0.43      0.00
  -11   14   18     -0.79      0.00
  -10   14   18     -0.31      0.00
   -9   14   18     -0.32      0.00
   -8   14   18     -0.64      0.00
   -7   14   18     -0.51      0.00
   -6   14   18     -2.37      0.00
   -5   14   18     -0.85      0.00
   -4   14   18      0.22      0.00
   -3   14   18     -1.23      0.00
   -2   14   18      2.25      0.00
   -1   14   18     -0.77      0.00
    0   14   18     -0.30      0.00
    1   14   18     -0.23      0.00
  -13   15   18     -0.66      0.00
  -12   15   18     -0.50      0.00
  -11   15   18      0.00      0.00
  -10   15   18     -1.85      0.00
   -9   15   18     -1.12      0.00
   -8   15   18     -0.46      0.00
   -7   15   18      0.39      0.00
   -6   15   18      0.63      0.00
   -5   15   18     -1.75      0.00
   -4   15   18     -0.72      0.00
   -3   15   18      0.53      0.00
   -2   15   18      0.31      0.00
   -1   15   18      1.07      0.00
    0   15   18     -0.29      0.00
    1   15   18     -0.12      0.00
  -13   16   18     -0.28      0.00
  -12   16   18      0.06      0.00
  -11   16   18     -0.48      0.00
  -10   16   18      0.06      0.00
   -9   16   18     -1.05      0.00
   -8   16   18     -0.11      0.00
   -7   16   18     -0.38      0.00
   -6   16   18     -0.08      0.00
   -5   16   18      2.13      0.00
   -4   16   18     -0.46      0.00
   -3   16   18      1.16      0.00
   -2   16   18     -0.11      0.00
   -1   16   18     -0.48      0.00
    0   16   18     -0.32      0.00
  -13   17   18      0.14      0.00
  -12   17   18      0.70      0.00
  -11   17   18      0.18      0.00
  -10   17   18     -0.46      0.00
   -9   17   18      0.62      0.00
   -8   17   18      1.82      0.00
   -7   17   18      1.24      0.00
   -6   17   18     -0.29      0.00
   -5   17   18     -0.32      0.00
   -4   17   18      1.42      0.00
   -3   17   18     -0.21      0.00
   -2   17   18      0.16      0.00
   -1   17   18     -2.79      0.00
    0   17   18     -0.54      0.00
  -12   18   18      0.06      0.00
  -11   18   18      0.30      0.00
  -10   18   18      0.00      0.00
   -9   18   18     -0.67      0.00
   -8   18   18      0.16      0.00
   -7   18   18     -0.34      0.00
   -6   18   18      2.30      0.00
   -5   18   18      0.10      0.00
   -4   18   18      0.63      0.00
   -3   18   18     -0.21      0.00
   -2   18   18     -1.23      0.00
   -1   18   18     -0.33      0.00
    0   18   18      0.19      0.00
  -12   19   18     -0.11      0.00
  -11   19   18      0.16      0.00
  -10   19   18      0.20      0.00
   -9   19   18      1.12      0.00
   -8   19   18     -0.92      0.00
   -7   19   18     -1.75      0.00
   -6   19   18     -0.64      0.00
   -5   19   18      1.06      0.00
   -4   19   18     -0.62      0.00
   -3   19   18      0.11      0.00
   -2   19   18     -0.35      0.00
   -1   19   18     -0.77      0.00
  -11   20   18      0.09      0.00
  -10   20   18      0.00      0.00
   -9   20   18     -0.01      0.00
   -8   20   18     -0.68      0.00
   -7   20   18      0.09      0.00
   -6   20   18      0.16      0.00
   -5   20   18     -0.73      0.00
   -4   20   18     -0.17      0.00
   -3   20   18     -0.11      0.00
   -2   20   18      0.11      0.00
   -1   20   18     -0.45      0.00
  -11   21   18      0.78      0.00
  -10   21   18      0.54      0.00
   -9   21   18      0.16      0.00
   -8   21   18     -1.64      0.00
   -7   21   18     -0.29      0.00
   -6   21   18      0.72      0.00
   -5   21   18     -0.42      0.00
   -2   21   18     -0.33      0.00
   -1   21   18     -0.47      0.00
   -9   22   18      0.68      0.00
   -8   22   18     -0.02      0.00
   -7   22   18      1.13      0.00
   -6   22   18     -0.81      0.00
   -2   22   18     -0.30      0.00
   -2   23   18     -1.32      0.00
  -13    0   19     -0.01      0.00
  -11    0   19     -0.71      0.00
   -9    0   19     -0.32      0.00
   -7    0   19      0.87      0.00
   -5    0   19     -0.56      0.00
   -3    0   19      1.19      0.00
   -1    0   19      0.13      0.00
    1    0   19     -1.59      0.00
    3    0   19     -2.04      0.00
  -14    1   19      0.44      0.00
  -13    1   19     -0.64      0.00
  -12    1   19     -0.74      0.00
  -11    1   19     -0.09      0.00
  -10    1   19     -0.43      0.00
   -9    1   19      0.53      0.00
   -8    1   19      0.69      0.00
   -7    1   19      0.29      0.00
   -6    1   19      0.50      0.00
   -5    1   19     -1.07      0.00
   -4    1   19     -0.05      0.00
   -3    1   19     -0.17      0.00
   -2    1   19     -0.08      0.00
   -1    1   19     -1.10      0.00
    0    1   19     -0.84      0.00
    1    1   19     -1.18      0.00
    2    1   19     -1.31      0.00
    3    1   19     -0.11      0.00
  -14    2   19     -0.48      0.00
  -13    2   19     -0.01      0.00
  -12    2   19     -1.03      0.00
  -11    2   19     -0.97      0.00
  -10    2   19     -0.57      0.00
   -9    2   19     -1.44      0.00
   -8    2   19      0.61      0.00
   -7    2   19     -0.60      0.00
   -6    2   19      0.02      0.00
   -5    2   19     -0.79      0.00
   -4    2   19      0.31      0.00
   -3    2   19     -0.29      0.00
   -2    2   19      0.71      0.00
   -1    2   19     -0.63      0.00
    0    2   19     -1.19      0.00
    1    2   19      0.66      0.00
    2    2   19      0.37      0.00
    3    2   19     -1.44      0.00
  -14    3   19      0.31      0.00
  -13    3   19     -1.11      0.00
  -12    3   19      0.16      0.00
  -11    3   19     -0.17      0.00
  -10    3   19     -0.84      0.00
   -9    3   19      0.82      0.00
   -8    3   19     -0.96      0.00
   -7    3   19      0.43      0.00
   -6    3   19     -1.22      0.00
   -5    3   19     -0.70      0.00
   -4    3   19     -0.24      0.00
   -3    3   19      0.20      0.00
   -2    3   19      0.12      0.00
   -1    3   19      0.82      0.00
    0    3   19      0.06      0.00
    1    3   19     -0.36      0.00
    2    3   19      1.45      0.00
    3    3   19      0.35      0.00
  -14    4   19     -1.07      0.00
  -13    4   19      1.51      0.00
  -12    4   19     -0.95      0.00
  -11    4   19     -0.45      0.00
  -10    4   19     -0.45      0.00
   -9    4   19     -0.27      0.00
   -8    4   19      1.29      0.00
   -7    4   19      0.37      0.00
   -6    4   19      0.73      0.00
   -5    4   19      0.02      0.00
   -4    4   19      0.40      0.00
   -3    4   19      0.69      0.00
   -2    4   19      0.99      0.00
   -1    4   19      0.04      0.00
    0    4   19      0.27      0.00
    1    4   19      0.58      0.00
    2    4   19     -0.59      0.00
    3    4   19      0.27      0.00
  -14    5   19      0.22      0.00
  -13    5   19     -0.76      0.00
  -12    5   19      0.29      0.00
  -11    5   19     -0.54      0.00
  -10    5   19     -0.34      0.00
   -9    5   19      0.05      0.00
   -8    5   19     -1.28      0.00
   -7    5   19      0.04      0.00
   -6    5   19     -0.41      0.00
   -5    5   19      0.53      0.00
   -4    5   19      0.67      0.00
   -3    5   19      0.54      0.00
   -2    5   19      0.48      0.00
   -1    5   19     -0.20      0.00
    0    5   19     -1.33      0.00
    1    5   19      0.73      0.00
    2    5   19     -0.78      0.00
    3    5   19     -0.83      0.00
  -13    6   19      0.97      0.00
  -12    6   19     -0.71      0.00
  -11    6   19     -0.51      0.00
  -10    6   19     -0.48      0.00
   -9    6   19      1.39      0.00
   -8    6   19      0.81      0.00
   -7    6   19     -0.63      0.00
   -6    6   19     -0.41      0.00
   -5    6   19     -0.15      0.00
   -4    6   19      0.06      0.00
   -3    6   19      0.39      0.00
   -2    6   19     -0.50      0.00
   -1    6   19     -0.77      0.00
    0    6   19     -0.30      0.00
    1    6   19     -1.48      0.00
    2    6   19     -1.12      0.00
  -13    7   19     -0.36      0.00
  -12    7   19     -0.47      0.00
  -11    7   19     -0.79      0.00
  -10    7   19      0.22      0.00
   -9    7   19     -0.47      0.00
   -8    7   19     -0.30      0.00
   -7    7   19      0.72      0.00
   -6    7   19     -0.21      0.00
   -5    7   19      0.43      0.00
   -4    7   19      1.22      0.00
   -3    7   19     -1.24      0.00
   -2    7   19      0.65      0.00
   -1    7   19     -0.06      0.00
    0    7   19      0.30      0.00
    1    7   19     -0.44      0.00
    2    7   19     -2.13      0.00
  -13    8   19     -0.26      0.00
  -12    8   19     -0.97      0.00
  -11    8   19     -1.06      0.00
  -10    8   19      1.29      0.00
   -9    8   19      0.59      0.00
   -8    8   19     -0.44      0.00
   -7    8   19     -0.72      0.00
   -6    8   19     -1.00      0.00
   -5    8   19      0.89      0.00
   -4    8   19     -0.59      0.00
   -3    8   19      1.59      0.00
   -2    8   19     -0.74      0.00
   -1    8   19      0.62      0.00
    0    8   19      0.30      0.00
    1    8   19     -0.86      0.00
  -13    9   19     -0.77      0.00
  -12    9   19     -0.19      0.00
  -11    9   19      0.21      0.00
  -10    9   19     -0.72      0.00
   -9    9   19      0.41      0.00
   -8    9   19      0.01      0.00
   -7    9   19      0.01      0.00
   -6    9   19      0.42      0.00
   -5    9   19      0.66      0.00
   -4    9   19      0.51      0.00
   -3    9   19     -0.83      0.00
   -2    9   19      2.16      0.00
   -1    9   19      0.22      0.00
    0    9   19     -0.18      0.00
    1    9   19     -0.06      0.00
  -13   10   19     -0.07      0.00
  -12   10   19     -0.12      0.00
  -11   10   19     -0.20      0.00
  -10   10   19      0.86      0.00
   -9   10   19     -2.51      0.00
   -8   10   19     -0.42      0.00
   -7   10   19     -1.21      0.00
   -6   10   19      0.17      0.00
   -5   10   19      0.25      0.00
   -4   10   19      0.07      0.00
   -3   10   19      0.66      0.00
   -2   10   19     -0.32      0.00
   -1   10   19     -0.88      0.00
    0   10   19      1.59      0.00
    1   10   19     -0.02      0.00
  -13   11   19      0.67      0.00
  -12   11   19      0.21      0.00
  -11   11   19      0.59      0.00
  -10   11   19     -0.24      0.00
   -9   11   19     -0.21      0.00
   -8   11   19     -0.27      0.00
   -7   11   19      0.09      0.00
   -6   11   19      0.30      0.00
   -5   11   19     -0.11      0.00
   -4   11   19     -1.22      0.00
   -3   11   19      0.08      0.00
   -2   11   19     -0.33      0.00
   -1   11   19      0.06      0.00
    0   11   19     -0.54      0.00
  -12   12   19      0.67      0.00
  -11   12   19      0.53      0.00
  -10   12   19     -0.35      0.00
   -9   12   19      1.12      0.00
   -8   12   19     -0.15      0.00
   -7   12   19      0.59      0.00
   -6   12   19      1.48      0.00
   -5   12   19      1.09      0.00
   -4   12   19     -0.19      0.00
   -3   12   19      0.86      0.00
   -2   12   19     -2.10      0.00
   -1   12   19      0.35      0.00
    0   12   19      1.34      0.00
  -12   13   19     -0.35      0.00
  -11   13   19      1.00      0.00
  -10   13   19      1.43      0.00
   -9   13   19      0.01      0.00
   -8   13   19      1.13      0.00
   -7   13   19     -0.05      0.00
   -6   13   19      0.34      0.00
   -5   13   19     -0.99      0.00
   -4   13   19      1.55      0.00
   -3   13   19     -1.10      0.00
   -2   13   19      0.36      0.00
   -1   13   19     -0.20      0.00
    0   13   19     -1.03      0.00
  -12   14   19      0.49      0.00
  -11   14   19      0.21      0.00
  -10   14   19      0.45      0.00
   -9   14   19      1.29      0.00
   -8   14   19     -1.17      0.00
   -7   14   19      0.75      0.00
   -6   14   19      0.69      0.00
   -5   14   19      0.17      0.00
   -4   14   19     -1.41      0.00
   -3   14   19     -0.28      0.00
   -2   14   19      0.15      0.00
   -1   14   19      1.33      0.00
    0   14   19      0.40      0.00
  -11   15   19      0.38      0.00
  -10   15   19      0.39      0.00
   -9   15   19     -0.78      0.00
   -8   15   19     -0.72      0.00
   -7   15   19     -1.07      0.00
   -6   15   19     -0.57      0.00
   -5   15   19      0.39      0.00
   -4   15   19     -0.17      0.00
   -3   15   19      0.56      0.00
   -2   15   19      0.03      0.00
   -1   15   19      2.19      0.00
  -11   16   19     -0.81      0.00
  -10   16   19      0.02      0.00
   -9   16   19     -0.48      0.00
   -8   16   19     -0.13      0.00
   -7   16   19      0.61      0.00
   -6   16   19     -1.65      0.00
   -5   16   19     -1.85      0.00
   -4   16   19     -0.05      0.00
   -3   16   19     -0.57      0.00
   -2   16   19      2.92      0.00
   -1   16   19      0.67      0.00
  -11   17   19      0.34      0.00
  -10   17   19     -0.71      0.00
   -9   17   19     -0.50      0.00
   -8   17   19      0.27      0.00
   -7   17   19     -0.16      0.00
   -6   17   19      1.33      0.00
   -5   17   19     -0.41      0.00
   -4   17   19     -0.34      0.00
   -3   17   19      0.16      0.00
   -2   17   19      0.79      0.00
   -1   17   19      0.67      0.00
  -11   18   19     -0.59      0.00
  -10   18   19      0.30      0.00
   -9   18   19      0.57      0.00
   -8   18   19      1.25      0.00
   -7   18   19     -0.51      0.00
   -6   18   19     -1.12      0.00
   -5   18   19      1.08      0.00
   -3   18   19      0.67      0.00
   -2   18   19      0.24      0.00
  -10   19   19     -0.77      0.00
   -9   19   19      0.35      0.00
   -3   19   19     -0.71      0.00
   -2   19   19      1.15      0.00
  -12    0   20      1.18      0.00
  -10    0   20      0.86      0.00
   -8    0   20     -0.57      0.00
   -6    0   20      1.86      0.00
   -4    0   20     -0.17      0.00
   -2    0   20     -0.19      0.00
    0    0   20      0.14      0.00
    2    0   20      0.46      0.00
  -13    1   20      0.43      0.00
  -12    1   20      0.14      0.00
  -11    1   20      0.49      0.00
  -10    1   20     -0.44      0.00
   -9    1   20     -0.95      0.00
   -8    1   20      0.50      0.00
   -7    1   20     -0.33      0.00
   -6    1   20      0.19      0.00
   -5    1   20      0.20      0.00
   -4    1   20      0.57      0.00
   -3    1   20     -0.22      0.00
   -2    1   20     -0.27      0.00
   -1    1   20      1.07      0.00
    0    1   20     -1.56      0.00
    1    1   20     -0.39      0.00
    2    1   20     -0.83      0.00
  -13    2   20      0.23      0.00
  -12    2   20      0.58      0.00
  -11    2   20      0.44      0.00
  -10    2   20      0.56      0.00
   -9    2   20     -0.23      0.00
   -8    2   20     -0.46      0.00
   -7    2   20      0.38      0.00
   -6    2   20      0.15      0.00
   -5    2   20     -0.91      0.00
   -4    2   20     -0.69      0.00
   -3    2   20     -1.15      0.00
   -2    2   20     -0.80      0.00
   -1    2   20     -0.42      0.00
    0    2   20     -0.21      0.00
    1    2   20     -1.20      0.00
    2    2   20      1.27      0.00
  -13    3   20      0.25      0.00
  -12    3   20      0.06      0.00
  -11    3   20      0.50      0.00
  -10    3   20     -0.89      0.00
   -9    3   20      1.06      0.00
   -8    3   20      0.22      0.00
   -7    3   20      0.76      0.00
   -6    3   20      0.20      0.00
   -5    3   20     -0.46      0.00
   -4    3   20     -0.07      0.00
   -3    3   20     -0.70      0.00
   -2    3   20     -0.64      0.00
   -1    3   20      0.05      0.00
    0    3   20      0.19      0.00
    1    3   20      0.38      0.00
  -13    4   20      0.23      0.00
  -12    4   20      0.60      0.00
  -11    4   20     -0.02      0.00
  -10    4   20      0.20      0.00
   -9    4   20     -1.18      0.00
   -8    4   20      0.67      0.00
   -7    4   20     -0.43      0.00
   -6    4   20      0.15      0.00
   -5    4   20     -0.45      0.00
   -4    4   20     -0.31      0.00
   -3    4   20     -0.70      0.00
   -2    4   20      1.52      0.00
   -1    4   20      0.36      0.00
    0    4   20     -0.23      0.00
    1    4   20      2.13      0.00
  -13    5   20      0.32      0.00
  -12    5   20      0.51      0.00
  -11    5   20      0.43      0.00
  -10    5   20     -0.66      0.00
   -9    5   20      1.34      0.00
   -8    5   20     -0.31      0.00
   -7    5   20      0.74      0.00
   -6    5   20     -0.92      0.00
   -5    5   20     -0.90      0.00
   -4    5   20      0.22      0.00
   -3    5   20     -0.01      0.00
   -2    5   20     -0.11      0.00
   -1    5   20      0.64      0.00
    0    5   20      0.22      0.00
  -13    6   20      1.02      0.00
  -12    6   20      0.40      0.00
  -11    6   20     -0.13      0.00
  -10    6   20     -0.85      0.00
   -9    6   20     -0.91      0.00
   -8    6   20      0.08      0.00
   -7    6   20      0.32      0.00
   -6    6   20     -0.22      0.00
   -5    6   20     -0.20      0.00
   -4    6   20     -0.82      0.00
   -3    6   20     -0.07      0.00
   -2    6   20     -0.09      0.00
   -1    6   20     -1.15      0.00
    0    6   20      0.56      0.00
  -13    7   20      0.03      0.00
  -12    7   20      0.45      0.00
  -11    7   20     -0.35      0.00
  -10    7   20      0.76      0.00
   -9    7   20      1.04      0.00
   -8    7   20     -1.27      0.00
   -7    7   20     -0.01      0.00
   -6    7   20     -0.93      0.00
   -5    7   20     -0.29      0.00
   -4    7   20      0.44      0.00
   -3    7   20     -0.93      0.00
   -2    7   20     -0.81      0.00
   -1    7   20     -0.62      0.00
  -12    8   20      0.47      0.00
  -11    8   20     -0.01      0.00
  -10    8   20      0.43      0.00
   -9    8   20      0.87      0.00
   -8    8   20      1.90      0.00
   -7    8   20      0.35      0.00
   -6    8   20     -0.51      0.00
   -5    8   20      0.76      0.00
   -4    8   20     -0.94      0.00
   -3    8   20      0.14      0.00
   -2    8   20      0.19      0.00
   -1    8   20     -0.84      0.00
  -12    9   20     -0.55      0.00
  -11    9   20     -0.16      0.00
  -10    9   20      1.56      0.00
   -9    9   20     -0.54      0.00
   -8    9   20     -0.45      0.00
   -7    9   20     -0.09      0.00
   -6    9   20      0.18      0.00
   -5    9   20      0.17      0.00
   -4    9   20      1.33      0.00
   -3    9   20     -1.20      0.00
   -2    9   20      0.44      0.00
   -1    9   20     -0.90      0.00
  -12   10   20     -0.16      0.00
  -11   10   20     -0.79      0.00
  -10   10   20      0.57      0.00
   -9   10   20     -0.05      0.00
   -8   10   20     -0.05      0.00
   -7   10   20     -0.96      0.00
   -6   10   20     -0.81      0.00
   -5   10   20      0.81      0.00
   -4   10   20     -1.36      0.00
   -3   10   20      2.09      0.00
   -2   10   20     -0.12      0.00
   -1   10   20     -0.62      0.00
  -12   11   20     -0.78      0.00
  -11   11   20      0.61      0.00
  -10   11   20     -1.64      0.00
   -9   11   20     -0.47      0.00
   -8   11   20      0.28      0.00
   -7   11   20     -0.49      0.00
   -6   11   20     -0.06      0.00
   -5   11   20      0.52      0.00
   -4   11   20      0.35      0.00
   -3   11   20     -0.49      0.00
   -2   11   20      0.04      0.00
   -1   11   20      0.40      0.00
  -11   12   20     -1.12      0.00
  -10   12   20     -0.08      0.00
   -9   12   20     -0.48      0.00
   -8   12   20      0.19      0.00
   -7   12   20     -0.64      0.00
   -6   12   20      0.36      0.00
   -5   12   20     -0.89      0.00
   -4   12   20     -0.04      0.00
   -3   12   20      0.98      0.00
   -2   12   20     -0.99      0.00
  -11   13   20      0.19      0.00
  -10   13   20     -0.27      0.00
   -9   13   20      0.59      0.00
   -8   13   20      0.88      0.00
   -7   13   20      0.03      0.00
   -6   13   20      0.38      0.00
   -5   13   20      0.50      0.00
   -4   13   20      0.02      0.00
   -3   13   20     -1.43      0.00
   -2   13   20     -1.21      0.00
  -11   14   20      0.14      0.00
  -10   14   20     -0.31      0.00
   -9   14   20      1.50      0.00
   -8   14   20     -0.34      0.00
   -7   14   20      0.22      0.00
   -6   14   20      0.15      0.00
   -5   14   20      1.02      0.00
   -4   14   20     -0.04      0.00
   -3   14   20      0.94      0.00
   -2   14   20     -3.09      0.00
  -11   15   20      0.46      0.00
  -10   15   20      0.83      0.00
   -9   15   20     -0.61      0.00
   -8   15   20      0.17      0.00
   -7   15   20      0.27      0.00
   -6   15   20      0.25      0.00
   -3   15   20     -1.70      0.00
  -10   16   20     -0.10      0.00
   -9   16   20      0.20      0.00
   -8   16   20     -0.42      0.00
   -3   16   20     -0.69      0.00
   -9   17   20     -0.25      0.00
   -3   17   20      0.64      0.00
  -11    0   21      0.07      0.00
   -9    0   21     -0.17      0.00
   -7    0   21     -0.58      0.00
   -5    0   21      0.30      0.00
   -3    0   21      2.08      0.00
   -1    0   21      1.91      0.00
  -12    1   21     -0.19      0.00
  -11    1   21      0.32      0.00
  -10    1   21      0.77      0.00
   -9    1   21     -0.97      0.00
   -8    1   21     -0.32      0.00
   -7    1   21      0.26      0.00
   -6    1   21      0.61      0.00
   -5    1   21      0.02      0.00
   -4    1   21      0.62      0.00
   -3    1   21      0.31      0.00
   -2    1   21     -0.38      0.00
   -1    1   21      0.24      0.00
    0    1   21      0.82      0.00
  -12    2   21     -0.09      0.00
  -11    2   21     -0.19      0.00
  -10    2   21     -0.39      0.00
   -9    2   21      0.16      0.00
   -8    2   21     -0.77      0.00
   -7    2   21     -0.41      0.00
   -6    2   21      1.14      0.00
   -5    2   21      0.41      0.00
   -4    2   21      1.19      0.00
   -3    2   21      0.32      0.00
   -2    2   21      0.00      0.00
   -1    2   21     -0.28      0.00
    0    2   21     -1.09      0.00
  -12    3   21     -0.11      0.00
  -11    3   21      0.74      0.00
  -10    3   21     -0.45      0.00
   -9    3   21     -0.82      0.00
   -8    3   21      0.33      0.00
   -7    3   21      0.31      0.00
   -6    3   21      0.32      0.00
   -5    3   21      0.20      0.00
   -4    3   21      0.44      0.00
   -3    3   21     -0.42      0.00
   -2    3   21     -0.31      0.00
   -1    3   21      0.79      0.00
  -12    4   21      0.00      0.00
  -11    4   21      0.23      0.00
  -10    4   21      1.03      0.00
   -9    4   21      0.36      0.00
   -8    4   21      0.42      0.00
   -7    4   21      0.60      0.00
   -6    4   21      1.05      0.00
   -5    4   21      0.33      0.00
   -4    4   21      0.65      0.00
   -3    4   21     -0.85      0.00
   -2    4   21      0.50      0.00
   -1    4   21      0.34      0.00
  -12    5   21     -0.37      0.00
  -11    5   21      0.30      0.00
   -9    5   21      0.78      0.00
   -8    5   21     -0.50      0.00
   -7    5   21      1.12      0.00
   -6    5   21      0.40      0.00
   -5    5   21     -0.28      0.00
   -4    5   21      0.26      0.00
   -3    5   21      0.95      0.00
   -2    5   21      0.36      0.00
  -12    6   21      0.26      0.00
  -11    6   21     -0.67      0.00
   -9    6   21     -1.01      0.00
   -8    6   21      0.07      0.00
   -7    6   21     -0.53      0.00
   -6    6   21     -0.54      0.00
   -5    6   21      0.42      0.00
   -4    6   21      0.08      0.00
   -3    6   21     -0.60      0.00
  -12    7   21      0.42      0.00
  -11    7   21     -0.95      0.00
   -9    7   21      0.66      0.00
   -8    7   21      0.09      0.00
   -7    7   21      1.10      0.00
   -6    7   21     -0.53      0.00
   -5    7   21     -1.23      0.00
   -4    7   21      0.38      0.00
   -3    7   21     -0.02      0.00
  -11    8   21     -0.42      0.00
   -9    8   21     -0.59      0.00
   -8    8   21      0.24      0.00
   -7    8   21      0.54      0.00
   -6    8   21     -0.35      0.00
   -5    8   21      0.82      0.00
   -4    8   21     -1.08      0.00
   -3    8   21     -0.48      0.00
  -11    9   21     -0.58      0.00
   -9    9   21      1.16      0.00
   -8    9   21     -0.19      0.00
   -7    9   21      0.07      0.00
   -6    9   21     -0.55      0.00
   -5    9   21     -0.70      0.00
   -4    9   21      0.42      0.00
   -3    9   21      0.22      0.00
  -11   10   21      0.54      0.00
   -9   10   21     -1.11      0.00
   -8   10   21      0.91      0.00
   -7   10   21      0.29      0.00
   -6   10   21     -0.60      0.00
   -5   10   21      0.93      0.00
   -4   10   21     -1.31      0.00
   -3   10   21      0.58      0.00
  -11   11   21      0.04      0.00
   -9   11   21     -1.01      0.00
   -8   11   21     -0.67      0.00
   -7   11   21     -0.64      0.00
   -6   11   21      0.50      0.00
   -4   11   21      1.18      0.00
   -3   11   21      0.45      0.00
   -9   12   21     -0.04      0.00
   -8   12   21      0.24      0.00
   -7   12   21     -0.07      0.00
   -6   12   21     -0.07      0.00
   -4   12   21     -0.90      0.00
   -9   13   21     -0.23      0.00
   -8   13   21      0.36      0.00
   -7   13   21      0.37      0.00
   -8   14   21     -0.60      0.00
   -6    0   22     -0.55      0.00
   -7    1   22     -1.26      0.00
   -6    1   22     -0.20      0.00
   -5    1   22     -1.07      0.00
   -7    2   22     -0.46      0.00
   -6    2   22     -0.75      0.00
   -5    2   22     -0.83      0.00
   -7    3   22     -0.33      0.00
   -6    3   22      0.22      0.00
   -5    3   22     -0.05      0.00
   -7    4   22     -0.37      0.00
   -6    4   22      0.43      0.00
   -5    4   22     -0.44      0.00
   -7    5   22      0.38      0.00
   -6    5   22      0.23      0.00
   -5    5   22      0.31      0.00
   -8    6   22     -0.22      0.00
   -7    6   22     -0.05      0.00
   -5    6   22     -0.07      0.00
   -4    6   22      1.17      0.00
   -8    7   22     -1.27      0.00
   -7    7   22      0.54      0.00
   -5    7   22      0.20      0.00
   -4    7   22     -0.24      0.00
   -8    8   22      0.62      0.00
   -5    8   22      1.10      0.00
   -5    9   22     -0.78      0.00
   16    0    0      0.87      0.00
   18    0    0      0.37      0.00
    1    1    0    104.26      0.00
   17    1    0     -1.97      0.00
   18    1    0      0.72      0.00
    0    2    0     48.01      0.00
    1    2    0   -112.54      0.00
   17    2    0      0.37      0.00
   18    2    0     -0.02      0.00
   17    3    0      1.51      0.00
   18    3    0      1.48      0.00
   18    4    0      0.76      0.00
   18    5    0     -0.83      0.00
   18    6    0     -0.92      0.00
   17   12    0     -0.15      0.00
   17   13    0      0.12      0.00
   17   14    0     -1.21      0.00
   16   16    0      0.21      0.00
   16   17    0     -0.43      0.00
   16   18    0     -0.04      0.00
   15   19    0     -0.86      0.00
   16   19    0     -0.73      0.00
   15   23    0      0.34      0.00
   14   25    0     -1.10      0.00
   13   27    0      0.46      0.00
   12   28    0      0.50      0.00
   13   28    0      0.97      0.00
   12   29    0     -1.42      0.00
   12   30    0      0.64      0.00
   11   31    0     -0.79      0.00
   11   32    0      0.75      0.00
   10   33    0     -0.24      0.00
    9   35    0     -0.07      0.00
    6   36    0      0.39      0.00
    8   36    0      0.25      0.00
    5   37    0     -0.41      0.00
    6   37    0     -0.82      0.00
    7   37    0      0.84      0.00
    3   38    0      1.09      0.00
    4   38    0      0.42      0.00
    5   38    0     -0.30      0.00
    6   38    0     -0.25      0.00
    2   39    0     -0.14      0.00
    3   39    0     -0.75      0.00
    4   39    0      0.07      0.00
    0   40    0      0.95      0.00
    1   40    0      0.27      0.00
    2   40    0     -0.21      0.00
  -17    0    1      0.02      0.00
   -1    0    1   -157.68      0.00
   17    0    1     -2.17      0.00
  -18    1    1      1.17      0.00
  -17    1    1     -0.45      0.00
   -1    1    1    155.83      0.00
    0    1    1     -6.98      0.00
   16    1    1      1.50      0.00
   17    1    1     -1.49      0.00
  -18    2    1     -0.49      0.00
   17    2    1     -1.00      0.00
  -18    3    1      0.17      0.00
   17    3    1     -0.79      0.00
  -18    4    1      0.47      0.00
   17    4    1      3.11      0.00
  -18    8    1     -0.91      0.00
  -18    9    1      1.38      0.00
   17   11    1      0.08      0.00
   17   12    1      1.09      0.00
  -17   13    1     -0.20      0.00
  -17   14    1     -1.05      0.00
  -17   15    1     -1.60      0.00
   16   15    1     -0.44      0.00
  -17   16    1      0.62      0.00
   16   16    1      1.51      0.00
  -16   17    1      1.47      0.00
   16   17    1     -0.59      0.00
  -16   18    1     -0.55      0.00
   15   18    1     -0.87      0.00
   16   18    1      0.85      0.00
  -16   19    1      1.38      0.00
   15   19    1     -0.89      0.00
  -16   20    1     -0.34      0.00
   15   22    1      0.32      0.00
   14   24    1     -0.14      0.00
   14   25    1     -0.11      0.00
  -14   26    1     -0.39      0.00
   13   26    1     -1.28      0.00
  -13   27    1     -2.03      0.00
   13   27    1      0.99      0.00
  -13   28    1     -1.08      0.00
   12   28    1      0.29      0.00
  -13   29    1     -0.90      0.00
   12   29    1      0.80      0.00
   11   30    1     -1.12      0.00
  -12   31    1      1.03      0.00
   11   31    1     -0.41      0.00
  -11   32    1      0.29      0.00
   10   32    1     -0.81      0.00
   10   33    1      0.33      0.00
  -10   34    1     -0.76      0.00
    9   34    1     -0.50      0.00
   -9   35    1      0.25      0.00
   -7   36    1      0.18      0.00
   -6   36    1     -0.23      0.00
    6   36    1      0.87      0.00
   -7   37    1      0.07      0.00
   -6   37    1      0.60      0.00
   -5   37    1     -0.78      0.00
    5   37    1      1.09      0.00
    6   37    1     -1.66      0.00
    7   37    1      0.23      0.00
   -6   38    1     -0.15      0.00
   -5   38    1     -0.14      0.00
   -4   38    1      0.18      0.00
   -3   38    1      0.51      0.00
    3   38    1     -0.83      0.00
    4   38    1      0.25      0.00
    5   38    1     -0.91      0.00
   -5   39    1     -0.92      0.00
   -4   39    1      0.11      0.00
   -3   39    1     -1.49      0.00
   -2   39    1     -0.14      0.00
    2   39    1      1.18      0.00
    3   39    1      0.07      0.00
    4   39    1      0.01      0.00
   -2   40    1      0.17      0.00
   -1   40    1      0.32      0.00
    0   40    1      0.15      0.00
    1   40    1      0.96      0.00
    2   40    1     -1.07      0.00
  -18    0    2     -0.62      0.00
   16    0    2      3.01      0.00
  -18    1    2      1.21      0.00
   16    1    2     -0.35      0.00
   17    1    2     -0.38      0.00
  -18    2    2      0.22      0.00
   16    2    2     -1.24      0.00
   17    2    2     -3.37      0.00
  -18    3    2      1.48      0.00
   16    3    2     -2.44      0.00
   17    3    2     -0.33      0.00
   17    4    2      0.25      0.00
   17    5    2      0.25      0.00
   17    8    2     -0.89      0.00
  -18    9    2      0.50      0.00
   17    9    2      0.42      0.00
  -18   10    2      0.15      0.00
   17   10    2     -2.11      0.00
  -18   11    2      1.42      0.00
  -17   13    2      0.47      0.00
   16   13    2      0.34      0.00
  -17   14    2     -0.40      0.00
   16   14    2     -1.43      0.00
  -17   15    2      1.04      0.00
   16   15    2      0.18      0.00
  -17   16    2     -1.51      0.00
   16   16    2     -0.62      0.00
  -17   17    2     -0.74      0.00
  -16   17    2     -0.93      0.00
   15   17    2      1.65      0.00
  -16   18    2      0.36      0.00
   15   18    2     -0.04      0.00
  -16   19    2      0.87      0.00
  -16   20    2      1.27      0.00
  -16   21    2      2.09      0.00
   14   23    2      0.14      0.00
   13   25    2     -0.21      0.00
  -14   26    2      0.81      0.00
   13   26    2     -0.05      0.00
  -14   27    2      1.36      0.00
   12   27    2     -1.30      0.00
   12   28    2      0.27      0.00
  -13   29    2     -0.81      0.00
   11   29    2      0.79      0.00
   12   29    2     -0.92      0.00
   11   30    2     -0.52      0.00
  -12   31    2     -0.03      0.00
   10   31    2     -0.13      0.00
   11   31    2     -1.26      0.00
   10   32    2     -0.92      0.00
  -11   33    2      0.71      0.00
    9   33    2     -0.07      0.00
  -10   34    2     -0.25      0.00
    9   34    2      0.77      0.00
    6   35    2      0.20      0.00
    8   35    2     -0.23      0.00
   -8   36    2     -0.41      0.00
   -7   36    2     -0.29      0.00
   -6   36    2      0.90      0.00
    5   36    2      0.47      0.00
    6   36    2     -0.10      0.00
    7   36    2      0.61      0.00
   -7   37    2     -0.27      0.00
   -6   37    2      1.27      0.00
   -5   37    2     -0.02      0.00
    4   37    2     -0.30      0.00
    5   37    2      1.43      0.00
    6   37    2      0.17      0.00
   -6   38    2      0.59      0.00
   -5   38    2      0.56      0.00
   -4   38    2      1.02      0.00
   -3   38    2      0.31      0.00
    3   38    2     -0.63      0.00
    4   38    2      1.50      0.00
    5   38    2     -0.19      0.00
   -5   39    2     -0.30      0.00
   -4   39    2      1.41      0.00
   -3   39    2     -0.33      0.00
   -2   39    2     -1.28      0.00
   -1   39    2     -0.48      0.00
    2   39    2     -0.38      0.00
    3   39    2     -0.01      0.00
   -2   40    2     -1.28      0.00
   -1   40    2     -0.06      0.00
    0   40    2     -0.60      0.00
    1   40    2      1.22      0.00
  -19    0    3      0.09      0.00
   15    0    3      1.29      0.00
   17    0    3      1.45      0.00
  -19    1    3     -0.29      0.00
  -18    1    3     -1.89      0.00
   15    1    3      1.29      0.00
   16    1    3      3.23      0.00
   17    1    3     -0.73      0.00
  -19    2    3      0.25      0.00
   15    2    3      1.93      0.00
   16    2    3      2.19      0.00
   17    2    3     -0.42      0.00
   16    3    3     -1.24      0.00
   17    3    3     -0.71      0.00
   16    4    3     -0.51      0.00
   17    4    3     -1.18      0.00
   17    5    3      0.87      0.00
  -18   10    3      0.08      0.00
  -18   11    3     -0.10      0.00
  -18   12    3     -1.28      0.00
   16   12    3      2.31      0.00
  -18   13    3      0.63      0.00
   16   13    3     -0.83      0.00
  -17   14    3      1.17      0.00
   16   14    3     -0.39      0.00
  -17   15    3     -0.22      0.00
  -17   16    3      0.65      0.00
   15   16    3     -0.25      0.00
  -17   17    3      0.32      0.00
   15   17    3     -1.19      0.00
  -17   18    3     -1.75      0.00
  -16   18    3     -1.66      0.00
   15   18    3      0.33      0.00
  -16   19    3     -0.89      0.00
   15   19    3      0.74      0.00
  -16   20    3     -0.88      0.00
  -16   21    3     -0.03      0.00
  -15   21    3     -1.65      0.00
  -16   22    3      0.43      0.00
   14   22    3     -0.14      0.00
   13   24    3     -0.67      0.00
  -15   25    3     -0.78      0.00
   13   25    3     -1.09      0.00
   12   26    3      0.40      0.00
   12   27    3     -1.04      0.00
   11   28    3      0.38      0.00
   12   28    3     -0.52      0.00
  -13   29    3      0.73      0.00
   11   29    3      0.81      0.00
   10   30    3      2.00      0.00
   11   30    3     -0.73      0.00
  -12   31    3      0.53      0.00
   10   31    3     -0.04      0.00
    9   32    3      0.19      0.00
  -11   33    3      0.54      0.00
    9   33    3     -0.59      0.00
    8   34    3     -0.35      0.00
   -8   35    3      0.42      0.00
    6   35    3     -0.39      0.00
   -8   36    3     -0.29      0.00
   -7   36    3     -2.24      0.00
   -6   36    3      0.70      0.00
    5   36    3     -1.29      0.00
    6   36    3      0.02      0.00
    7   36    3     -0.58      0.00
   -7   37    3     -0.39      0.00
   -6   37    3     -1.17      0.00
   -5   37    3     -1.58      0.00
    4   37    3     -1.10      0.00
    5   37    3      0.07      0.00
    6   37    3      0.41      0.00
   -6   38    3      0.93      0.00
   -5   38    3     -0.07      0.00
   -4   38    3     -0.28      0.00
   -3   38    3      1.13      0.00
    3   38    3     -0.60      0.00
    4   38    3      0.43      0.00
   -5   39    3     -0.68      0.00
   -4   39    3      0.97      0.00
   -3   39    3      0.99      0.00
   -2   39    3     -0.68      0.00
   -1   39    3      1.53      0.00
    2   39    3     -0.12      0.00
    3   39    3      0.03      0.00
   -2   40    3     -0.53      0.00
   -1   40    3     -0.07      0.00
    0   40    3     -0.63      0.00
  -18    0    4     -0.37      0.00
   14    0    4     -1.26      0.00
   16    0    4      0.15      0.00
  -19    1    4      0.52      0.00
   14    1    4      1.14      0.00
   15    1    4     -2.43      0.00
   16    1    4      1.82      0.00
  -19    2    4     -0.54      0.00
   15    2    4      0.83      0.00
   16    2    4     -0.10      0.00
  -19    3    4     -0.06      0.00
   15    3    4     -0.23      0.00
   16    3    4      0.79      0.00
   16    4    4     -0.01      0.00
  -19    5    4     -0.75      0.00
   16    5    4     -1.96      0.00
  -19    6    4      0.29      0.00
   16    6    4     -0.23      0.00
   16    9    4      1.03      0.00
  -18   10    4      1.09      0.00
  -18   11    4     -0.19      0.00
   16   11    4      0.13      0.00
  -18   12    4      0.55      0.00
  -18   13    4      0.27      0.00
  -18   14    4     -1.12      0.00
   15   14    4     -1.08      0.00
  -17   15    4      0.04      0.00
   15   15    4     -0.57      0.00
  -17   16    4      0.44      0.00
   15   16    4      0.40      0.00
  -17   17    4     -0.01      0.00
   15   17    4     -0.73      0.00
  -17   18    4      1.17      0.00
  -16   18    4      1.63      0.00
  -17   19    4     -0.32      0.00
  -16   19    4      0.82      0.00
  -16   20    4      0.79      0.00
   14   20    4      0.95      0.00
  -16   21    4      0.99      0.00
   14   21    4     -0.26      0.00
  -16   22    4     -0.46      0.00
   13   22    4      0.56      0.00
   13   23    4      0.76      0.00
   13   24    4     -0.68      0.00
   12   25    4      0.83      0.00
   12   26    4     -0.18      0.00
  -14   27    4     -0.44      0.00
   11   27    4      1.01      0.00
  -14   28    4      0.47      0.00
   11   28    4     -0.30      0.00
   10   29    4     -0.26      0.00
   11   29    4      0.69      0.00
  -13   30    4     -1.50      0.00
   10   30    4      0.11      0.00
  -12   31    4     -0.92      0.00
    9   31    4      0.67      0.00
   10   31    4     -0.55      0.00
    9   32    4     -0.20      0.00
  -11   33    4     -0.27      0.00
    8   33    4      0.65      0.00
    8   34    4      0.01      0.00
   -9   35    4     -0.66      0.00
   -8   35    4      0.95      0.00
    5   35    4      0.60      0.00
    7   35    4     -0.15      0.00
   -8   36    4      0.59      0.00
   -7   36    4     -0.20      0.00
   -6   36    4     -0.16      0.00
    4   36    4      0.39      0.00
    5   36    4     -0.40      0.00
    6   36    4      0.50      0.00
   -7   37    4      0.27      0.00
   -6   37    4      0.34      0.00
   -5   37    4      0.87      0.00
   -4   37    4     -1.69      0.00
    3   37    4      0.91      0.00
    4   37    4     -1.18      0.00
    5   37    4      0.26      0.00
   -6   38    4      0.70      0.00
   -5   38    4      0.12      0.00
   -4   38    4      0.53      0.00
   -3   38    4     -0.82      0.00
   -2   38    4      0.39      0.00
    2   38    4      0.34      0.00
    3   38    4     -0.48      0.00
    4   38    4      1.15      0.00
   -4   39    4      0.17      0.00
   -3   39    4      2.00      0.00
   -2   39    4     -0.44      0.00
   -1   39    4     -1.26      0.00
    1   39    4     -0.27      0.00
    2   39    4      0.87      0.00
  -19    0    5      0.73      0.00
   13    0    5     -1.81      0.00
   15    0    5     -0.94      0.00
  -19    1    5      0.08      0.00
   14    1    5      0.39      0.00
   15    1    5     -0.23      0.00
   16    1    5      0.12      0.00
   14    2    5      1.18      0.00
   15    2    5      0.37      0.00
   16    2    5      0.83      0.00
   15    3    5     -0.26      0.00
   16    3    5      0.98      0.00
   15    4    5      0.82      0.00
   16    4    5      0.01      0.00
  -19    5    5      0.96      0.00
   16    5    5     -0.33      0.00
  -19    6    5      1.16      0.00
   16    6    5     -0.15      0.00
  -19    7    5     -1.11      0.00
  -19    8    5      0.47      0.00
  -18   10    5     -0.27      0.00
  -18   11    5     -0.59      0.00
  -18   12    5      1.15      0.00
  -18   13    5      0.51      0.00
   15   13    5      0.57      0.00
  -18   14    5      1.04      0.00
   15   14    5     -0.47      0.00
  -18   15    5     -0.15      0.00
  -17   15    5      0.24      0.00
  -17   16    5     -0.96      0.00
  -17   17    5     -0.19      0.00
  -17   18    5     -1.16      0.00
   14   18    5     -1.30      0.00
  -17   19    5     -0.54      0.00
   14   19    5     -0.38      0.00
   13   21    5      0.82      0.00
   13   22    5      0.05      0.00
  -16   23    5     -0.06      0.00
   12   23    5      0.18      0.00
   12   24    5      0.92      0.00
   11   25    5      0.23      0.00
   12   25    5      0.82      0.00
   11   26    5     -0.29      0.00
  -14   27    5      0.12      0.00
   10   27    5      0.58      0.00
   11   27    5     -0.55      0.00
  -14   28    5      0.12      0.00
   10   28    5     -0.65      0.00
   11   28    5     -0.02      0.00
  -13   29    5      1.58      0.00
   10   29    5     -0.64      0.00
  -13   30    5      0.84      0.00
    9   30    5     -0.42      0.00
   10   30    5      0.36      0.00
  -12   31    5      0.04      0.00
    9   31    5     -0.71      0.00
    8   32    5     -0.55      0.00
  -11   33    5      0.31      0.00
    8   33    5      0.36      0.00
   -9   34    5     -0.81      0.00
    7   34    5      0.00      0.00
   -9   35    5     -0.67      0.00
   -8   35    5      0.73      0.00
   -7   35    5      1.56      0.00
    5   35    5      0.41      0.00
   -8   36    5     -0.42      0.00
   -7   36    5     -0.43      0.00
   -6   36    5      0.71      0.00
    4   36    5     -0.08      0.00
    5   36    5     -0.24      0.00
   -7   37    5     -1.13      0.00
   -6   37    5     -1.94      0.00
   -5   37    5     -0.07      0.00
   -4   37    5     -0.68      0.00
    3   37    5     -0.72      0.00
    4   37    5     -0.71      0.00
   -6   38    5     -0.21      0.00
   -5   38    5     -0.94      0.00
   -4   38    5     -0.67      0.00
   -3   38    5     -1.23      0.00
   -2   38    5     -0.52      0.00
   -1   38    5     -0.65      0.00
    3   38    5     -1.13      0.00
   -4   39    5     -1.28      0.00
   -3   39    5     -0.34      0.00
   -2   39    5      0.99      0.00
   -1   39    5     -0.19      0.00
    0   39    5      0.52      0.00
    1   39    5     -0.83      0.00
   14    0    6     -1.00      0.00
   13    1    6     -1.02      0.00
   14    1    6      0.07      0.00
   15    1    6     -0.58      0.00
   14    2    6      0.32      0.00
   15    2    6     -1.18      0.00
   14    3    6     -0.63      0.00
   15    3    6     -0.89      0.00
   15    4    6      0.10      0.00
  -19    5    6      0.64      0.00
   15    5    6     -0.37      0.00
  -19    6    6     -0.99      0.00
   15    6    6      0.18      0.00
  -19    7    6      0.88      0.00
  -19    8    6      0.77      0.00
  -19    9    6     -0.62      0.00
  -18   10    6     -1.31      0.00
   15   10    6     -0.47      0.00
  -18   11    6     -0.41      0.00
   15   11    6     -0.14      0.00
  -18   12    6     -0.19      0.00
  -18   13    6     -0.01      0.00
  -18   14    6      0.70      0.00
   14   14    6     -1.26      0.00
  -18   15    6     -0.08      0.00
   14   16    6      0.61      0.00
   14   17    6      0.48      0.00
   13   19    6     -1.98      0.00
  -17   20    6     -1.22      0.00
   13   20    6      0.18      0.00
  -16   22    6      1.06      0.00
   12   22    6     -0.65      0.00
  -16   23    6      0.62      0.00
   12   23    6     -1.42      0.00
  -15   24    6      1.19      0.00
   11   24    6     -0.28      0.00
   12   24    6      0.92      0.00
   11   25    6      0.35      0.00
  -15   26    6      1.04      0.00
   10   26    6      0.87      0.00
   11   26    6      1.29      0.00
   10   27    6      0.22      0.00
  -14   28    6     -1.50      0.00
    9   28    6      1.98      0.00
   10   28    6     -0.43      0.00
  -13   29    6     -0.24      0.00
    9   29    6      0.23      0.00
  -13   30    6      0.15      0.00
    8   30    6      1.10      0.00
    9   30    6      0.96      0.00
  -12   31    6      0.62      0.00
    8   31    6      0.67      0.00
    7   32    6      0.73      0.00
    8   32    6      0.02      0.00
  -11   33    6     -0.85      0.00
   -9   33    6     -0.48      0.00
    7   33    6     -0.47      0.00
  -10   34    6      0.39      0.00
   -9   34    6      0.28      0.00
   -8   34    6      0.09      0.00
    6   34    6     -0.03      0.00
   -9   35    6     -0.27      0.00
   -8   35    6     -0.02      0.00
   -7   35    6      1.14      0.00
    4   35    6     -0.03      0.00
   -8   36    6      0.68      0.00
   -7   36    6      0.51      0.00
   -6   36    6      0.58      0.00
   -5   36    6     -0.51      0.00
    3   36    6      0.06      0.00
    4   36    6     -0.07      0.00
   -7   37    6      1.64      0.00
   -6   37    6     -0.50      0.00
   -5   37    6      1.38      0.00
   -4   37    6      0.60      0.00
   -3   37    6      0.22      0.00
   -2   37    6      0.35      0.00
    3   37    6      0.11      0.00
   -5   38    6     -0.18      0.00
   -4   38    6      0.99      0.00
   -3   38    6     -0.37      0.00
   -2   38    6      0.89      0.00
   -1   38    6      0.31      0.00
    1   38    6     -0.65      0.00
    2   38    6     -0.33      0.00
   -2   39    6     -0.10      0.00
   13    0    7     -0.01      0.00
   15    0    7      1.94      0.00
   13    1    7     -0.69      0.00
   14    1    7      1.10      0.00
   15    1    7      0.28      0.00
   13    2    7      0.98      0.00
   14    2    7      1.64      0.00
   15    2    7      0.69      0.00
   14    3    7      1.06      0.00
   15    3    7     -0.24      0.00
  -19    4    7      0.39      0.00
   14    4    7     -0.12      0.00
   15    4    7     -0.50      0.00
  -19    5    7     -0.42      0.00
   14    5    7     -0.51      0.00
   15    5    7     -0.65      0.00
  -19    6    7      0.20      0.00
   15    6    7     -0.07      0.00
  -19    7    7      0.82      0.00
  -19    8    7     -0.47      0.00
  -19    9    7      1.35      0.00
   14   13    7     -0.08      0.00
   14   14    7      0.87      0.00
  -18   15    7      0.04      0.00
   13   16    7     -0.31      0.00
   13   17    7      0.99      0.00
   13   18    7     -0.20      0.00
  -17   19    7      0.66      0.00
  -17   20    7     -1.02      0.00
   12   20    7     -0.84      0.00
   12   21    7      1.20      0.00
  -16   22    7     -0.29      0.00
   11   22    7      0.35      0.00
   12   22    7      0.10      0.00
  -16   23    7      0.03      0.00
   11   23    7     -0.92      0.00
  -15   24    7     -0.61      0.00
   10   24    7     -1.03      0.00
   11   24    7     -2.30      0.00
  -15   25    7      0.04      0.00
   10   25    7     -0.86      0.00
   11   25    7      0.52      0.00
  -15   26    7      0.94      0.00
    9   26    7      0.43      0.00
   10   26    7      0.09      0.00
    9   27    7     -0.84      0.00
   10   27    7      1.72      0.00
  -14   28    7     -0.09      0.00
    9   28    7      0.43      0.00
  -13   29    7      0.37      0.00
    8   29    7      0.37      0.00
    9   29    7     -0.15      0.00
  -13   30    7      0.63      0.00
    8   30    7     -0.74      0.00
  -12   31    7     -0.62      0.00
    7   31    7     -0.39      0.00
    8   31    7      0.50      0.00
    7   32    7      0.18      0.00
  -11   33    7     -0.13      0.00
  -10   33    7      0.18      0.00
   -9   33    7      0.19      0.00
    6   33    7      0.12      0.00
  -10   34    7     -0.78      0.00
   -9   34    7     -0.56      0.00
   -8   34    7     -1.22      0.00
   -9   35    7     -0.10      0.00
   -8   35    7     -0.68      0.00
   -7   35    7     -0.73      0.00
   -6   35    7     -0.14      0.00
    4   35    7      0.23      0.00
    5   35    7     -0.45      0.00
   -8   36    7     -0.82      0.00
   -7   36    7      1.15      0.00
   -6   36    7      0.07      0.00
   -5   36    7     -0.05      0.00
   -4   36    7     -1.56      0.00
    3   36    7      0.27      0.00
   -6   37    7     -0.17      0.00
   -5   37    7      0.04      0.00
   -4   37    7      1.39      0.00
   -3   37    7     -1.10      0.00
   -2   37    7      0.05      0.00
   -1   37    7      0.70      0.00
    1   37    7      0.51      0.00
    2   37    7     -0.36      0.00
   -4   38    7      0.36      0.00
   -3   38    7      0.07      0.00
   -2   38    7     -0.56      0.00
   -1   38    7      0.12      0.00
    0   38    7      0.30      0.00
   14    0    8     -3.47      0.00
   13    1    8     -2.36      0.00
   14    1    8      0.62      0.00
   13    2    8     -1.05      0.00
   14    2    8     -0.66      0.00
   13    3    8      1.03      0.00
   14    3    8      1.23      0.00
   13    4    8      1.10      0.00
   14    4    8      1.24      0.00
   14    5    8      0.57      0.00
   14    6    8      0.07      0.00
  -19    9    8      0.14      0.00
   14    9    8      0.26      0.00
   14   10    8      0.24      0.00
  -18   14    8     -1.33      0.00
   13   14    8     -0.73      0.00
  -18   15    8     -0.72      0.00
   13   15    8      0.47      0.00
  -18   16    8     -0.13      0.00
   12   16    8     -0.31      0.00
   13   16    8     -0.21      0.00
   12   17    8     -0.54      0.00
  -17   18    8      0.79      0.00
   12   18    8      0.30      0.00
  -17   19    8      0.27      0.00
   11   19    8     -1.43      0.00
   12   19    8     -1.08      0.00
  -17   20    8     -0.88      0.00
    8   20    8      0.60      0.00
    9   20    8     -1.89      0.00
   11   20    8     -0.63      0.00
   12   20    8     -1.24      0.00
  -16   21    8     -0.10      0.00
    8   21    8     -0.45      0.00
    9   21    8      2.70      0.00
   11   21    8      0.34      0.00
  -16   22    8      0.95      0.00
   11   22    8      0.68      0.00
  -16   23    8     -0.12      0.00
  -15   23    8     -0.01      0.00
   10   23    8      0.85      0.00
   11   23    8      0.13      0.00
  -15   24    8     -0.43      0.00
   10   24    8     -0.90      0.00
  -15   25    8     -0.97      0.00
    9   25    8     -0.33      0.00
   10   25    8     -2.12      0.00
    9   26    8     -1.47      0.00
    8   27    8      0.03      0.00
    9   27    8     -0.54      0.00
  -14   28    8      0.36      0.00
    8   28    8     -0.88      0.00
    9   28    8      1.26      0.00
  -13   29    8      0.55      0.00
    7   29    8     -1.67      0.00
    8   29    8      0.82      0.00
    7   30    8      1.21      0.00
  -12   31    8     -0.33      0.00
    6   31    8      0.18      0.00
    7   31    8     -0.57      0.00
  -11   32    8      0.83      0.00
  -10   32    8      0.45      0.00
    6   32    8      0.36      0.00
  -10   33    8      0.32      0.00
   -9   33    8      0.19      0.00
   -8   33    8      0.86      0.00
    5   33    8     -0.02      0.00
  -10   34    8      0.06      0.00
   -9   34    8      1.05      0.00
   -8   34    8     -0.09      0.00
   -7   34    8     -0.98      0.00
    5   34    8      0.39      0.00
   -9   35    8      0.34      0.00
   -8   35    8     -0.22      0.00
   -7   35    8      0.18      0.00
   -6   35    8     -0.25      0.00
   -5   35    8     -0.30      0.00
    4   35    8      0.46      0.00
   -7   36    8     -0.51      0.00
   -6   36    8      0.03      0.00
   -5   36    8     -0.12      0.00
   -4   36    8      0.34      0.00
   -3   36    8      0.63      0.00
   -2   36    8     -0.75      0.00
   -1   36    8      0.21      0.00
    2   36    8     -0.04      0.00
   -6   37    8      0.00      0.00
   -5   37    8     -0.96      0.00
   -4   37    8      0.98      0.00
   -3   37    8      0.73      0.00
   -2   37    8     -1.12      0.00
   -1   37    8     -0.16      0.00
    1   37    8      0.71      0.00
   13    0    9      1.89      0.00
   13    1    9     -2.82      0.00
   13    2    9      1.11      0.00
   13    3    9     -1.91      0.00
   13    4    9      0.23      0.00
   13    5    9      0.29      0.00
   13    6    9     -0.74      0.00
  -19    7    9     -0.14      0.00
  -19    8    9      0.56      0.00
  -19    9    9      0.58      0.00
   13   11    9      0.13      0.00
   13   12    9      0.66      0.00
  -18   13    9     -0.18      0.00
  -18   14    9     -0.36      0.00
  -18   15    9      0.56      0.00
   12   15    9      0.44      0.00
   12   16    9      0.50      0.00
  -17   17    9     -0.43      0.00
   12   17    9      0.12      0.00
  -17   18    9     -0.20      0.00
   11   18    9      0.67      0.00
  -17   19    9     -0.38      0.00
   11   19    9      1.24      0.00
  -16   20    9      0.73      0.00
    8   20    9     -1.53      0.00
   10   20    9     -1.56      0.00
   11   20    9     -0.07      0.00
  -16   21    9     -1.08      0.00
    8   21    9     -2.44      0.00
    9   21    9     -0.93      0.00
   10   21    9     -0.20      0.00
   11   21    9     -0.70      0.00
  -16   22    9      0.58      0.00
    8   22    9      0.82      0.00
    9   22    9     -1.75      0.00
   10   22    9      1.98      0.00
  -15   23    9      1.58      0.00
    9   23    9      3.36      0.00
   10   23    9      0.05      0.00
  -15   24    9      0.02      0.00
    9   24    9      1.02      0.00
   10   24    9      1.03      0.00
  -15   25    9     -0.22      0.00
    8   25    9      0.40      0.00
    9   25    9      0.10      0.00
    8   26    9      0.28      0.00
    9   26    9     -0.69      0.00
  -14   27    9      0.17      0.00
    7   27    9      1.05      0.00
    8   27    9     -1.16      0.00
  -13   28    9     -0.42      0.00
    7   28    9     -1.11      0.00
    8   28    9     -0.66      0.00
  -13   29    9      1.24      0.00
    7   29    9     -0.07      0.00
    6   30    9     -0.73      0.00
    7   30    9      0.45      0.00
  -12   31    9     -1.11      0.00
  -11   31    9     -0.51      0.00
  -10   31    9     -0.88      0.00
    5   31    9      0.00      0.00
    6   31    9      1.42      0.00
  -11   32    9     -0.61      0.00
  -10   32    9     -1.19      0.00
   -9   32    9     -0.91      0.00
    5   32    9      0.39      0.00
  -10   33    9      0.26      0.00
   -9   33    9      0.09      0.00
   -8   33    9     -0.78      0.00
    4   33    9      0.14      0.00
   -9   34    9      0.73      0.00
   -8   34    9      1.14      0.00
   -7   34    9     -0.18      0.00
   -6   34    9     -0.08      0.00
   -8   35    9     -0.01      0.00
   -7   35    9      0.51      0.00
   -6   35    9      0.88      0.00
   -5   35    9     -0.50      0.00
   -4   35    9     -0.85      0.00
   -3   35    9      0.28      0.00
   -2   35    9      0.64      0.00
   -1   35    9      0.27      0.00
    2   35    9     -0.25      0.00
   -6   36    9      0.42      0.00
   -5   36    9     -0.66      0.00
   -4   36    9     -0.72      0.00
   -3   36    9      1.10      0.00
   -2   36    9     -0.26      0.00
   -1   36    9     -0.46      0.00
    1   36    9     -0.09      0.00
   -4   37    9     -0.28      0.00
   -3   37    9      0.37      0.00
   -2   37    9      0.26      0.00
   12    0   10      1.27      0.00
   13    1   10      0.95      0.00
   13    2   10      0.62      0.00
  -19    3   10     -0.19      0.00
   13    3   10     -0.07      0.00
  -19    4   10      0.02      0.00
   13    4   10      2.11      0.00
  -19    5   10     -0.16      0.00
   13    5   10     -0.62      0.00
  -19    6   10     -1.01      0.00
   13    6   10      1.12      0.00
  -19    7   10     -1.36      0.00
   13    7   10      0.06      0.00
  -19    8   10     -0.75      0.00
  -19    9   10     -0.18      0.00
   12   11   10      0.37      0.00
  -18   12   10     -0.66      0.00
   12   12   10     -1.38      0.00
  -18   13   10     -0.88      0.00
   12   13   10     -0.13      0.00
  -18   14   10      0.69      0.00
   12   14   10     -0.20      0.00
  -18   15   10     -1.20      0.00
   11   15   10     -0.44      0.00
  -17   16   10      0.44      0.00
   11   16   10     -0.33      0.00
  -17   17   10      0.07      0.00
   11   17   10     -0.32      0.00
  -17   18   10      0.22      0.00
   10   18   10     -1.01      0.00
   11   18   10      0.32      0.00
  -17   19   10      0.04      0.00
  -16   19   10      1.77      0.00
   10   19   10     -0.36      0.00
  -16   20   10      0.09      0.00
   10   20   10      0.44      0.00
  -16   21   10     -0.88      0.00
    8   21   10     -0.08      0.00
    9   21   10     -1.98      0.00
   10   21   10     -0.21      0.00
  -16   22   10      0.15      0.00
  -15   22   10     -0.18      0.00
    8   22   10     -2.36      0.00
    9   22   10     -0.78      0.00
  -15   23   10      0.36      0.00
    8   23   10     -1.29      0.00
    9   23   10      0.51      0.00
  -15   24   10      0.39      0.00
    8   24   10      1.56      0.00
    9   24   10     -1.12      0.00
  -15   25   10      0.25      0.00
    7   25   10      0.84      0.00
    8   25   10     -0.12      0.00
    7   26   10      1.52      0.00
    8   26   10      0.57      0.00
  -14   27   10      0.41      0.00
    7   27   10      0.71      0.00
  -13   28   10     -0.62      0.00
    6   28   10      1.24      0.00
    7   28   10      0.37      0.00
  -13   29   10     -0.03      0.00
    6   29   10     -1.26      0.00
  -12   30   10      0.76      0.00
  -11   30   10      0.86      0.00
    5   30   10     -0.66      0.00
    6   30   10      0.70      0.00
  -11   31   10      0.26      0.00
  -10   31   10      0.20      0.00
    5   31   10     -0.49      0.00
  -10   32   10     -0.21      0.00
   -9   32   10      0.25      0.00
   -8   32   10     -0.79      0.00
  -10   33   10     -0.56      0.00
   -9   33   10     -0.22      0.00
   -8   33   10      0.42      0.00
   -7   33   10      0.03      0.00
    3   33   10      0.01      0.00
   -8   34   10      0.08      0.00
   -7   34   10     -0.62      0.00
   -6   34   10      0.22      0.00
   -1   34   10      0.36      0.00
   -7   35   10     -0.44      0.00
   -6   35   10      0.08      0.00
   -5   35   10      0.24      0.00
   -4   35   10     -0.52      0.00
   -3   35   10     -0.35      0.00
   -2   35   10      0.59      0.00
   -1   35   10     -0.60      0.00
    1   35   10      0.04      0.00
   -5   36   10      0.70      0.00
   -4   36   10     -0.60      0.00
   -3   36   10      0.31      0.00
   -2   36   10      0.24      0.00
   -1   36   10     -0.41      0.00
  -19    3   11      0.93      0.00
  -19    4   11      1.04      0.00
  -19    5   11      0.82      0.00
  -19    6   11      0.83      0.00
   12    6   11     -2.25      0.00
  -19    7   11      0.14      0.00
  -19    8   11     -0.58      0.00
   12    8   11      0.08      0.00
   12    9   11      0.18      0.00
  -18   10   11      0.90      0.00
  -18   11   11      1.04      0.00
  -18   12   11     -0.15      0.00
   11   12   11      1.73      0.00
  -18   13   11      1.24      0.00
   11   13   11     -0.57      0.00
  -18   14   11     -0.33      0.00
  -17   14   11     -0.70      0.00
   11   14   11     -1.10      0.00
  -17   15   11      0.52      0.00
   10   15   11     -0.18      0.00
   11   15   11     -0.20      0.00
  -17   16   11      0.13      0.00
   10   16   11      0.06      0.00
  -17   17   11     -0.59      0.00
   10   17   11     -0.19      0.00
  -17   18   11      0.10      0.00
  -16   18   11     -0.57      0.00
    9   18   11      0.53      0.00
   10   18   11     -0.29      0.00
  -16   19   11      0.99      0.00
    9   19   11     -0.47      0.00
   10   19   11      0.17      0.00
  -16   20   11      0.82      0.00
    9   20   11      0.52      0.00
  -16   21   11      0.50      0.00
  -15   21   11     -0.05      0.00
    8   21   11     -0.42      0.00
    9   21   11     -0.22      0.00
  -15   22   11     -0.97      0.00
    8   22   11     -0.11      0.00
    9   22   11     -0.58      0.00
  -15   23   11      0.69      0.00
    7   23   11     -1.98      0.00
    8   23   11      0.10      0.00
  -15   24   11      0.46      0.00
    7   24   11     -0.83      0.00
    8   24   11     -0.16      0.00
    7   25   11      0.08      0.00
    7   26   11     -1.31      0.00
    6   27   11      0.78      0.00
  -13   28   11     -0.37      0.00
    6   28   11     -1.00      0.00
  -11   29   11     -0.39      0.00
  -11   30   11      0.82      0.00
  -10   30   11      0.52      0.00
    5   30   11     -0.72      0.00
  -11   31   11     -0.37      0.00
  -10   31   11      0.29      0.00
   -9   31   11      0.37      0.00
    4   31   11     -0.36      0.00
  -10   32   11     -0.26      0.00
   -9   32   11     -0.47      0.00
   -8   32   11      0.23      0.00
    3   32   11     -1.03      0.00
   -9   33   11     -0.14      0.00
   -8   33   11      0.15      0.00
   -7   33   11     -0.44      0.00
   -6   33   11      0.30      0.00
    2   33   11     -0.12      0.00
   -7   34   11      0.46      0.00
   -6   34   11     -1.24      0.00
   -5   34   11      0.02      0.00
   -4   34   11      0.24      0.00
   -3   34   11     -0.76      0.00
   -2   34   11      1.02      0.00
    1   34   11     -0.15      0.00
   -5   35   11      0.20      0.00
   -4   35   11     -0.76      0.00
   -3   35   11     -0.23      0.00
   -2   35   11      0.62      0.00
   -1   35   11      0.47      0.00
  -19    1   12     -0.23      0.00
  -19    2   12     -0.63      0.00
  -19    4   12     -1.08      0.00
  -19    5   12      0.16      0.00
  -19    6   12      0.69      0.00
  -18    6   12     -0.34      0.00
  -18    7   12     -0.66      0.00
  -18    8   12     -0.94      0.00
  -18    9   12     -0.80      0.00
   11    9   12     -0.90      0.00
  -18   10   12     -0.40      0.00
   11   10   12     -0.09      0.00
  -18   11   12      0.28      0.00
   11   11   12      0.31      0.00
  -18   12   12      0.14      0.00
   10   12   12      0.74      0.00
  -18   13   12      0.76      0.00
  -17   13   12     -1.00      0.00
   10   13   12      1.17      0.00
  -17   14   12     -0.13      0.00
   10   14   12      0.37      0.00
  -17   15   12     -0.24      0.00
   10   15   12     -1.37      0.00
  -17   16   12     -0.40      0.00
    9   16   12     -0.26      0.00
   10   16   12      0.19      0.00
  -17   17   12      0.46      0.00
  -16   17   12     -1.30      0.00
    9   17   12     -0.02      0.00
  -16   18   12     -0.90      0.00
    9   18   12      0.05      0.00
  -16   19   12      1.31      0.00
    8   19   12      0.82      0.00
    9   19   12      0.16      0.00
  -16   20   12     -0.22      0.00
  -15   20   12      0.03      0.00
    8   20   12     -0.08      0.00
  -16   21   12      0.34      0.00
  -15   21   12     -0.77      0.00
    8   21   12      0.86      0.00
  -15   22   12     -0.68      0.00
    8   22   12     -0.70      0.00
  -15   23   12      0.79      0.00
    7   23   12      0.70      0.00
  -14   24   12      1.24      0.00
    7   24   12      0.59      0.00
    6   26   12      1.20      0.00
  -13   27   12     -0.15      0.00
    5   28   12      1.21      0.00
  -12   29   12      0.16      0.00
  -11   29   12      0.27      0.00
  -10   29   12      0.28      0.00
    4   29   12     -0.06      0.00
  -11   30   12     -0.77      0.00
  -10   30   12      0.51      0.00
   -9   30   12      0.46      0.00
    3   30   12      0.45      0.00
  -10   31   12      0.09      0.00
   -9   31   12     -0.64      0.00
   -8   31   12      0.30      0.00
    2   31   12      0.94      0.00
    3   31   12      0.28      0.00
   -9   32   12      0.16      0.00
   -8   32   12     -1.31      0.00
   -7   32   12      0.23      0.00
    1   32   12      0.38      0.00
    2   32   12      0.63      0.00
   -8   33   12      0.75      0.00
   -7   33   12      0.02      0.00
   -6   33   12      0.04      0.00
   -5   33   12     -0.26      0.00
   -4   33   12      0.57      0.00
    0   33   12     -0.20      0.00
   -6   34   12     -0.14      0.00
   -5   34   12      0.76      0.00
   -4   34   12      0.76      0.00
   -3   34   12     -0.71      0.00
   -2   34   12     -0.58      0.00
  -19    0   13     -0.72      0.00
  -19    1   13     -0.03      0.00
  -19    2   13      0.54      0.00
  -19    3   13      0.46      0.00
  -18    7   13      0.36      0.00
  -18    8   13     -0.38      0.00
  -18    9   13     -1.06      0.00
  -18   10   13     -0.24      0.00
   10   10   13     -0.85      0.00
  -18   11   13     -0.45      0.00
  -17   11   13      2.13      0.00
   10   11   13      0.35      0.00
  -18   12   13      0.08      0.00
  -17   12   13     -0.17      0.00
  -17   13   13      1.46      0.00
  -17   14   13     -0.83      0.00
    9   14   13     -0.06      0.00
  -17   15   13     -0.27      0.00
  -16   15   13     -0.67      0.00
    9   15   13      1.52      0.00
  -17   16   13      0.27      0.00
  -16   16   13      0.03      0.00
    9   16   13      0.02      0.00
  -16   17   13     -1.26      0.00
  -16   18   13      0.66      0.00
    8   18   13      0.07      0.00
  -16   19   13     -0.59      0.00
  -15   19   13      1.58      0.00
    8   19   13      0.30      0.00
  -16   20   13      0.49      0.00
  -15   20   13     -0.76      0.00
  -15   21   13     -0.46      0.00
  -15   22   13     -1.68      0.00
  -14   22   13     -0.39      0.00
    7   22   13      0.60      0.00
  -14   23   13     -0.60      0.00
  -14   24   13      1.31      0.00
    6   24   13     -0.21      0.00
  -13   26   13     -0.17      0.00
    5   26   13     -0.67      0.00
    4   27   13     -0.54      0.00
  -12   28   13      0.04      0.00
  -11   28   13     -0.14      0.00
    3   28   13      0.56      0.00
    4   28   13      0.03      0.00
  -11   29   13     -0.35      0.00
  -10   29   13     -0.15      0.00
   -9   29   13      0.17      0.00
    2   29   13     -0.52      0.00
    3   29   13     -0.01      0.00
  -10   30   13      0.13      0.00
   -9   30   13      0.97      0.00
   -8   30   13     -0.50      0.00
    1   30   13     -1.15      0.00
    2   30   13     -0.22      0.00
   -9   31   13     -0.05      0.00
   -8   31   13     -0.07      0.00
   -7   31   13     -0.94      0.00
    1   31   13      0.01      0.00
   -8   32   13     -0.22      0.00
   -7   32   13      0.31      0.00
   -6   32   13     -0.27      0.00
    0   32   13      0.56      0.00
   -5   33   13     -0.54      0.00
   -4   33   13     -0.23      0.00
   -3   33   13      0.15      0.00
  -18    0   14      1.52      0.00
   10    0   14     -1.50      0.00
  -18    1   14     -1.17      0.00
   10    1   14     -0.06      0.00
   10    2   14      0.93      0.00
   10    3   14     -1.27      0.00
  -18    8   14     -0.69      0.00
  -18    9   14      0.00      0.00
    9    9   14      0.15      0.00
  -18   10   14     -0.64      0.00
  -17   10   14      1.09      0.00
    9   10   14     -0.17      0.00
  -17   11   14     -0.82      0.00
    9   11   14     -0.64      0.00
  -17   12   14      0.85      0.00
    9   12   14     -0.02      0.00
  -17   13   14      0.10      0.00
  -16   13   14      0.67      0.00
  -17   14   14     -0.89      0.00
  -16   14   14      0.68      0.00
  -17   15   14      1.26      0.00
  -16   15   14      0.43      0.00
    8   15   14     -1.29      0.00
  -16   16   14      1.20      0.00
    8   16   14      0.32      0.00
  -16   17   14     -1.12      0.00
  -15   17   14     -0.11      0.00
  -16   18   14     -0.38      0.00
  -15   18   14      0.01      0.00
  -15   19   14      0.91      0.00
    7   19   14      0.14      0.00
  -15   20   14      1.12      0.00
  -15   21   14      0.81      0.00
  -14   21   14     -0.51      0.00
    6   21   14      0.63      0.00
  -14   22   14      0.34      0.00
    6   22   14     -0.90      0.00
  -14   23   14     -1.12      0.00
    5   23   14      1.56      0.00
    4   24   14      1.88      0.00
    5   24   14     -0.74      0.00
  -13   25   14      1.14      0.00
    3   25   14      0.88      0.00
    4   25   14      0.50      0.00
    2   26   14      0.27      0.00
    3   26   14      0.08      0.00
    4   26   14     -0.77      0.00
  -12   27   14     -0.67      0.00
  -11   27   14      0.94      0.00
  -10   27   14     -0.65      0.00
    2   27   14     -0.16      0.00
    3   27   14     -0.67      0.00
  -11   28   14      0.33      0.00
  -10   28   14     -1.14      0.00
   -9   28   14      0.11      0.00
    1   28   14      0.63      0.00
    2   28   14     -0.23      0.00
  -10   29   14     -0.21      0.00
   -9   29   14      0.09      0.00
   -8   29   14      1.17      0.00
    1   29   14     -0.38      0.00
   -9   30   14      0.52      0.00
   -8   30   14      0.08      0.00
   -7   30   14      0.42      0.00
   -1   30   14     -0.28      0.00
    0   30   14     -0.54      0.00
   -7   31   14     -0.43      0.00
   -6   31   14      1.17      0.00
   -2   31   14      0.14      0.00
   -1   31   14     -0.54      0.00
    9    0   15      0.01      0.00
  -18    1   15      0.73      0.00
    8    1   15     -0.09      0.00
    9    1   15     -0.70      0.00
  -18    2   15      1.25      0.00
    8    2   15     -0.35      0.00
    9    2   15      0.60      0.00
  -18    3   15     -1.60      0.00
    8    3   15     -0.29      0.00
    9    3   15      0.45      0.00
  -18    4   15      0.01      0.00
    9    4   15     -1.45      0.00
  -18    5   15     -0.12      0.00
  -18    6   15      0.42      0.00
  -18    7   15     -0.39      0.00
    8    9   15     -0.24      0.00
  -17   10   15      0.55      0.00
    8   10   15      0.68      0.00
  -17   11   15      0.84      0.00
    8   11   15      0.66      0.00
  -17   12   15      0.49      0.00
  -16   12   15     -0.51      0.00
    8   12   15      0.56      0.00
  -17   13   15     -1.34      0.00
  -16   13   15     -1.08      0.00
    7   13   15      0.16      0.00
  -16   14   15     -0.02      0.00
    7   14   15      0.81      0.00
  -16   15   15      0.73      0.00
  -15   15   15      0.78      0.00
    7   15   15      0.55      0.00
  -16   16   15      0.26      0.00
  -15   16   15     -0.97      0.00
    7   16   15      0.08      0.00
  -16   17   15     -0.43      0.00
  -15   17   15     -0.37      0.00
    6   17   15      0.36      0.00
  -15   18   15     -0.14      0.00
    6   18   15     -0.24      0.00
  -15   19   15      0.47      0.00
  -14   19   15     -0.74      0.00
    5   19   15      0.13      0.00
    6   19   15     -0.38      0.00
  -15   20   15      0.49      0.00
  -14   20   15      0.49      0.00
    5   20   15     -0.05      0.00
  -14   21   15      0.90      0.00
    4   21   15     -0.65      0.00
    5   21   15      0.50      0.00
  -14   22   15     -0.75      0.00
    4   22   15     -0.26      0.00
    3   23   15     -1.14      0.00
    4   23   15      0.43      0.00
  -13   24   15     -0.33      0.00
    2   24   15      0.24      0.00
    3   24   15     -0.10      0.00
  -12   25   15     -0.28      0.00
    2   25   15     -0.60      0.00
    3   25   15      1.72      0.00
  -11   26   15      0.78      0.00
  -10   26   15      0.54      0.00
    0   26   15     -1.39      0.00
    1   26   15     -0.08      0.00
    2   26   15      1.57      0.00
  -11   27   15      0.78      0.00
  -10   27   15     -0.29      0.00
   -9   27   15     -0.80      0.00
    0   27   15      0.16      0.00
    1   27   15      0.75      0.00
  -10   28   15     -0.21      0.00
   -9   28   15     -0.77      0.00
   -8   28   15     -0.42      0.00
    0   28   15      0.97      0.00
   -8   29   15      1.07      0.00
   -7   29   15     -0.91      0.00
   -2   29   15     -0.32      0.00
   -1   29   15      1.38      0.00
   -7   30   15      0.80      0.00
   -6   30   15      0.10      0.00
   -5   30   15      0.22      0.00
   -3   30   15     -0.77      0.00
  -18    0   16      0.71      0.00
    8    0   16      0.15      0.00
  -18    1   16      1.27      0.00
  -17    1   16      2.44      0.00
    7    1   16      1.27      0.00
    8    1   16     -0.51      0.00
  -17    2   16      0.47      0.00
    7    2   16      0.44      0.00
    8    2   16      0.33      0.00
  -17    3   16     -1.09      0.00
    7    3   16     -0.35      0.00
    8    3   16      0.63      0.00
  -17    4   16      0.10      0.00
  -17    5   16      0.02      0.00
  -17    6   16      0.57      0.00
  -17    7   16      0.34      0.00
  -17    8   16     -1.34      0.00
    7    8   16      0.12      0.00
  -17    9   16      0.58      0.00
    7    9   16     -0.40      0.00
  -17   10   16     -0.07      0.00
    7   10   16     -0.50      0.00
  -17   11   16      0.63      0.00
    6   11   16     -0.49      0.00
    7   11   16     -0.14      0.00
    6   12   16     -0.31      0.00
  -16   13   16     -0.59      0.00
    6   13   16     -0.97      0.00
  -16   14   16      0.40      0.00
    5   14   16     -1.04      0.00
    6   14   16     -1.16      0.00
  -16   15   16      0.61      0.00
  -15   15   16     -0.33      0.00
    5   15   16      0.22      0.00
    6   15   16      0.62      0.00
  -15   16   16     -0.95      0.00
    5   16   16      0.22      0.00
  -15   17   16      0.49      0.00
  -14   17   16      0.02      0.00
    4   17   16      0.32      0.00
    5   17   16      0.42      0.00
  -15   18   16     -1.00      0.00
  -14   18   16      0.05      0.00
    4   18   16      0.08      0.00
    5   18   16     -0.35      0.00
  -14   19   16     -0.33      0.00
    3   19   16      0.56      0.00
    4   19   16     -0.02      0.00
  -14   20   16      0.31      0.00
  -13   20   16      0.24      0.00
    3   20   16      0.50      0.00
    4   20   16     -1.15      0.00
  -13   21   16      0.67      0.00
    2   21   16      1.41      0.00
    3   21   16     -0.02      0.00
  -13   22   16     -0.59      0.00
    2   22   16     -0.59      0.00
    3   22   16     -1.02      0.00
    2   23   16     -0.01      0.00
  -12   24   16      0.03      0.00
    1   24   16     -0.87      0.00
    2   24   16     -1.27      0.00
  -11   25   16     -0.16      0.00
  -10   25   16      1.06      0.00
    1   25   16     -0.62      0.00
  -10   26   16      0.49      0.00
   -9   26   16      1.24      0.00
   -2   26   16      1.20      0.00
   -1   26   16     -0.18      0.00
    0   26   16     -1.23      0.00
   -9   27   16     -0.94      0.00
   -8   27   16      0.33      0.00
   -3   27   16      1.96      0.00
   -2   27   16     -0.38      0.00
   -1   27   16     -1.33      0.00
   -8   28   16     -0.88      0.00
   -7   28   16      0.41      0.00
   -6   28   16     -0.86      0.00
   -4   28   16      0.64      0.00
   -3   28   16      0.11      0.00
   -2   28   16     -0.69      0.00
  -17    0   17      1.09      0.00
  -17    1   17      1.16      0.00
  -16    1   17      0.79      0.00
    6    1   17     -1.33      0.00
  -17    2   17     -0.56      0.00
    6    2   17      0.26      0.00
  -17    3   17      0.67      0.00
  -17    4   17     -1.38      0.00
  -17    5   17     -0.10      0.00
  -17    6   17     -0.70      0.00
  -17    7   17     -0.22      0.00
    6    7   17     -0.06      0.00
    6    8   17     -0.13      0.00
    6    9   17      0.06      0.00
  -16   10   17     -0.20      0.00
    5   10   17     -0.59      0.00
    6   10   17      0.36      0.00
  -16   11   17     -0.11      0.00
    5   11   17      1.82      0.00
  -16   12   17     -0.70      0.00
    5   12   17      0.44      0.00
  -16   13   17     -1.11      0.00
    4   13   17      0.10      0.00
    5   13   17      0.33      0.00
    4   14   17     -0.63      0.00
    5   14   17     -0.27      0.00
  -15   15   17      0.84      0.00
    3   15   17     -0.30      0.00
    4   15   17     -1.30      0.00
  -15   16   17     -0.14      0.00
    3   16   17     -1.52      0.00
    4   16   17      0.58      0.00
  -14   17   17      0.91      0.00
    3   17   17     -0.18      0.00
    4   17   17      0.04      0.00
  -14   18   17      0.25      0.00
    2   18   17     -0.81      0.00
    3   18   17      0.22      0.00
  -13   19   17      0.38      0.00
    2   19   17     -0.03      0.00
    3   19   17      0.42      0.00
  -13   20   17     -0.35      0.00
    1   20   17     -0.22      0.00
    2   20   17      0.35      0.00
    1   21   17      0.48      0.00
    2   21   17      0.14      0.00
  -12   22   17      0.96      0.00
    1   22   17      0.63      0.00
  -10   23   17     -0.37      0.00
    0   23   17      0.69      0.00
    1   23   17      0.31      0.00
  -10   24   17     -0.93      0.00
   -3   24   17     -1.97      0.00
    0   24   17      0.60      0.00
   -9   25   17     -0.41      0.00
   -4   25   17     -0.89      0.00
   -3   25   17     -0.08      0.00
   -2   25   17      0.46      0.00
   -1   25   17      0.75      0.00
   -8   26   17      0.26      0.00
   -7   26   17      0.60      0.00
   -6   26   17      0.57      0.00
   -5   26   17     -0.22      0.00
   -4   26   17     -0.82      0.00
   -3   26   17     -0.11      0.00
   -2   26   17      0.74      0.00
   -5   27   17     -0.10      0.00
  -16    0   18      1.50      0.00
    4    0   18      1.55      0.00
  -16    1   18      0.06      0.00
    5    1   18      1.32      0.00
  -16    2   18      0.47      0.00
    5    2   18     -0.07      0.00
  -16    3   18      0.26      0.00
  -16    4   18     -0.33      0.00
  -16    5   18      0.24      0.00
    5    5   18      0.08      0.00
  -16    6   18     -0.43      0.00
    5    6   18      0.83      0.00
  -16    7   18     -0.13      0.00
  -15    7   18      0.15      0.00
    5    7   18      0.19      0.00
  -16    8   18      0.66      0.00
  -15    8   18      0.13      0.00
    4    8   18      1.08      0.00
    5    8   18      0.20      0.00
  -16    9   18     -0.35      0.00
  -15    9   18      0.37      0.00
    4    9   18     -0.65      0.00
  -15   10   18     -0.65      0.00
    4   10   18     -0.42      0.00
  -15   11   18     -0.01      0.00
    3   11   18     -1.03      0.00
    4   11   18     -0.80      0.00
  -15   12   18      0.04      0.00
    3   12   18      0.43      0.00
    4   12   18      1.22      0.00
  -15   13   18     -0.71      0.00
    2   13   18     -1.51      0.00
    3   13   18      1.43      0.00
    4   13   18     -0.23      0.00
    2   14   18      2.00      0.00
    3   14   18      0.75      0.00
  -14   15   18     -0.06      0.00
    2   15   18      1.28      0.00
    3   15   18      0.42      0.00
  -14   16   18     -0.02      0.00
    1   16   18      2.45      0.00
    2   16   18      0.63      0.00
    3   16   18     -0.91      0.00
    1   17   18     -0.08      0.00
    2   17   18     -0.28      0.00
  -13   18   18      0.06      0.00
    1   18   18     -0.74      0.00
    2   18   18     -0.12      0.00
    0   19   18     -0.32      0.00
    1   19   18      0.56      0.00
  -12   20   18     -0.25      0.00
    0   20   18     -0.62      0.00
    1   20   18     -0.35      0.00
   -4   21   18      0.47      0.00
   -3   21   18      1.30      0.00
    0   21   18     -0.42      0.00
  -10   22   18      0.85      0.00
   -5   22   18     -0.09      0.00
   -4   22   18      0.65      0.00
   -3   22   18      0.16      0.00
   -1   22   18     -0.98      0.00
   -9   23   18     -0.37      0.00
   -8   23   18     -0.42      0.00
   -7   23   18      0.62      0.00
   -6   23   18     -0.24      0.00
   -5   23   18      0.52      0.00
   -4   23   18      1.04      0.00
   -3   23   18     -0.15      0.00
   -8   24   18      0.45      0.00
   -7   24   18     -0.97      0.00
   -6   24   18     -0.55      0.00
   -5   24   18      0.54      0.00
   -4   24   18      0.18      0.00
   -3   24   18     -0.40      0.00
  -15    0   19     -0.23      0.00
  -16    1   19     -0.43      0.00
  -15    1   19      0.42      0.00
    4    1   19     -1.62      0.00
  -16    2   19      0.14      0.00
  -15    2   19     -0.29      0.00
    4    2   19      0.70      0.00
  -15    3   19      0.57      0.00
    4    3   19      0.19      0.00
  -15    4   19      0.51      0.00
    4    4   19      0.34      0.00
  -15    5   19     -0.44      0.00
    4    5   19     -0.76      0.00
  -15    6   19     -0.65      0.00
  -14    6   19      0.30      0.00
    3    6   19     -1.06      0.00
  -15    7   19      0.12      0.00
  -14    7   19      0.26      0.00
    3    7   19     -0.14      0.00
  -15    8   19     -0.06      0.00
  -14    8   19      0.67      0.00
    2    8   19     -0.11      0.00
    3    8   19      0.57      0.00
  -15    9   19      0.45      0.00
  -14    9   19      0.21      0.00
    2    9   19      0.27      0.00
    3    9   19      0.48      0.00
  -15   10   19     -0.13      0.00
  -14   10   19     -0.39      0.00
    2   10   19      1.69      0.00
    3   10   19     -0.88      0.00
  -14   11   19     -0.07      0.00
    1   11   19      1.38      0.00
    2   11   19     -0.50      0.00
  -14   12   19      0.40      0.00
  -13   12   19      0.16      0.00
    1   12   19      0.07      0.00
    2   12   19     -1.69      0.00
  -14   13   19      0.05      0.00
  -13   13   19      0.97      0.00
    1   13   19     -1.30      0.00
    2   13   19     -0.49      0.00
  -13   14   19     -0.26      0.00
    1   14   19     -2.25      0.00
    2   14   19     -0.46      0.00
  -13   15   19     -0.18      0.00
  -12   15   19     -0.75      0.00
    0   15   19     -0.81      0.00
    1   15   19      1.16      0.00
  -13   16   19     -0.09      0.00
  -12   16   19      0.02      0.00
    0   16   19      0.04      0.00
    1   16   19     -0.26      0.00
  -12   17   19     -0.60      0.00
    0   17   19      1.34      0.00
  -12   18   19      0.22      0.00
   -4   18   19      0.29      0.00
   -1   18   19      0.62      0.00
    0   18   19     -0.72      0.00
  -11   19   19     -0.28      0.00
   -8   19   19      0.65      0.00
   -7   19   19      0.80      0.00
   -6   19   19      0.20      0.00
   -5   19   19     -0.45      0.00
   -4   19   19     -0.40      0.00
   -1   19   19      0.21      0.00
  -10   20   19      0.10      0.00
   -9   20   19     -0.11      0.00
   -8   20   19     -0.39      0.00
   -7   20   19     -0.89      0.00
   -6   20   19      1.18      0.00
   -5   20   19     -0.34      0.00
   -4   20   19     -0.05      0.00
   -3   20   19      0.39      0.00
   -2   20   19      0.53      0.00
   -9   21   19      1.23      0.00
   -8   21   19     -0.22      0.00
   -7   21   19      0.45      0.00
   -6   21   19     -0.59      0.00
   -5   21   19     -0.31      0.00
   -4   21   19     -0.94      0.00
   -3   21   19      0.88      0.00
   -8   22   19     -0.27      0.00
   -7   22   19      0.81      0.00
   -6   22   19     -0.25      0.00
   -5   22   19     -0.39      0.00
   -4   22   19      0.68      0.00
  -14    0   20      0.99      0.00
  -15    1   20     -0.02      0.00
  -14    1   20      0.13      0.00
  -15    2   20      0.47      0.00
  -14    2   20     -0.02      0.00
  -14    3   20     -0.28      0.00
    2    3   20     -0.13      0.00
  -14    4   20     -0.67      0.00
    2    4   20      1.48      0.00
  -14    5   20      0.67      0.00
    1    5   20      0.67      0.00
    2    5   20      1.34      0.00
  -14    6   20     -1.21      0.00
    1    6   20      1.81      0.00
    2    6   20     -0.49      0.00
  -14    7   20      1.02      0.00
    0    7   20     -0.63      0.00
    1    7   20      0.99      0.00
    2    7   20     -0.24      0.00
  -14    8   20      0.30      0.00
  -13    8   20      0.28      0.00
    0    8   20      0.22      0.00
    1    8   20     -1.16      0.00
  -14    9   20     -0.09      0.00
  -13    9   20     -0.66      0.00
    0    9   20     -0.34      0.00
    1    9   20     -0.55      0.00
  -13   10   20      0.12      0.00
    0   10   20     -0.33      0.00
    1   10   20     -0.18      0.00
  -13   11   20     -0.34      0.00
    0   11   20      0.58      0.00
    1   11   20      1.65      0.00
  -13   12   20      0.10      0.00
  -12   12   20     -0.16      0.00
   -1   12   20     -1.30      0.00
    0   12   20      1.78      0.00
  -12   13   20     -0.30      0.00
   -1   13   20      0.48      0.00
    0   13   20      0.01      0.00
  -12   14   20      0.55      0.00
   -1   14   20     -0.68      0.00
   -5   15   20     -1.18      0.00
   -4   15   20      0.59      0.00
   -2   15   20     -0.06      0.00
   -1   15   20     -0.14      0.00
  -11   16   20      0.21      0.00
   -7   16   20     -0.19      0.00
   -6   16   20      0.79      0.00
   -5   16   20      0.48      0.00
   -4   16   20     -0.18      0.00
   -2   16   20     -0.64      0.00
  -10   17   20     -0.08      0.00
   -8   17   20      0.24      0.00
   -7   17   20     -0.47      0.00
   -6   17   20     -1.04      0.00
   -5   17   20      0.07      0.00
   -4   17   20      0.38      0.00
   -2   17   20     -0.63      0.00
   -9   18   20     -0.13      0.00
   -8   18   20     -0.35      0.00
   -7   18   20      0.42      0.00
   -6   18   20     -0.19      0.00
   -5   18   20     -0.75      0.00
   -4   18   20      0.27      0.00
   -3   18   20     -1.27      0.00
   -8   19   20     -0.24      0.00
   -7   19   20     -1.03      0.00
   -6   19   20      0.98      0.00
   -5   19   20      1.00      0.00
  -13    0   21     -0.77      0.00
  -13    1   21      0.19      0.00
  -13    2   21     -0.57      0.00
  -13    3   21     -0.47      0.00
    0    3   21     -0.92      0.00
  -13    4   21      0.02      0.00
    0    4   21     -0.73      0.00
  -13    5   21     -0.20      0.00
  -10    5   21     -1.97      0.00
   -1    5   21      0.61      0.00
    0    5   21     -0.37      0.00
  -13    6   21     -0.16      0.00
  -10    6   21     -0.41      0.00
   -2    6   21      1.92      0.00
   -1    6   21      0.35      0.00
    0    6   21     -0.99      0.00
  -13    7   21      0.10      0.00
  -10    7   21     -1.16      0.00
   -2    7   21      0.11      0.00
   -1    7   21      1.06      0.00
  -12    8   21      0.28      0.00
  -10    8   21     -0.08      0.00
   -2    8   21      0.92      0.00
   -1    8   21     -0.60      0.00
  -12    9   21      0.52      0.00
  -10    9   21      0.95      0.00
   -2    9   21      0.23      0.00
   -1    9   21      0.12      0.00
  -12   10   21      0.29      0.00
  -10   10   21      0.18      0.00
   -2   10   21      0.84      0.00
   -1   10   21     -0.91      0.00
  -10   11   21      0.36      0.00
   -5   11   21     -0.70      0.00
   -2   11   21      0.65      0.00
  -11   12   21     -0.17      0.00
  -10   12   21     -0.19      0.00
   -5   12   21      0.63      0.00
   -3   12   21      1.74      0.00
   -2   12   21      0.72      0.00
  -10   13   21     -0.84      0.00
   -6   13   21     -0.30      0.00
   -5   13   21      0.10      0.00
   -4   13   21      0.70      0.00
   -3   13   21      0.76      0.00
  -10   14   21     -0.02      0.00
   -9   14   21     -0.03      0.00
   -7   14   21     -0.43      0.00
   -6   14   21      0.65      0.00
   -5   14   21     -0.45      0.00
   -4   14   21     -1.02      0.00
   -9   15   21     -0.58      0.00
   -8   15   21      0.76      0.00
   -7   15   21     -0.01      0.00
   -6   15   21      0.31      0.00
   -5   15   21      0.17      0.00
  -10    0   22      1.11      0.00
   -8    0   22      0.26      0.00
   -4    0   22     -1.76      0.00
   -2    0   22     -1.11      0.00
  -11    1   22     -0.36      0.00
  -10    1   22     -0.09      0.00
   -9    1   22      0.37      0.00
   -8    1   22     -0.45      0.00
   -4    1   22      0.66      0.00
   -3    1   22      0.19      0.00
   -2    1   22      0.17      0.00
  -11    2   22      0.33      0.00
  -10    2   22     -0.43      0.00
   -9    2   22     -0.59      0.00
   -8    2   22     -0.27      0.00
   -4    2   22     -0.55      0.00
   -3    2   22      0.31      0.00
   -2    2   22     -0.87      0.00
  -11    3   22      0.25      0.00
  -10    3   22      0.72      0.00
   -9    3   22     -0.47      0.00
   -8    3   22     -0.56      0.00
   -4    3   22      0.41      0.00
   -3    3   22     -0.46      0.00
  -11    4   22      0.75      0.00
  -10    4   22      0.03      0.00
   -9    4   22      0.55      0.00
   -8    4   22     -0.33      0.00
   -4    4   22      0.40      0.00
   -3    4   22     -0.40      0.00
  -11    5   22      1.76      0.00
  -10    5   22      0.26      0.00
   -9    5   22     -0.21      0.00
   -8    5   22     -0.26      0.00
   -4    5   22      0.09      0.00
   -3    5   22     -0.45      0.00
  -11    6   22      0.00      0.00
  -10    6   22      0.58      0.00
   -9    6   22     -0.43      0.00
   -6    6   22      0.18      0.00
   -3    6   22     -0.88      0.00
  -10    7   22     -1.32      0.00
   -9    7   22      0.29      0.00
   -6    7   22      0.51      0.00
  -10    8   22      0.55      0.00
   -9    8   22      0.13      0.00
   -7    8   22      0.09      0.00
   -6    8   22     -0.72      0.00
   -4    8   22      0.08      0.00
   -9    9   22      0.55      0.00
   -8    9   22      0.22      0.00
   -7    9   22      0.73      0.00
   -6    9   22      0.54      0.00
   -4    9   22     -0.44      0.00
   -8   10   22     -0.16      0.00
   -7   10   22     -0.46      0.00
   -6   10   22     -0.68      0.00
   -5   10   22      0.88      0.00
   -7   11   22     -0.36      0.00
    0    0    0      0.00      0.00
# SQUEEZE RESULTS (Version = 270519)
# Note: Data are Listed for all Voids in the P1 Unit Cell
# i.e. Centre of Gravity, Solvent Accessible Volume,
# Recovered number of Electrons in the Void and
# Details about the Squeezed Material
loop_
  _platon_squeeze_void_nr
  _platon_squeeze_void_average_x
  _platon_squeeze_void_average_y
  _platon_squeeze_void_average_z
  _platon_squeeze_void_volume
  _platon_squeeze_void_count_electrons
  _platon_squeeze_void_content
   1  0.000  0.000  0.500       743       189 ' '
   2 -0.500  0.500  0.000       742       189 ' '
# Missing Reflections Below sin(th)/lambda = 0.25
loop_
  _platon_missing_refln_index_h
  _platon_missing_refln_index_k
  _platon_missing_refln_index_l
  _platon_missing_refln_theta
    1    1    0     1.684
    0    2    0     1.387
    1    2    0     2.069
   -1    0    1     1.620
   -1    1    1     1.762
    0    1    1     1.488
_platon_squeeze_void_probe_radius                  1.20
_platon_squeeze_details
)
TITL gac354           P 1 21/n 1   R = 0.09
CELL   14.2345   29.3603   16.5980     90.00    111.25     90.00
SPGR P21/n
# Solvent Accessible Volume =      1486
# Electrons Found in S.A.V. =       377
# Note: Atoms in Void are Labelled as Cxxx and Qxxx for all Others
C101 0.407 0.418 0.094 !       2.60 eA-3
C102 0.620 0.415 0.131 !       2.37 eA-3
C103 0.930 0.781 0.099 !       2.25 eA-3
C104 0.900 0.985 0.456 !       2.16 eA-3
C105 0.093 0.184 0.874 !       2.10 eA-3
C106 0.124 0.171 0.893 !       2.10 eA-3
C107 0.032 0.942 0.434 !       2.09 eA-3
C108 0.372 0.100-0.006 !       2.09 eA-3
C109 0.438 0.557 0.906 !       2.00 eA-3
C110 0.402 0.487 0.001 !       1.82 eA-3
C111 0.693 0.919 0.256 !       1.81 eA-3
Q112 0.706 0.961 0.210 !       1.80 eA-3
C113 0.060 0.148 0.813 !       1.79 eA-3
C114 0.052 0.626 0.604 !       1.78 eA-3
C115 0.864 0.865 0.156 !       1.67 eA-3
C116 0.985 0.961 0.441 !       1.58 eA-3
Q117 0.468 0.100 0.987 !       1.54 eA-3
Q118 0.719 0.334 0.499 !       1.53 eA-3
C119 0.506 0.302 0.316 !       1.40 eA-3
C120 0.565 0.879 0.049 !       1.35 eA-3
Q121 0.724 0.311 0.485 !       1.26 eA-3
C122 0.202 0.124 0.906 !       1.21 eA-3
C123 0.827 0.945 0.309 !       1.20 eA-3
C124 0.763 0.946 0.272 !       1.13 eA-3
Q125 0.689 0.136 0.439 !       1.13 eA-3
C126 0.684 0.444 0.261 !       1.06 eA-3
C127 0.781 0.946 0.182 !       0.97 eA-3
C128 0.703 0.915 0.147 !       0.94 eA-3
Q129 0.133 0.401 0.780 !       0.85 eA-3
Q130 0.145 0.533 0.635 !       0.85 eA-3
Q131 0.631 0.079 0.286 !       0.82 eA-3
Q132 0.628 0.080 0.238 !       0.80 eA-3
C133 0.138 0.642 0.480 !       0.78 eA-3
Q134 0.700 0.136 0.378 !       0.77 eA-3
Q135 0.075 0.462 0.578 !       0.72 eA-3
C136 0.456 0.364 0.172 !       0.69 eA-3
Q137 0.662 0.043 0.031 !       0.67 eA-3
Q138 0.393 0.921 0.035 !       0.67 eA-3
C139 1.000 1.000 0.500 !       0.67 eA-3
Q140 0.380 0.953 0.067 !       0.64 eA-3
C141 0.704 0.852 0.056 !       0.63 eA-3
C142 0.639 0.459 0.082 !       0.62 eA-3
C143 0.659 0.399 0.296 !       0.62 eA-3
Q144 0.686 0.611 0.121 !       0.61 eA-3
Q145 0.611 0.719 0.333 !       0.61 eA-3
Q146 0.363 0.244 0.153 !       0.61 eA-3
Q147 0.313 0.393 0.127 !       0.58 eA-3
Q148 0.970 0.251 0.308 !       0.57 eA-3
Q149 0.235 0.734 0.482 !       0.57 eA-3
Q150 0.673 0.633 0.076 !       0.53 eA-3
Q151 0.937 0.083 0.379 !       0.53 eA-3
Q152 0.627 0.164 0.327 !       0.53 eA-3
Q153 0.565 0.799 0.312 !       0.52 eA-3
Q154 0.625 0.947 0.435 !       0.52 eA-3
Q155 0.705 0.296 0.780 !       0.51 eA-3
)
;
_shelx_fab_checksum              46773
_platon_squeeze_void_probe_radius 1.20
_olex2_submission_special_instructions 'No special instructions were received'
_oxdiff_exptl_absorpt_empirical_details
;
Empirical correction (ABSPACK) includes:
- Absorption correction using spherical harmonics
- Frame scaling
;
_oxdiff_exptl_absorpt_empirical_full_max 1.084
_oxdiff_exptl_absorpt_empirical_full_min 0.923
loop_
_space_group_symop_operation_xyz
'x, y, z'
'-x+1/2, y+1/2, -z+1/2'
'-x, -y, -z'
'x-1/2, -y-1/2, z-1/2'
loop_
_atom_site_label
_atom_site_type_symbol
_atom_site_fract_x
_atom_site_fract_y
_atom_site_fract_z
_atom_site_U_iso_or_equiv
_atom_site_adp_type
_atom_site_occupancy
_atom_site_site_symmetry_order
_atom_site_calc_flag
_atom_site_refinement_flags_posn
_atom_site_refinement_flags_adp
_atom_site_refinement_flags_occupancy
_atom_site_disorder_assembly
_atom_site_disorder_group
Cu1 Cu -0.16189(3) 0.64381(2) 0.11603(2) 0.03210(10) Uani 1 1 d . . . . .
Cu2 Cu 0.09217(3) 0.40648(2) 0.74324(2) 0.03262(10) Uani 1 1 d . . . . .
O9 O -0.01975(16) 0.65796(8) 0.13909(14) 0.0423(5) Uani 1 1 d . . . . .
O7 O 0.29259(16) 0.37679(7) 0.88336(14) 0.0410(5) Uani 1 1 d . . . . .
O2 O -0.16371(18) 0.69352(7) 0.19414(14) 0.0437(5) Uani 1 1 d . . . . .
O4 O 0.14883(17) 0.41316(7) 0.94129(14) 0.0410(5) Uani 1 1 d . . . . .
O10 O 0.03886(16) 0.61097(8) 0.25264(15) 0.0457(5) Uani 1 1 d . . . . .
O8 O 0.23347(16) 0.41630(8) 0.75928(14) 0.0414(5) Uani 1 1 d . . . . .
O5 O 0.10099(18) 0.45682(7) 0.82221(15) 0.0438(5) Uani 1 1 d . . . . .
O3 O -0.09502(19) 0.65119(7) 0.31374(14) 0.0445(5) Uani 1 1 d . . . . .
O1 O 0.19703(17) 0.81255(7) 0.92869(14) 0.0417(5) Uani 1 1 d . . . . .
O60 O 0.0297(3) 0.44451(11) 0.62568(19) 0.0692(8) Uani 1 1 d D . . . .
H60A H 0.064(5) 0.456(3) 0.595(3) 0.104 Uiso 0.75 1 d D . P A 1
H60B H -0.013(3) 0.4291(17) 0.581(2) 0.104 Uiso 1 1 d D . . B 1
C13 C -0.1256(2) 0.72839(10) 0.3306(2) 0.0369(6) Uani 1 1 d . . . . .
C22 C 0.1257(2) 0.49189(10) 0.9558(2) 0.0352(6) Uani 1 1 d . . . . .
C49 C 0.0493(2) 0.63992(10) 0.20058(19) 0.0360(6) Uani 1 1 d . . . . .
O6 O 0.7806(2) 0.64059(11) 0.6911(2) 0.0756(10) Uani 1 1 d . . . . .
C6 C 0.1498(2) 0.73658(10) 0.9105(2) 0.0395(6) Uani 1 1 d . . . . .
H6 H 0.177315 0.733580 0.970297 0.047 Uiso 1 1 calc R . . . .
C24 C 0.1254(2) 0.45050(10) 0.9020(2) 0.0354(6) Uani 1 1 d . . . . .
C5 C 0.1079(2) 0.69874(10) 0.8592(2) 0.0423(7) Uani 1 1 d . . . . .
C40 C 0.3031(2) 0.40028(9) 0.8237(2) 0.0347(6) Uani 1 1 d . . . . .
C14 C -0.0833(2) 0.72409(11) 0.4195(2) 0.0396(6) Uani 1 1 d . . . . .
H14 H -0.059262 0.695939 0.444006 0.047 Uiso 1 1 calc R . . . .
C38 C 0.4090(2) 0.41011(9) 0.8305(2) 0.0355(6) Uani 1 1 d . . . . .
C23 C 0.1191(2) 0.53475(10) 0.9190(2) 0.0374(6) Uani 1 1 d . . . . .
H23 H 0.116676 0.537659 0.862438 0.045 Uiso 1 1 calc R . . . .
C1 C 0.1508(2) 0.77874(10) 0.8726(2) 0.0375(6) Uani 1 1 d . . . . .
C8 C -0.0284(3) 0.75733(12) 0.5647(2) 0.0473(8) Uani 1 1 d . . . . .
C15 C -0.1283(2) 0.68786(10) 0.27500(19) 0.0358(6) Uani 1 1 d . . . . .
C18 C 0.1162(2) 0.57342(10) 0.9666(2) 0.0412(7) Uani 1 1 d . . . . .
C16 C 0.1110(2) 0.65464(11) 0.8985(2) 0.0453(7) Uani 1 1 d . . . . .
C21 C 0.1295(2) 0.48718(11) 1.0400(2) 0.0402(6) Uani 1 1 d . . . . .
H21 H 0.135529 0.458470 1.065026 0.048 Uiso 1 1 calc R . . . .
C9 C -0.0765(2) 0.76168(12) 0.4726(2) 0.0439(7) Uani 1 1 d . . . . .
C47 C 0.1561(2) 0.65323(11) 0.2134(2) 0.0398(6) Uani 1 1 d . . . . .
C48 C 0.2335(2) 0.63755(12) 0.2854(2) 0.0445(7) Uani 1 1 d . . . . .
H48 H 0.219266 0.618873 0.324698 0.053 Uiso 1 1 calc R . . . .
C20 C 0.1244(2) 0.52551(12) 1.0862(2) 0.0452(7) Uani 1 1 d . . . . .
H20 H 0.125387 0.522474 1.142290 0.054 Uiso 1 1 calc R . . . .
C7 C 0.0148(3) 0.75255(12) 0.6404(2) 0.0473(8) Uani 1 1 d . . . . .
C12 C -0.1653(2) 0.76995(11) 0.2931(2) 0.0417(7) Uani 1 1 d . . . . .
H12 H -0.194730 0.772658 0.233348 0.050 Uiso 1 1 calc R . . . .
C17 C 0.1128(2) 0.61791(11) 0.9291(2) 0.0453(7) Uani 1 1 d . . . . .
C2 C 0.1080(2) 0.78413(11) 0.7838(2) 0.0390(6) Uani 1 1 d . . . . .
H2 H 0.108405 0.812406 0.758669 0.047 Uiso 1 1 calc R . . . .
C10 C -0.1163(3) 0.80350(12) 0.4339(2) 0.0497(8) Uani 1 1 d . . . . .
H10 H -0.112618 0.828911 0.468368 0.060 Uiso 1 1 calc R . . . .
C37 C 0.4887(3) 0.38819(12) 0.8917(2) 0.0486(8) Uani 1 1 d . . . . .
H37 H 0.476887 0.366991 0.928545 0.058 Uiso 1 1 calc R . . . .
C34 C 0.5254(3) 0.45168(11) 0.7829(2) 0.0452(7) Uani 1 1 d . . . . .
C3 C 0.0639(2) 0.74629(11) 0.7323(2) 0.0425(7) Uani 1 1 d . . . . .
C39 C 0.4271(2) 0.44144(10) 0.7757(2) 0.0393(6) Uani 1 1 d . . . . .
H39 H 0.373219 0.455784 0.733580 0.047 Uiso 1 1 calc R . . . .
C4 C 0.0656(2) 0.70377(11) 0.7700(2) 0.0452(7) Uani 1 1 d . . . . .
H4 H 0.038283 0.678634 0.735292 0.054 Uiso 1 1 calc R . . . .
C43 C 0.3331(3) 0.64947(14) 0.2996(2) 0.0526(9) Uani 1 1 d . . . . .
C19 C 0.1180(3) 0.56804(12) 1.0506(2) 0.0478(8) Uani 1 1 d . . . . .
H19 H 0.114746 0.593544 1.082680 0.057 Uiso 1 1 calc R . . . .
C28 C 0.5406(3) 0.60572(13) 0.5251(2) 0.0497(8) Uani 1 1 d . . . . .
C27 C 0.6290(2) 0.63088(13) 0.5653(2) 0.0489(8) Uani 1 1 d . . . . .
H27 H 0.643517 0.656079 0.537882 0.059 Uiso 1 1 calc R . . . .
C33 C 0.5452(3) 0.48636(13) 0.7300(3) 0.0534(9) Uani 1 1 d . . . . .
C35 C 0.6047(3) 0.42944(14) 0.8438(3) 0.0589(10) Uani 1 1 d . . . . .
H35 H 0.670461 0.435686 0.848367 0.071 Uiso 1 1 calc R . . . .
C30 C 0.5856(3) 0.55521(13) 0.6468(3) 0.0545(9) Uani 1 1 d . . . . .
C45 C 0.2751(3) 0.69139(15) 0.1653(3) 0.0584(10) Uani 1 1 d . . . . .
H45 H 0.289230 0.708935 0.124419 0.070 Uiso 1 1 calc R . . . .
C44 C 0.3530(3) 0.67651(15) 0.2386(3) 0.0630(11) Uani 1 1 d . . . . .
H44 H 0.419049 0.684618 0.247146 0.076 Uiso 1 1 calc R . . . .
C32 C 0.5625(3) 0.51657(14) 0.6907(3) 0.0595(10) Uani 1 1 d . . . . .
C25 C 0.2048(3) 0.85621(11) 0.8927(2) 0.0487(8) Uani 1 1 d . . . . .
H25A H 0.138515 0.868238 0.862878 0.073 Uiso 1 1 calc GR . . . .
H25B H 0.239251 0.852957 0.852875 0.073 Uiso 1 1 calc GR . . . .
H25C H 0.241874 0.876648 0.938309 0.073 Uiso 1 1 calc GR . . . .
C11 C -0.1605(3) 0.80714(11) 0.3456(2) 0.0485(8) Uani 1 1 d . . . . .
H11 H -0.187527 0.834875 0.320834 0.058 Uiso 1 1 calc R . . . .
C46 C 0.1771(3) 0.68026(12) 0.1530(2) 0.0464(7) Uani 1 1 d . . . . .
H46 H 0.124861 0.690760 0.104335 0.056 Uiso 1 1 calc R . . . .
C36 C 0.5865(3) 0.39771(15) 0.8983(3) 0.0666(12) Uani 1 1 d . . . . .
H36 H 0.640174 0.382763 0.939408 0.080 Uiso 1 1 calc R . . . .
C41 C 0.4706(3) 0.62054(14) 0.4424(3) 0.0567(9) Uani 1 1 d . . . . .
C26 C 0.6940(3) 0.61784(14) 0.6457(3) 0.0555(9) Uani 1 1 d . . . . .
C31 C 0.6724(3) 0.58055(14) 0.6879(3) 0.0567(9) Uani 1 1 d . . . . .
H31 H 0.715748 0.572635 0.743092 0.068 Uiso 1 1 calc R . . . .
C42 C 0.4110(3) 0.63416(15) 0.3762(2) 0.0572(10) Uani 1 1 d . . . . .
C29 C 0.5202(3) 0.56755(14) 0.5655(3) 0.0541(9) Uani 1 1 d . . . . .
H29 H 0.462592 0.550349 0.537843 0.065 Uiso 1 1 calc R . . . .
C50 C 0.8069(4) 0.67741(18) 0.6456(3) 0.0836(16) Uani 1 1 d . . . . .
H50A H 0.815357 0.665754 0.594646 0.125 Uiso 1 1 calc GR . . . .
H50B H 0.868703 0.691173 0.682513 0.125 Uiso 1 1 calc GR . . . .
H50C H 0.754136 0.699791 0.629480 0.125 Uiso 1 1 calc GR . . . .
O70 O -0.2294(3) 0.68353(15) 0.0029(3) 0.0493(9) Uani 0.733(4) 1 d . U P C 1
C71 C -0.2176(5) 0.6897(2) -0.0606(4) 0.0657(13) Uani 0.733(4) 1 d . U P C 1
N72 N -0.2870(6) 0.7149(3) -0.1241(4) 0.096(2) Uani 0.733(4) 1 d . U P C 1
C74 C -0.2784(10) 0.7256(4) -0.2049(7) 0.160(4) Uani 0.733(4) 1 d . U P C 1
H74A H -0.335314 0.743478 -0.238999 0.240 Uiso 0.733(4) 1 calc R . P C 1
H74B H -0.217527 0.742526 -0.194979 0.240 Uiso 0.733(4) 1 calc R . P C 1
H74C H -0.276433 0.697896 -0.235006 0.240 Uiso 0.733(4) 1 calc R . P C 1
C75 C -0.3716(9) 0.7355(5) -0.1110(9) 0.167(4) Uani 0.733(4) 1 d . U P C 1
H75A H -0.401359 0.757777 -0.155228 0.251 Uiso 0.733(4) 1 calc GR . P C 1
H75B H -0.349516 0.749996 -0.055360 0.251 Uiso 0.733(4) 1 calc GR . P C 1
H75C H -0.420510 0.712501 -0.113512 0.251 Uiso 0.733(4) 1 calc GR . P C 1
C73 C -0.1332(5) 0.6684(3) -0.0790(5) 0.0819(18) Uani 0.733(4) 1 d . U P C 1
H73A H -0.101157 0.646021 -0.035442 0.123 Uiso 0.733(4) 1 calc GR . P C 1
H73B H -0.085039 0.691335 -0.078697 0.123 Uiso 0.733(4) 1 calc GR . P C 1
H73C H -0.158619 0.653968 -0.134631 0.123 Uiso 0.733(4) 1 calc GR . P C 1
O1S O 0.8618(5) 0.58053(19) 0.5673(4) 0.0672(15) Uani 0.5 1 d . U P D 1
N1S N 0.7964(6) 0.5135(2) 0.5744(6) 0.0688(18) Uani 0.5 1 d . U P D 1
C3S C 0.7216(7) 0.5178(3) 0.4914(8) 0.067(2) Uani 0.5 1 d . U P D 1
H3SA H 0.659983 0.528141 0.496495 0.100 Uiso 0.5 1 calc GR . P D 1
H3SB H 0.710533 0.488715 0.462971 0.100 Uiso 0.5 1 calc GR . P D 1
H3SC H 0.743165 0.539342 0.458261 0.100 Uiso 0.5 1 calc GR . P D 1
C2S C 0.9225(8) 0.5415(4) 0.7037(8) 0.087(3) Uani 0.5 1 d . U P D 1
H2SA H 0.884922 0.553543 0.736637 0.130 Uiso 0.5 1 calc GR . P D 1
H2SB H 0.984607 0.558030 0.717532 0.130 Uiso 0.5 1 calc GR . P D 1
H2SC H 0.936821 0.509919 0.717481 0.130 Uiso 0.5 1 calc GR . P D 1
C4S C 0.7815(9) 0.4732(3) 0.6182(9) 0.081(3) Uani 0.5 1 d . U P D 1
H4SA H 0.831408 0.472182 0.675584 0.122 Uiso 0.5 1 calc GR . P D 1
H4SB H 0.787581 0.446617 0.586801 0.122 Uiso 0.5 1 calc GR . P D 1
H4SC H 0.715494 0.473987 0.621462 0.122 Uiso 0.5 1 calc GR . P D 1
C1S C 0.8597(8) 0.5466(3) 0.6057(7) 0.071(2) Uani 0.5 1 d . U P D 1
O80 O -0.2007(11) 0.6750(5) -0.0019(10) 0.0493(9) Uani 0.267(4) 1 d . . P C 2
C80 C -0.2630(14) 0.7063(6) -0.0312(11) 0.0657(13) Uani 0.267(4) 1 d D . P C 2
C81 C -0.3379(14) 0.7199(7) 0.0111(13) 0.0819(18) Uani 0.267(4) 1 d D . P C 2
H81A H -0.324837 0.703273 0.063908 0.123 Uiso 0.267(4) 1 d R . P C 2
H81B H -0.406307 0.714693 -0.026792 0.123 Uiso 0.267(4) 1 d R . P C 2
H81C H -0.327807 0.751803 0.023648 0.123 Uiso 0.267(4) 1 d R . P C 2
C83 C -0.173(2) 0.7183(10) -0.1354(18) 0.160(4) Uani 0.267(4) 1 d D . P C 2
H83A H -0.119859 0.698665 -0.100580 0.240 Uiso 0.267(4) 1 d R . P C 2
H83B H -0.145929 0.747775 -0.139320 0.240 Uiso 0.267(4) 1 d R . P C 2
H83C H -0.203219 0.705514 -0.192320 0.240 Uiso 0.267(4) 1 d R . P C 2
N82 N -0.2466(16) 0.7295(6) -0.0956(12) 0.096(2) Uani 0.267(4) 1 d D . P C 2
C84 C -0.264(2) 0.7783(7) -0.085(2) 0.167(4) Uani 0.267(4) 1 d D . P C 2
H84A H -0.252346 0.795545 -0.129395 0.251 Uiso 0.267(4) 1 calc R . P C 2
H84B H -0.331654 0.782787 -0.087769 0.251 Uiso 0.267(4) 1 calc R . P C 2
H84C H -0.217766 0.788409 -0.029216 0.251 Uiso 0.267(4) 1 calc R . P C 2
C61 C 0.0808(14) 0.4770(6) 0.6042(11) 0.062(4) Uiso 0.25 1 d . . P E 2
H61A H 0.111759 0.496613 0.653041 0.092 Uiso 0.25 1 calc GR . P E 2
H61B H 0.035731 0.494517 0.557195 0.092 Uiso 0.25 1 calc GR . P E 2
H61C H 0.132017 0.463564 0.586945 0.092 Uiso 0.25 1 calc GR . P E 2
O4S O 0.8722(10) 0.5648(5) 0.5080(9) 0.056(3) Uiso 0.2 1 d . . P F 2
C5S C 0.8291(17) 0.5352(8) 0.5342(12) 0.069(5) Uiso 0.2 1 d D . P F 2
N2S N 0.8482(19) 0.5237(9) 0.6170(13) 0.081(7) Uiso 0.2 1 d D . P F 2
C7S C 0.942(2) 0.5471(14) 0.669(2) 0.115(14) Uiso 0.2 1 d D . P F 2
H7SA H 0.958208 0.539748 0.728847 0.173 Uiso 0.2 1 calc R . P F 2
H7SB H 0.995409 0.537306 0.650869 0.173 Uiso 0.2 1 calc R . P F 2
H7SC H 0.932739 0.579369 0.660976 0.173 Uiso 0.2 1 calc R . P F 2
C6S C 0.745(2) 0.5111(14) 0.466(2) 0.105(13) Uiso 0.2 1 d D . P F 2
H6SA H 0.715699 0.488811 0.491952 0.158 Uiso 0.2 1 calc R . P F 2
H6SB H 0.693937 0.532838 0.434659 0.158 Uiso 0.2 1 calc R . P F 2
H6SC H 0.770195 0.496340 0.426153 0.158 Uiso 0.2 1 calc R . P F 2
C8S C 0.818(3) 0.4850(11) 0.657(2) 0.098(12) Uiso 0.2 1 d D . P F 2
H8SA H 0.845894 0.488054 0.718633 0.148 Uiso 0.2 1 calc R . P F 2
H8SB H 0.745568 0.484062 0.638039 0.148 Uiso 0.2 1 calc R . P F 2
H8SC H 0.841779 0.457329 0.640178 0.148 Uiso 0.2 1 calc R . P F 2
loop_
_atom_site_aniso_label
_atom_site_aniso_U_11
_atom_site_aniso_U_22
_atom_site_aniso_U_33
_atom_site_aniso_U_23
_atom_site_aniso_U_13
_atom_site_aniso_U_12
Cu1 0.03477(18) 0.02731(17) 0.03573(18) 0.00136(13) 0.01461(14) 0.00026(13)
Cu2 0.03475(18) 0.02616(17) 0.03678(19) 0.00112(13) 0.01274(14) 0.00055(13)
O9 0.0353(11) 0.0452(12) 0.0449(12) 0.0041(10) 0.0127(9) -0.0041(9)
O7 0.0355(11) 0.0409(12) 0.0492(12) 0.0100(9) 0.0185(9) 0.0008(9)
O2 0.0565(14) 0.0326(11) 0.0444(12) -0.0027(9) 0.0212(10) 0.0031(10)
O4 0.0475(12) 0.0311(11) 0.0454(12) -0.0028(9) 0.0182(10) 0.0007(9)
O10 0.0350(11) 0.0449(12) 0.0553(13) 0.0083(10) 0.0141(10) -0.0015(9)
O8 0.0363(11) 0.0429(12) 0.0462(12) 0.0077(9) 0.0163(9) -0.0027(9)
O5 0.0581(14) 0.0286(10) 0.0468(12) -0.0044(9) 0.0215(11) 0.0028(9)
O3 0.0602(14) 0.0329(11) 0.0404(11) -0.0039(9) 0.0181(10) 0.0008(10)
O1 0.0530(13) 0.0310(10) 0.0436(12) -0.0097(9) 0.0206(10) -0.0045(9)
O60 0.075(2) 0.0590(18) 0.0590(16) 0.0210(14) 0.0063(14) 0.0020(14)
C13 0.0335(14) 0.0338(14) 0.0483(16) -0.0074(12) 0.0209(13) -0.0077(11)
C22 0.0254(12) 0.0318(14) 0.0502(16) -0.0073(12) 0.0159(12) -0.0031(10)
C49 0.0395(15) 0.0328(14) 0.0372(14) -0.0064(11) 0.0157(12) -0.0054(12)
O6 0.0478(15) 0.091(2) 0.0690(18) 0.0301(16) -0.0010(13) -0.0258(15)
C6 0.0407(16) 0.0357(15) 0.0440(16) -0.0086(12) 0.0175(13) 0.0008(12)
C24 0.0292(13) 0.0299(14) 0.0479(16) -0.0057(12) 0.0149(12) -0.0019(11)
C5 0.0379(15) 0.0328(15) 0.0586(19) -0.0111(13) 0.0205(14) -0.0013(12)
C40 0.0396(15) 0.0230(13) 0.0446(15) -0.0042(11) 0.0191(13) -0.0017(11)
C14 0.0338(14) 0.0389(16) 0.0461(16) -0.0079(13) 0.0145(13) -0.0041(12)
C38 0.0389(15) 0.0246(13) 0.0460(16) -0.0005(11) 0.0188(13) 0.0001(11)
C23 0.0313(14) 0.0324(14) 0.0497(17) -0.0064(12) 0.0164(13) -0.0024(11)
C1 0.0354(14) 0.0337(15) 0.0477(16) -0.0114(12) 0.0200(13) -0.0017(11)
C8 0.0422(17) 0.0472(19) 0.053(2) -0.0174(15) 0.0174(15) -0.0045(14)
C15 0.0374(15) 0.0341(15) 0.0393(15) -0.0031(12) 0.0179(12) -0.0029(11)
C18 0.0327(14) 0.0318(15) 0.0595(19) -0.0095(13) 0.0173(14) -0.0041(11)
C16 0.0417(17) 0.0346(16) 0.060(2) -0.0136(14) 0.0197(15) -0.0012(13)
C21 0.0330(14) 0.0371(15) 0.0506(17) -0.0036(13) 0.0154(13) -0.0030(12)
C9 0.0374(16) 0.0465(18) 0.0495(18) -0.0144(14) 0.0179(14) -0.0065(13)
C47 0.0367(15) 0.0411(16) 0.0403(15) -0.0060(12) 0.0124(13) -0.0074(12)
C48 0.0404(16) 0.0477(18) 0.0441(17) 0.0030(14) 0.0139(14) -0.0083(14)
C20 0.0415(16) 0.0495(19) 0.0478(17) -0.0089(14) 0.0200(14) -0.0049(14)
C7 0.0428(17) 0.0462(18) 0.055(2) -0.0171(15) 0.0196(15) -0.0064(14)
C12 0.0428(16) 0.0377(16) 0.0479(17) -0.0037(13) 0.0204(14) -0.0037(13)
C17 0.0408(16) 0.0364(17) 0.060(2) -0.0134(15) 0.0203(15) -0.0040(13)
C2 0.0361(15) 0.0368(15) 0.0478(17) -0.0069(13) 0.0197(13) 0.0008(12)
C10 0.0493(19) 0.0428(18) 0.060(2) -0.0215(16) 0.0236(16) -0.0069(14)
C37 0.0420(17) 0.0427(18) 0.065(2) 0.0194(16) 0.0247(16) 0.0025(14)
C34 0.0463(17) 0.0378(16) 0.0553(19) 0.0083(14) 0.0230(15) -0.0034(13)
C3 0.0361(15) 0.0450(17) 0.0465(17) -0.0143(14) 0.0152(13) -0.0017(13)
C39 0.0422(16) 0.0316(14) 0.0467(16) 0.0028(12) 0.0194(14) -0.0018(12)
C4 0.0404(16) 0.0379(16) 0.0557(19) -0.0185(14) 0.0153(14) -0.0052(13)
C43 0.0367(17) 0.065(2) 0.0497(19) 0.0072(17) 0.0076(14) -0.0098(15)
C19 0.0424(17) 0.0422(18) 0.061(2) -0.0189(15) 0.0215(16) -0.0062(14)
C28 0.0380(16) 0.059(2) 0.0538(19) 0.0096(16) 0.0186(15) -0.0059(15)
C27 0.0399(17) 0.054(2) 0.0539(19) 0.0163(16) 0.0187(15) -0.0063(14)
C33 0.0437(18) 0.055(2) 0.063(2) 0.0126(17) 0.0208(16) -0.0063(16)
C35 0.0370(17) 0.060(2) 0.082(3) 0.026(2) 0.0239(18) -0.0037(15)
C30 0.0460(19) 0.057(2) 0.067(2) 0.0182(18) 0.0291(17) -0.0037(16)
C45 0.0450(19) 0.071(3) 0.056(2) 0.0142(19) 0.0140(16) -0.0149(17)
C44 0.0401(18) 0.081(3) 0.060(2) 0.016(2) 0.0087(16) -0.0173(18)
C32 0.050(2) 0.062(2) 0.069(2) 0.0201(19) 0.0248(18) -0.0064(17)
C25 0.065(2) 0.0360(16) 0.0538(19) -0.0084(14) 0.0316(17) -0.0098(15)
C11 0.0498(19) 0.0338(16) 0.062(2) -0.0077(15) 0.0209(16) -0.0016(14)
C46 0.0409(17) 0.0515(19) 0.0421(16) 0.0039(14) 0.0095(14) -0.0083(14)
C36 0.0418(19) 0.069(3) 0.087(3) 0.041(2) 0.0207(19) 0.0089(18)
C41 0.0430(18) 0.068(2) 0.058(2) 0.0122(18) 0.0164(17) -0.0094(17)
C26 0.0381(17) 0.063(2) 0.061(2) 0.0162(18) 0.0126(16) -0.0095(16)
C31 0.0454(19) 0.063(2) 0.059(2) 0.0208(18) 0.0156(17) -0.0039(17)
C42 0.0389(18) 0.073(3) 0.052(2) 0.0109(18) 0.0074(16) -0.0147(17)
C29 0.0377(17) 0.063(2) 0.062(2) 0.0129(18) 0.0177(16) -0.0106(16)
C50 0.057(3) 0.089(3) 0.088(3) 0.024(3) 0.007(2) -0.030(2)
O70 0.048(3) 0.045(2) 0.0529(16) 0.0141(16) 0.0165(17) 0.0223(17)
C71 0.074(3) 0.059(3) 0.072(3) 0.021(3) 0.035(3) 0.010(2)
N72 0.105(4) 0.108(4) 0.083(4) 0.045(3) 0.042(3) 0.038(3)
C74 0.207(9) 0.185(8) 0.107(5) 0.074(6) 0.080(5) 0.065(7)
C75 0.128(6) 0.201(9) 0.189(8) 0.033(7) 0.076(6) 0.087(6)
C73 0.078(4) 0.099(5) 0.080(4) 0.023(3) 0.043(3) 0.022(3)
O1S 0.069(4) 0.050(3) 0.073(4) 0.014(3) 0.014(3) 0.007(3)
N1S 0.073(4) 0.044(3) 0.097(5) 0.031(3) 0.039(4) 0.017(3)
C3S 0.052(4) 0.047(4) 0.102(6) 0.014(4) 0.029(4) 0.004(3)
C2S 0.068(6) 0.084(7) 0.092(6) 0.032(5) 0.009(5) 0.038(5)
C4S 0.074(6) 0.053(5) 0.125(9) 0.040(6) 0.045(7) 0.018(4)
C1S 0.069(5) 0.050(4) 0.091(5) 0.020(4) 0.026(4) 0.019(3)
O80 0.048(3) 0.045(2) 0.0529(16) 0.0141(16) 0.0165(17) 0.0223(17)
C80 0.074(3) 0.059(3) 0.072(3) 0.021(3) 0.035(3) 0.010(2)
C81 0.078(4) 0.099(5) 0.080(4) 0.023(3) 0.043(3) 0.022(3)
C83 0.207(9) 0.185(8) 0.107(5) 0.074(6) 0.080(5) 0.065(7)
N82 0.105(4) 0.108(4) 0.083(4) 0.045(3) 0.042(3) 0.038(3)
C84 0.128(6) 0.201(9) 0.189(8) 0.033(7) 0.076(6) 0.087(6)
loop_
_atom_type_symbol
_atom_type_description
_atom_type_scat_dispersion_real
_atom_type_scat_dispersion_imag
_atom_type_scat_source
C C 0.0033 0.0016 'International Tables Vol C Tables 4.2.6.8 and 6.1.1.4'
H H 0.0000 0.0000 'International Tables Vol C Tables 4.2.6.8 and 6.1.1.4'
Cu Cu 0.3201 1.2651 'International Tables Vol C Tables 4.2.6.8 and 6.1.1.4'
N N 0.0061 0.0033 'International Tables Vol C Tables 4.2.6.8 and 6.1.1.4'
O O 0.0106 0.0060 'International Tables Vol C Tables 4.2.6.8 and 6.1.1.4'
loop_
_geom_angle_atom_site_label_1
_geom_angle_atom_site_label_2
_geom_angle_atom_site_label_3
_geom_angle
_geom_angle_site_symmetry_1
_geom_angle_site_symmetry_3
_geom_angle_publ_flag
O9 Cu1 Cu2 85.15(7) . 3_566 ?
O9 Cu1 O4 90.17(10) . 3_566 ?
O9 Cu1 O70 99.25(14) . . ?
O9 Cu1 O80 89.6(4) . . ?
O7 Cu1 Cu2 82.85(6) 3_566 3_566 ?
O7 Cu1 O9 167.92(9) 3_566 . ?
O7 Cu1 O4 89.79(10) 3_566 3_566 ?
O7 Cu1 O70 92.73(14) 3_566 . ?
O7 Cu1 O80 102.4(4) 3_566 . ?
O2 Cu1 Cu2 85.52(7) . 3_566 ?
O2 Cu1 O9 88.46(10) . . ?
O2 Cu1 O7 89.21(10) . 3_566 ?
O2 Cu1 O4 168.67(9) . 3_566 ?
O2 Cu1 O70 93.76(14) . . ?
O2 Cu1 O80 103.7(4) . . ?
O4 Cu1 Cu2 83.16(7) 3_566 3_566 ?
O4 Cu1 O70 97.56(14) 3_566 . ?
O4 Cu1 O80 87.6(4) 3_566 . ?
O70 Cu1 Cu2 175.53(12) . 3_566 ?
O10 Cu2 Cu1 83.10(7) 3_566 3_566 ?
O10 Cu2 O60 94.71(12) 3_566 . ?
O8 Cu2 Cu1 85.62(6) . 3_566 ?
O8 Cu2 O10 168.72(9) . 3_566 ?
O8 Cu2 O60 96.55(11) . . ?
O5 Cu2 Cu1 85.24(7) . 3_566 ?
O5 Cu2 O10 90.28(10) . 3_566 ?
O5 Cu2 O8 89.10(10) . . ?
O5 Cu2 O60 96.98(11) . . ?
O3 Cu2 Cu1 82.86(7) 3_566 3_566 ?
O3 Cu2 O10 88.70(10) 3_566 3_566 ?
O3 Cu2 O8 89.59(10) 3_566 . ?
O3 Cu2 O5 168.10(10) 3_566 . ?
O3 Cu2 O60 94.92(11) 3_566 . ?
O60 Cu2 Cu1 176.90(9) . 3_566 ?
C49 O9 Cu1 121.3(2) . . ?
C40 O7 Cu1 123.8(2) . 3_566 ?
C15 O2 Cu1 120.6(2) . . ?
C24 O4 Cu1 123.0(2) . 3_566 ?
C49 O10 Cu2 123.5(2) . 3_566 ?
C40 O8 Cu2 121.13(19) . . ?
C24 O5 Cu2 121.54(19) . . ?
C15 O3 Cu2 124.6(2) . 3_566 ?
C1 O1 C25 117.4(3) . . ?
C61 O60 Cu2 122.2(8) . . ?
C14 C13 C15 119.3(3) . . ?
C14 C13 C12 120.4(3) . . ?
C12 C13 C15 120.4(3) . . ?
C23 C22 C24 119.0(3) . . ?
C21 C22 C24 120.5(3) . . ?
C21 C22 C23 120.5(3) . . ?
O9 C49 O10 126.4(3) . . ?
O9 C49 C47 117.4(3) . . ?
O10 C49 C47 116.2(3) . . ?
C26 O6 C50 115.6(3) . . ?
C1 C6 C5 120.4(3) . . ?
O4 C24 C22 116.9(3) . . ?
O5 C24 O4 126.6(3) . . ?
O5 C24 C22 116.5(3) . . ?
C6 C5 C16 120.1(3) . . ?
C4 C5 C6 119.3(3) . . ?
C4 C5 C16 120.5(3) . . ?
O7 C40 C38 116.7(3) . . ?
O8 C40 O7 126.3(3) . . ?
O8 C40 C38 117.0(3) . . ?
C13 C14 C9 120.4(3) . . ?
C37 C38 C40 120.2(3) . . ?
C37 C38 C39 119.7(3) . . ?
C39 C38 C40 120.1(3) . . ?
C22 C23 C18 120.0(3) . . ?
O1 C1 C6 115.1(3) . . ?
O1 C1 C2 124.3(3) . . ?
C2 C1 C6 120.7(3) . . ?
C7 C8 C9 177.0(4) . . ?
O2 C15 C13 117.5(3) . . ?
O3 C15 O2 126.1(3) . . ?
O3 C15 C13 116.4(3) . . ?
C23 C18 C17 119.8(3) . . ?
C23 C18 C19 118.8(3) . . ?
C19 C18 C17 121.4(3) . . ?
C17 C16 C5 178.6(4) . . ?
C20 C21 C22 119.3(3) . . ?
C14 C9 C8 120.0(3) . . ?
C14 C9 C10 118.6(3) . . ?
C10 C9 C8 121.5(3) . . ?
C48 C47 C49 119.0(3) . . ?
C48 C47 C46 120.1(3) . . ?
C46 C47 C49 121.0(3) . . ?
C47 C48 C43 120.5(3) . . ?
C19 C20 C21 120.8(3) . . ?
C8 C7 C3 178.0(4) . . ?
C11 C12 C13 119.4(3) . . ?
C16 C17 C18 179.3(3) . . ?
C1 C2 C3 119.0(3) . . ?
C11 C10 C9 120.6(3) . . ?
C38 C37 C36 120.0(3) . . ?
C39 C34 C33 120.9(3) . . ?
C35 C34 C39 119.5(3) . . ?
C35 C34 C33 119.6(3) . . ?
C2 C3 C7 118.8(3) . . ?
C4 C3 C7 120.9(3) . . ?
C4 C3 C2 120.3(3) . . ?
C38 C39 C34 120.5(3) . . ?
C5 C4 C3 120.3(3) . . ?
C48 C43 C44 118.7(3) . . ?
C48 C43 C42 119.2(3) . . ?
C44 C43 C42 122.0(3) . . ?
C20 C19 C18 120.6(3) . . ?
C27 C28 C41 119.1(3) . . ?
C29 C28 C27 120.3(3) . . ?
C29 C28 C41 120.7(3) . . ?
C26 C27 C28 119.1(3) . . ?
C32 C33 C34 176.0(5) . . ?
C34 C35 C36 120.0(3) . . ?
C31 C30 C32 119.7(4) . . ?
C29 C30 C32 120.1(3) . . ?
C29 C30 C31 120.2(3) . . ?
C46 C45 C44 120.1(3) . . ?
C45 C44 C43 120.6(3) . . ?
C33 C32 C30 176.8(5) . . ?
C10 C11 C12 120.6(3) . . ?
C45 C46 C47 120.0(3) . . ?
C37 C36 C35 120.3(3) . . ?
C42 C41 C28 176.9(5) . . ?
O6 C26 C27 123.7(3) . . ?
O6 C26 C31 115.3(3) . . ?
C27 C26 C31 120.9(3) . . ?
C30 C31 C26 119.5(3) . . ?
C41 C42 C43 175.1(4) . . ?
C30 C29 C28 119.9(3) . . ?
C71 O70 Cu1 137.2(4) . . ?
O70 C71 N72 119.3(6) . . ?
O70 C71 C73 121.7(6) . . ?
N72 C71 C73 118.8(6) . . ?
C71 N72 C74 123.9(8) . . ?
C71 N72 C75 121.4(8) . . ?
C74 N72 C75 114.5(8) . . ?
C3S N1S C4S 111.6(9) . . ?
C1S N1S C3S 119.7(7) . . ?
C1S N1S C4S 128.2(10) . . ?
O1S C1S N1S 124.1(10) . . ?
O1S C1S C2S 121.6(10) . . ?
N1S C1S C2S 113.6(10) . . ?
C80 O80 Cu1 127.6(11) . . ?
O80 C80 C81 122.0(13) . . ?
O80 C80 N82 112.1(17) . . ?
N82 C80 C81 125.4(17) . . ?
C80 N82 C83 126.7(18) . . ?
C80 N82 C84 107.9(17) . . ?
C83 N82 C84 116.9(14) . . ?
O4S C5S N2S 127(2) . . ?
O4S C5S C6S 115(2) . . ?
N2S C5S C6S 118(2) . . ?
C5S N2S C7S 107(2) . . ?
C5S N2S C8S 133(3) . . ?
C8S N2S C7S 117(3) . . ?
loop_
_geom_bond_atom_site_label_1
_geom_bond_atom_site_label_2
_geom_bond_distance
_geom_bond_site_symmetry_2
_geom_bond_publ_flag
Cu1 Cu2 2.6345(5) 3_566 ?
Cu1 O9 1.962(2) . ?
Cu1 O7 1.960(2) 3_566 ?
Cu1 O2 1.959(2) . ?
Cu1 O4 1.966(2) 3_566 ?
Cu1 O70 2.121(4) . ?
Cu1 O80 2.048(15) . ?
Cu2 O10 1.959(2) 3_566 ?
Cu2 O8 1.952(2) . ?
Cu2 O5 1.949(2) . ?
Cu2 O3 1.947(2) 3_566 ?
Cu2 O60 2.142(3) . ?
O9 C49 1.250(4) . ?
O7 C40 1.260(4) . ?
O2 C15 1.262(4) . ?
O4 C24 1.258(4) . ?
O10 C49 1.259(4) . ?
O8 C40 1.257(4) . ?
O5 C24 1.255(4) . ?
O3 C15 1.255(4) . ?
O1 C1 1.357(3) . ?
O1 C25 1.435(4) . ?
O60 C61 1.325(17) . ?
C13 C14 1.383(4) . ?
C13 C15 1.498(4) . ?
C13 C12 1.393(4) . ?
C22 C24 1.508(4) . ?
C22 C23 1.388(4) . ?
C22 C21 1.384(4) . ?
C49 C47 1.508(4) . ?
O6 C26 1.364(4) . ?
O6 C50 1.444(5) . ?
C6 C5 1.395(4) . ?
C6 C1 1.390(4) . ?
C5 C16 1.444(5) . ?
C5 C4 1.390(5) . ?
C40 C38 1.498(4) . ?
C14 C9 1.394(4) . ?
C38 C37 1.378(4) . ?
C38 C39 1.383(4) . ?
C23 C18 1.393(4) . ?
C1 C2 1.385(5) . ?
C8 C9 1.437(5) . ?
C8 C7 1.189(5) . ?
C18 C17 1.440(5) . ?
C18 C19 1.393(5) . ?
C16 C17 1.188(5) . ?
C21 C20 1.379(4) . ?
C9 C10 1.406(5) . ?
C47 C48 1.378(5) . ?
C47 C46 1.394(5) . ?
C48 C43 1.393(5) . ?
C20 C19 1.371(5) . ?
C7 C3 1.441(5) . ?
C12 C11 1.383(4) . ?
C2 C3 1.404(4) . ?
C10 C11 1.374(5) . ?
C37 C36 1.384(5) . ?
C34 C39 1.393(4) . ?
C34 C33 1.438(5) . ?
C34 C35 1.376(5) . ?
C3 C4 1.393(5) . ?
C43 C44 1.395(5) . ?
C43 C42 1.423(5) . ?
C28 C27 1.403(5) . ?
C28 C41 1.440(5) . ?
C28 C29 1.389(5) . ?
C27 C26 1.374(5) . ?
C33 C32 1.179(5) . ?
C35 C36 1.386(5) . ?
C30 C32 1.449(5) . ?
C30 C31 1.391(5) . ?
C30 C29 1.382(5) . ?
C45 C44 1.386(5) . ?
C45 C46 1.373(5) . ?
C41 C42 1.188(5) . ?
C26 C31 1.392(5) . ?
O70 C71 1.140(7) . ?
C71 N72 1.371(9) . ?
C71 C73 1.482(9) . ?
N72 C74 1.424(11) . ?
N72 C75 1.432(11) . ?
O1S C1S 1.190(11) . ?
N1S C3S 1.408(13) . ?
N1S C4S 1.445(10) . ?
N1S C1S 1.297(13) . ?
C2S C1S 1.553(15) . ?
O80 C80 1.247(19) . ?
C80 C81 1.53(2) . ?
C80 N82 1.358(10) . ?
C83 N82 1.464(10) . ?
N82 C84 1.476(10) . ?
O4S C5S 1.23(2) . ?
C5S N2S 1.343(10) . ?
C5S C6S 1.500(10) . ?
N2S C7S 1.466(10) . ?
N2S C8S 1.459(10) . ?
loop_
_platon_squeeze_void_nr
_platon_squeeze_void_average_x
_platon_squeeze_void_average_y
_platon_squeeze_void_average_z
_platon_squeeze_void_volume
_platon_squeeze_void_count_electrons
_platon_squeeze_void_content
1 0.000 0.000 0.500 743 189 ' '
2 -0.500 0.500 0.000 742 189 ' '
