#------------------------------------------------------------------------------
#$Date: 2020-06-05 12:42:00 +0300 (Fri, 05 Jun 2020) $
#$Revision: 252681 $
#$URL: file:///home/coder/svn-repositories/cod/cif/7/12/64/7126485.cif $
#------------------------------------------------------------------------------
#
# This file is available in the Crystallography Open Database (COD),
# http://www.crystallography.net/
#
# All data on this site have been placed in the public domain by the
# contributors.
#
data_7126485
loop_
_publ_author_name
'Chen, Jing'
'Chao, Meng-Yao'
'Yan Liu, ?'
'Xu, Bo-Wei'
'Zhang, Wen-Hua'
'Young, David J.'
_publ_section_title
;
 An N,N'-diethylformamide solvent-induced conversion cascade within a
 metal-organic framework single crystal.
;
_journal_issue                   44
_journal_name_full
'Chemical communications (Cambridge, England)'
_journal_page_first              5877
_journal_page_last               5880
_journal_paper_doi               10.1039/d0cc02420a
_journal_volume                  56
_journal_year                    2020
_chemical_formula_sum            'C81.1 H58.4 Cd3 Cl3 N4.5 O13.7'
_chemical_formula_weight         1758.67
_space_group_crystal_system      triclinic
_space_group_IT_number           2
_space_group_name_Hall           '-P 1'
_space_group_name_H-M_alt        'P -1'
_atom_sites_solution_hydrogens   geom
_audit_creation_method           SHELXL-2016/6
_audit_update_record
;
2020-01-17 deposited with the CCDC.	2020-04-28 downloaded from the CCDC.
;
_cell_angle_alpha                89.551(12)
_cell_angle_beta                 69.596(11)
_cell_angle_gamma                62.889(9)
_cell_formula_units_Z            2
_cell_length_a                   16.360(7)
_cell_length_b                   17.031(7)
_cell_length_c                   19.943(9)
_cell_measurement_reflns_used    9815
_cell_measurement_temperature    210(2)
_cell_measurement_theta_max      25.86
_cell_measurement_theta_min      2.36
_cell_volume                     4559(3)
_computing_cell_refinement       'Bruker ApexII'
_computing_data_collection       'Bruker ApexII'
_computing_data_reduction        'Bruker ApexII'
_computing_molecular_graphics    'SHELXL-2016/6 (Sheldrick, 2016)'
_computing_publication_material  'publCIF (Westrip, 2010)'
_computing_structure_refinement  'SHELXL-2016/6 (Sheldrick, 2016)'
_computing_structure_solution    'SHELXL-2016/6 (Sheldrick, 2016)'
_diffrn_ambient_temperature      210(2)
_diffrn_measured_fraction_theta_full 0.999
_diffrn_measured_fraction_theta_max 0.999
_diffrn_measurement_device_type  'Bruker Apex II'
_diffrn_measurement_method       'phi and omega scans'
_diffrn_radiation_type           MoK\a
_diffrn_radiation_wavelength     0.71073
_diffrn_reflns_av_R_equivalents  0.0983
_diffrn_reflns_av_unetI/netI     0.0906
_diffrn_reflns_Laue_measured_fraction_full 0.999
_diffrn_reflns_Laue_measured_fraction_max 0.999
_diffrn_reflns_limit_h_max       20
_diffrn_reflns_limit_h_min       -20
_diffrn_reflns_limit_k_max       21
_diffrn_reflns_limit_k_min       -21
_diffrn_reflns_limit_l_max       24
_diffrn_reflns_limit_l_min       -24
_diffrn_reflns_number            98376
_diffrn_reflns_point_group_measured_fraction_full 0.999
_diffrn_reflns_point_group_measured_fraction_max 0.999
_diffrn_reflns_theta_full        25.242
_diffrn_reflns_theta_max         26.022
_diffrn_reflns_theta_min         2.198
_diffrn_standards_decay_%        0
_diffrn_standards_interval_count 0
_diffrn_standards_interval_time  0
_diffrn_standards_number         0
_exptl_absorpt_coefficient_mu    0.837
_exptl_absorpt_correction_T_max  0.920
_exptl_absorpt_correction_T_min  0.860
_exptl_absorpt_correction_type   multi-scan
_exptl_absorpt_process_details
;
 Sheldrick, G.M. SADABS (Program for Scaling and Correction of Area Detector
 Data), version 2008/1; University of G\"ottingen: G\"ottingen, Germany, 2008.
;
_exptl_crystal_colour            colourless
_exptl_crystal_density_diffrn    1.281
_exptl_crystal_description       block
_exptl_crystal_F_000             1762
_exptl_crystal_size_max          0.200
_exptl_crystal_size_mid          0.150
_exptl_crystal_size_min          0.100
_refine_diff_density_max         1.821
_refine_diff_density_min         -2.602
_refine_diff_density_rms         0.170
_refine_ls_extinction_method     none
_refine_ls_goodness_of_fit_ref   1.134
_refine_ls_hydrogen_treatment    constr
_refine_ls_matrix_type           full
_refine_ls_number_parameters     992
_refine_ls_number_reflns         17941
_refine_ls_number_restraints     292
_refine_ls_restrained_S_all      1.129
_refine_ls_R_factor_all          0.1704
_refine_ls_R_factor_gt           0.1155
_refine_ls_shift/su_max          0.000
_refine_ls_shift/su_mean         0.000
_refine_ls_structure_factor_coef Fsqd
_refine_ls_weighting_details
'w=1/[\s^2^(Fo^2^)+(0.0739P)^2^+85.0674P] where P=(Fo^2^+2Fc^2^)/3'
_refine_ls_weighting_scheme      calc
_refine_ls_wR_factor_gt          0.2686
_refine_ls_wR_factor_ref         0.2945
_reflns_Friedel_coverage         0.000
_reflns_number_gt                11080
_reflns_number_total             17941
_reflns_threshold_expression     'I > 2\s(I)'
_cod_data_source_file            d0cc02420a2.cif
_cod_data_source_block           CD3-100S
_cod_depositor_comments
'Adding full bibliography for 7126483--7126489.cif.'
_cod_original_formula_sum        'C81.10 H58.40 Cd3 Cl3 N4.50 O13.70'
_cod_database_code               7126485
_publcif_datablock.id            {5d136d1e-223c-4d35-9bf5-fbf9640c20d1}
_shelx_shelxl_version_number     2016/6
_shelx_space_group_comment
;
The symmetry employed for this shelxl refinement is uniquely defined
by the following loop, which should always be used as a source of
symmetry information in preference to the above space-group names.
They are only intended as comments.
;
_shelx_estimated_absorpt_t_min   0.850
_shelx_estimated_absorpt_t_max   0.921
_shelx_res_file
;
TITL t_a.res in P-1
    T.res
    created by SHELXL-2016/6 at 12:05:26 on 11-Oct-2019
REM Old TITL B181001D_0m_a.res in P-1
REM SHELXT solution in P-1: R1 0.256, Rweak 0.043, Alpha 0.150
REM <I/s> 0.000 for 0 systematic absences, Orientation as input
REM Formula found by SHELXT: C82 N19 O16 Cd3
CELL 0.71073 16.3605 17.0309 19.9428 89.551 69.596 62.889
ZERR 2 0.0069 0.0073 0.0087 0.012 0.011 0.009
LATT 1
SFAC C H N O Cd Cl
UNIT 162.2 116.8 9 27.4 6 6

L.S. 50
PLAN  10
SIZE 0.1 0.15 0.2
TEMP -63
BOND $H
list 4
fmap 2
acta
DFIX 1.42 0.02 C46 C47 C42 C45
DFIX 1.30 0.02 C45 C46
DFIX 1.28 0.02 N5 C52 N6 C84
DFIX 1.30 0.02 C52 O8 O16 C84
DFIX 1.52 0.02 C55 C56 C53 C54 C85 C86 C87 C88
DFIX 1.45 0.02 N5 C56 N5 C54 N6 C86 N6 C88
DANG 2.50 0.04 C54 C56 C86 C88
DANG 2.55 0.04 N5 C53 N5 C55 N6 C85 N6 C87
DANG 2.40 0.04 C52 C56 C52 C54 C84 C86 C84 C88
SADI 0.02 C89 CL1 C89 CL2 C89 CL3 C89 CL1A C89 CL2A C89 CL3A
EADP O16 N6 C84 C85 C86 C87 C88
SIMU C89 > CL3A
DELU C89 > CL3A
SIMU O8 N5 C52 C53 C54 C55 C56
DELU O8 N5 C52 C53 C54 C55 C56
SIMU O15 N3 > C51
DELU O15 N3 > C51
EADP O7 O15 O16 N3
EADP C20 O3 O4
FREE C44 O15
ABIN
SHEL 9999 0.81
WGHT    0.073900   85.067398
FVAR       0.21225   0.77317
CD1   5    0.677313    0.118531    0.444535    11.00000    0.02707    0.02742 =
         0.05124    0.00569   -0.01443   -0.01427
CD2   5    0.773324    0.208335    0.261616    11.00000    0.02466    0.03021 =
         0.04715    0.00685   -0.01294   -0.01470
CD3   5    0.860145    0.299512    0.079108    11.00000    0.02977    0.03976 =
         0.05813    0.00213   -0.01473   -0.01933
O1    4    0.580641    0.162028    0.382768    11.00000    0.03745    0.03567 =
         0.09963    0.03018   -0.04885   -0.01420
O2    4    0.610418    0.255237    0.309684    11.00000    0.01939    0.07343 =
         0.06581    0.01844   -0.01453   -0.02517
O3    4   -0.290680    0.973332    0.407870    11.00000    0.04832    0.01977 =
         0.11163    0.01321   -0.05044   -0.00888
O4    4   -0.200013    0.987500    0.458380    11.00000    0.04832    0.01977 =
         0.11163    0.01321   -0.05044   -0.00888
O5    4   -0.302420    0.232392    0.491114    11.00000    0.05589    0.05152 =
         0.06977    0.00913   -0.01434   -0.04107
O6    4   -0.214259    0.171974    0.375064    11.00000    0.02947    0.03217 =
         0.04486    0.00263   -0.01552   -0.01696
O9    4    0.935334    0.172838    0.212117    11.00000    0.02244    0.09108 =
         0.07200    0.03148   -0.01304   -0.01671
O10   4    0.952711    0.272972    0.144757    11.00000    0.03490    0.03941 =
         0.08289    0.00709   -0.03608   -0.01016
O11   4    1.837025   -0.562208    0.066070    11.00000    0.05988    0.03280 =
         0.27910    0.02590   -0.07130   -0.00967
O12   4    1.702522   -0.548196    0.151611    11.00000    0.16017    0.06521 =
         0.21915    0.06559   -0.10718   -0.07288
O13   4    1.766994    0.233498    0.147260    11.00000    0.04747    0.04911 =
         0.05369    0.00161   -0.01641   -0.03313
O14   4    1.870649    0.158744    0.038516    11.00000    0.15588    0.19580 =
         0.07634   -0.05585    0.04147   -0.15958
N1    3    0.554827    0.139654    0.553915    11.00000    0.02689    0.03687 =
         0.04990   -0.00475   -0.00671   -0.00668
N2    3    0.010017    0.244133    0.977328    11.00000    0.02742    0.06387 =
         0.08520    0.01386   -0.02033   -0.02615
C1    1    0.508968    0.092196    0.566025    11.00000    0.04456    0.07946 =
         0.05455   -0.00666   -0.00770   -0.04078
AFIX  43
H1A   2    0.529194    0.046818    0.527975    11.00000   -1.20000
AFIX   0
C2    1    0.432435    0.103498    0.630878    11.00000    0.03824    0.09145 =
         0.09426    0.00759   -0.02194   -0.04158
AFIX  43
H2A   2    0.404190    0.065324    0.637497    11.00000   -1.20000
AFIX   0
C3    1    0.400235    0.172223    0.684319    11.00000    0.03742    0.10112 =
         0.06176    0.00701   -0.02093   -0.03142
C4    1    0.444430    0.226499    0.673162    11.00000    0.07385    0.12056 =
         0.06156   -0.02246    0.00715   -0.05542
AFIX  43
H4A   2    0.423022    0.274665    0.709185    11.00000   -1.20000
AFIX   0
C5    1    0.520343    0.206963    0.607626    11.00000    0.06577    0.07310 =
         0.06418   -0.01017    0.00260   -0.03774
AFIX  43
H5A   2    0.550665    0.243508    0.599618    11.00000   -1.20000
AFIX   0
C6    1    0.315155    0.196185    0.754731    11.00000    0.05798    0.13232 =
         0.08294    0.03657   -0.03425   -0.05552
AFIX  43
H6A   2    0.294315    0.249508    0.784762    11.00000   -1.20000
AFIX   0
C7    1    0.268955    0.156617    0.778801    11.00000    0.05238    0.11475 =
         0.08689    0.02946   -0.02663   -0.04718
AFIX  43
H7A   2    0.290537    0.101883    0.750381    11.00000   -1.20000
AFIX   0
C8    1    0.179321    0.186356    0.850487    11.00000    0.02301    0.08041 =
         0.10517    0.02324   -0.01832   -0.00921
C9    1    0.149040    0.131096    0.882005    11.00000    0.05684    0.10585 =
         0.18092    0.07125    0.01337   -0.00920
AFIX  43
H9A   2    0.182797    0.070521    0.859716    11.00000   -1.20000
AFIX   0
C10   1    0.067721    0.161101    0.947887    11.00000    0.04161    0.08109 =
         0.12793    0.01271    0.02810   -0.02116
AFIX  43
H10A  2    0.054244    0.118234    0.972217    11.00000   -1.20000
AFIX   0
C11   1    0.033504    0.308000    0.949721    11.00000    0.10444    0.14484 =
         0.05401    0.00577   -0.00709   -0.10384
AFIX  43
H11A  2   -0.006204    0.369153    0.970846    11.00000   -1.20000
AFIX   0
C12   1    0.124275    0.274204    0.885418    11.00000    0.10865    0.13939 =
         0.08670    0.03842   -0.03201   -0.10841
AFIX  43
H12A  2    0.146923    0.314572    0.866430    11.00000   -1.20000
AFIX   0
C13   1    0.555062    0.226119    0.350336    11.00000    0.01855    0.05484 =
         0.05372   -0.00059   -0.01453   -0.01322
C14   1    0.446615    0.275968    0.360134    11.00000    0.01825    0.02806 =
         0.06678    0.00453   -0.02078   -0.00626
C15   1    0.411578    0.347268    0.328464    11.00000    0.03318    0.05215 =
         0.09699    0.01971   -0.03059   -0.02542
AFIX  43
H15A  2    0.455422    0.366949    0.299822    11.00000   -1.20000
AFIX   0
C16   1    0.311790    0.392861    0.336989    11.00000    0.04360    0.04681 =
         0.10614    0.03683   -0.03741   -0.02802
AFIX  43
H16A  2    0.289810    0.441404    0.313036    11.00000   -1.20000
AFIX   0
C17   1    0.245863    0.367080    0.380128    11.00000    0.02535    0.03623 =
         0.09381    0.01237   -0.02490   -0.01871
C18   1    0.283382    0.295261    0.414156    11.00000    0.02214    0.05234 =
         0.09945    0.00843   -0.00787   -0.02116
AFIX  43
H18A  2    0.239254    0.277036    0.444725    11.00000   -1.20000
AFIX   0
C19   1    0.380895    0.249740    0.405580    11.00000    0.02921    0.03997 =
         0.06949    0.02288   -0.02424   -0.01399
AFIX  43
H19A  2    0.403144    0.201654    0.429900    11.00000   -1.20000
AFIX   0
C20   1   -0.221528    0.938759    0.431494    11.00000    0.04832    0.01977 =
         0.11163    0.01321   -0.05044   -0.00888
C21   1   -0.165554    0.839117    0.422986    11.00000    0.03844    0.02772 =
         0.06953    0.01426   -0.03345   -0.01416
C22   1   -0.087558    0.799333    0.446732    11.00000    0.03810    0.02053 =
         0.10284    0.00877   -0.03903   -0.01179
AFIX  43
H22A  2   -0.068417    0.835579    0.465646    11.00000   -1.20000
AFIX   0
C23   1   -0.038421    0.708795    0.443070    11.00000    0.04287    0.02417 =
         0.10602    0.01294   -0.05064   -0.01458
AFIX  43
H23A  2    0.013127    0.683520    0.460305    11.00000   -1.20000
AFIX   0
C24   1   -0.064604    0.652644    0.413453    11.00000    0.03069    0.02704 =
         0.09199    0.00464   -0.03203   -0.01164
C25   1   -0.139866    0.693832    0.388726    11.00000    0.04506    0.02313 =
         0.10493    0.00013   -0.05312   -0.00887
AFIX  43
H25A  2   -0.157048    0.658007    0.367039    11.00000   -1.20000
AFIX   0
C26   1   -0.190212    0.783550    0.394235    11.00000    0.04934    0.02537 =
         0.08034    0.00367   -0.04195   -0.00666
AFIX  43
H26A  2   -0.242981    0.808672    0.378230    11.00000   -1.20000
AFIX   0
C27   1   -0.234476    0.222935    0.430487    11.00000    0.02088    0.02494 =
         0.06300    0.00475   -0.01585   -0.01226
C28   1   -0.180006    0.274722    0.426457    11.00000    0.02600    0.03097 =
         0.05811   -0.00233   -0.01173   -0.01715
C29   1   -0.219714    0.350728    0.474170    11.00000    0.02378    0.04223 =
         0.05851   -0.00276   -0.00821   -0.01777
AFIX  43
H29A  2   -0.283393    0.371906    0.511036    11.00000   -1.20000
AFIX   0
C30   1   -0.168063    0.398886    0.469990    11.00000    0.02805    0.04306 =
         0.07579   -0.00793   -0.01817   -0.01340
AFIX  43
H30A  2   -0.197518    0.452764    0.502532    11.00000   -1.20000
AFIX   0
C31   1   -0.071168    0.364812    0.416022    11.00000    0.02833    0.03916 =
         0.06723    0.00609   -0.02075   -0.02370
C32   1   -0.030919    0.285745    0.368168    11.00000    0.02643    0.02563 =
         0.08002   -0.00484   -0.00540   -0.01490
AFIX  43
H32A  2    0.033801    0.262189    0.332257    11.00000   -1.20000
AFIX   0
C33   1   -0.085205    0.240967    0.372722    11.00000    0.04122    0.04500 =
         0.06168   -0.00071   -0.00962   -0.03432
AFIX  43
H33A  2   -0.057719    0.188110    0.339529    11.00000   -1.20000
AFIX   0
C34   1    0.138786    0.416182    0.391463    11.00000    0.03091    0.02085 =
         0.10104    0.00656   -0.03301   -0.01290
C35   1    0.084297    0.370625    0.397626    11.00000    0.01459    0.01144 =
         0.10563    0.00331   -0.02516   -0.00260
AFIX  43
H35A  2    0.116953    0.307838    0.392919    11.00000   -1.20000
AFIX   0
C36   1   -0.017866    0.416071    0.410654    11.00000    0.02372    0.03348 =
         0.08537    0.00060   -0.02835   -0.01323
C37   1   -0.064265    0.507819    0.417793    11.00000    0.02016    0.02287 =
         0.10565   -0.00235   -0.02687   -0.00756
AFIX  43
H37A  2   -0.132986    0.539260    0.428283    11.00000   -1.20000
AFIX   0
C38   1   -0.012523    0.555704    0.409951    11.00000    0.02974    0.01181 =
         0.09858   -0.00826   -0.03331   -0.00349
C39   1    0.088452    0.507649    0.397272    11.00000    0.04504    0.03770 =
         0.09494    0.01457   -0.03725   -0.03293
AFIX  43
H39A  2    0.123846    0.539430    0.392459    11.00000   -1.20000
AFIX   0
O15   4    0.790615    0.071702    0.253023    10.20000    0.06215    0.03748 =
         0.10017    0.00123   -0.02312   -0.01885
AFIX  66
N3    3    0.859329    0.050505    0.218466    10.80000    0.06215    0.03748 =
         0.10017    0.00123   -0.02312   -0.01885
C40   1    0.947828    0.013377    0.157239    10.80000    0.04445    0.05014 =
         0.09012    0.01916   -0.03313   -0.02220
AFIX  43
H40A  2    0.964483    0.050485    0.126512    10.80000   -1.20000
AFIX  65
C41   1    1.011698   -0.078622    0.141447    10.80000    0.05716    0.05598 =
         0.09678    0.01415   -0.02178   -0.02437
AFIX  43
H41A  2    1.071547   -0.103730    0.100041    10.80000   -1.20000
AFIX  65
C42   1    0.987069   -0.133495    0.186882    10.80000    0.08010    0.04727 =
         0.08000    0.00875   -0.03027   -0.02970
C43   1    0.898571   -0.096368    0.248110    10.80000    0.10494    0.04788 =
         0.06861    0.00234   -0.01869   -0.03630
AFIX  43
H43A  2    0.881916   -0.133476    0.278837    10.80000   -1.20000
AFIX  65
C44   1    0.834699   -0.004368    0.263903    10.80000    0.08353    0.05184 =
         0.07447    0.00325   -0.02512   -0.03653
AFIX  43
H44   2    0.774851    0.020739    0.305309    10.80000   -1.20000
AFIX   0
C45   1    1.055907   -0.230082    0.165822    10.80000    0.07373    0.05996 =
         0.09342    0.01606   -0.02309   -0.02377
AFIX  43
H45A  2    1.111952   -0.246955    0.122387    10.80000   -1.20000
AFIX   0
C46   1    1.052540   -0.297508    0.197563    10.80000    0.10740    0.05790 =
         0.09718    0.02053   -0.03260   -0.01802
AFIX  43
H46A  2    0.996086   -0.278829    0.241013    10.80000   -1.20000
AFIX  66
C47   1    1.114778   -0.391244    0.180770    10.80000    0.13010    0.05980 =
         0.10769    0.01112   -0.06050   -0.04915
C48   1    1.181644   -0.427630    0.109036    10.80000    0.11510    0.07203 =
         0.10173   -0.00697   -0.07900   -0.01688
AFIX  43
H48A  2    1.183561   -0.390072    0.074396    10.80000   -1.20000
AFIX  65
C49   1    1.245673   -0.519552    0.088525    10.80000    0.10197    0.07998 =
         0.13436    0.01177   -0.05578   -0.01712
AFIX  43
H49A  2    1.290891   -0.544158    0.040014    10.80000   -1.20000
AFIX  65
N4    3    1.242838   -0.575089    0.139747    10.80000    0.10419    0.07819 =
         0.13429    0.01634   -0.06100   -0.00261
C50   1    1.175974   -0.538704    0.211481    10.80000    0.14621    0.07330 =
         0.13642    0.01521   -0.05495   -0.00467
AFIX  43
H50A  2    1.174057   -0.576262    0.246121    10.80000   -1.20000
AFIX  65
C51   1    1.111943   -0.446782    0.231994    10.80000    0.15404    0.05011 =
         0.13576    0.01837   -0.05537   -0.04383
AFIX  43
H51A  2    1.066726   -0.422176    0.280505    10.80000   -1.20000
AFIX   0
O8    4    0.749175    0.325429    0.019246    10.50000    0.04070    0.02195 =
         0.06096    0.01599   -0.03897   -0.02089
N5    3    0.592487    0.356125    0.033578    10.50000    0.04589    0.08304 =
         0.12261    0.07078   -0.06547   -0.03435
C52   1    0.657663    0.347372    0.057327    10.50000    0.05114    0.04988 =
         0.11035    0.05227   -0.04902   -0.04235
AFIX  43
H52A  2    0.637352    0.357968    0.108149    10.50000   -1.20000
AFIX   0
C53   1    0.671042    0.236891   -0.081030    10.50000    0.25881    0.14712 =
         0.15333    0.06692   -0.12891   -0.17346
AFIX  33
H53A  2    0.684915    0.234827   -0.132598    10.50000   -1.50000
H53B  2    0.732902    0.202257   -0.074232    10.50000   -1.50000
H53C  2    0.627058    0.211841   -0.060216    10.50000   -1.50000
AFIX   0
C54   1    0.622719    0.330875   -0.044568    10.50000    0.08563    0.11219 =
         0.13116    0.06312   -0.07869   -0.03979
AFIX  23
H54A  2    0.667865    0.354424   -0.069065    10.50000   -1.20000
H54B  2    0.562865    0.363931   -0.055161    10.50000   -1.20000
AFIX   0
C55   1    0.480795    0.288050    0.047159    10.50000    0.03816    0.08587 =
         0.08981    0.03105   -0.04197   -0.02607
AFIX  33
H55A  2    0.414590    0.297967    0.076956    10.50000   -1.50000
H55B  2    0.487842    0.288558   -0.003171    10.50000   -1.50000
H55C  2    0.530110    0.230440    0.051071    10.50000   -1.50000
AFIX   0
C56   1    0.496304    0.362397    0.073347    10.50000    0.03340    0.07837 =
         0.15223    0.03729   -0.05909   -0.01648
AFIX  23
H56A  2    0.444614    0.420181    0.070541    10.50000   -1.20000
H56B  2    0.486779    0.362204    0.124652    10.50000   -1.20000
AFIX   0
C57   1    0.984395    0.204633    0.171397    11.00000    0.03761    0.06633 =
         0.04917   -0.00864   -0.02139   -0.01867
C58   1    1.093335    0.156428    0.156931    11.00000    0.03575    0.04124 =
         0.04746    0.00386   -0.01818   -0.01349
C59   1    1.157405    0.189377    0.117602    11.00000    0.03318    0.03485 =
         0.07307   -0.00215   -0.02273   -0.00719
AFIX  43
H59A  2    1.132954    0.243116    0.099817    11.00000   -1.20000
AFIX   0
C60   1    1.259105    0.139624    0.105645    11.00000    0.03677    0.03239 =
         0.06898    0.00699   -0.02638   -0.01578
AFIX  43
H60A  2    1.301432    0.163051    0.081852    11.00000   -1.20000
AFIX   0
C61   1    1.299801    0.057283    0.127478    11.00000    0.02433    0.02359 =
         0.07349   -0.01216   -0.02248   -0.00255
C62   1    1.237593    0.024116    0.163121    11.00000    0.02076    0.03138 =
         0.08740    0.00843   -0.02258   -0.00366
AFIX  43
H62A  2    1.264016   -0.032421    0.176584    11.00000   -1.20000
AFIX   0
C63   1    1.134611    0.073594    0.179851    11.00000    0.03426    0.05744 =
         0.06736    0.00353   -0.01350   -0.02730
AFIX  43
H63A  2    1.092652    0.051154    0.206699    11.00000   -1.20000
AFIX   0
C64   1    1.749029   -0.515720    0.107889    11.00000    0.12688    0.08843 =
         0.17640    0.01765   -0.09884   -0.06536
C65   1    1.699232   -0.417081    0.103352    11.00000    0.06115    0.03090 =
         0.13502    0.01860   -0.04691   -0.02184
C66   1    1.598702   -0.362567    0.144441    11.00000    0.07142    0.04055 =
         0.09276    0.01288   -0.01977   -0.03764
AFIX  43
H66A  2    1.561697   -0.387073    0.175155    11.00000   -1.20000
AFIX   0
C67   1    1.552468   -0.272928    0.140755    11.00000    0.04451    0.04913 =
         0.07645    0.00519   -0.01434   -0.02820
AFIX  43
H67A  2    1.484417   -0.237136    0.169756    11.00000   -1.20000
AFIX   0
C68   1    1.603676   -0.233647    0.095225    11.00000    0.04505    0.03706 =
         0.07270    0.00129   -0.02729   -0.02085
C69   1    1.705211   -0.289937    0.051565    11.00000    0.03289    0.02984 =
         0.09387   -0.00723   -0.00299   -0.01092
AFIX  43
H69A  2    1.742320   -0.267031    0.018766    11.00000   -1.20000
AFIX   0
C70   1    1.749806   -0.380349    0.057834    11.00000    0.03275    0.03834 =
         0.13672   -0.00816   -0.01549   -0.00451
AFIX  43
H70A  2    1.817795   -0.417269    0.029254    11.00000   -1.20000
AFIX   0
C71   1    1.796642    0.175553    0.093411    11.00000    0.06019    0.07711 =
         0.04903    0.00180   -0.01052   -0.05318
C72   1    1.737880    0.130267    0.093970    11.00000    0.06068    0.08000 =
         0.03660   -0.00257   -0.00741   -0.05266
C73   1    1.774069    0.060788    0.036670    11.00000    0.07360    0.09819 =
         0.05967   -0.01824   -0.00413   -0.06373
AFIX  43
H73A  2    1.836650    0.040614   -0.001362    11.00000   -1.20000
AFIX   0
C74   1    1.714998    0.023077    0.037909    11.00000    0.07169    0.06640 =
         0.05487   -0.00889   -0.01435   -0.05472
AFIX  43
H74A  2    1.738740   -0.023083   -0.000669    11.00000   -1.20000
AFIX   0
C75   1    1.623602    0.048913    0.092107    11.00000    0.04819    0.05058 =
         0.06536    0.01539   -0.03183   -0.03455
C76   1    1.589651    0.114804    0.148797    11.00000    0.05121    0.05505 =
         0.07087    0.00351   -0.02910   -0.03461
AFIX  43
H76A  2    1.528544    0.131946    0.187716    11.00000   -1.20000
AFIX   0
C77   1    1.645664    0.156905    0.149090    11.00000    0.04906    0.06185 =
         0.05016   -0.00924   -0.01082   -0.03679
AFIX  43
H77A  2    1.620299    0.204050    0.187326    11.00000   -1.20000
AFIX   0
C78   1    1.408450    0.005924    0.110962    11.00000    0.01843    0.03234 =
         0.07039   -0.01006   -0.01438   -0.00415
C79   1    1.455419   -0.084818    0.104297    11.00000    0.01934    0.03558 =
         0.07258   -0.01417   -0.00886   -0.00956
AFIX  43
H79A  2    1.418801   -0.114776    0.106129    11.00000   -1.20000
AFIX   0
C80   1    1.555862   -0.136335    0.094807    11.00000    0.03263    0.04098 =
         0.06651    0.00639   -0.02041   -0.02191
C81   1    1.609529   -0.090893    0.088686    11.00000    0.03914    0.04957 =
         0.06431    0.00044   -0.02313   -0.02513
AFIX  43
H81A  2    1.677209   -0.123395    0.081356    11.00000   -1.20000
AFIX   0
C82   1    1.565256    0.001801    0.093171    11.00000    0.03280    0.03441 =
         0.07337    0.00142   -0.02476   -0.01671
C83   1    1.463179    0.051708    0.105891    11.00000    0.04534    0.03338 =
         0.08262   -0.00449   -0.03832   -0.01449
AFIX  43
H83A  2    1.432070    0.114530    0.110916    11.00000   -1.20000
AFIX   0
O7    4    0.741451    0.355778    0.280153    10.60000    0.06215    0.03748 =
         0.10017    0.00123   -0.02312   -0.01885
O16   4    0.724768    0.350972    0.297863    10.40000    0.06215    0.03748 =
         0.10017    0.00123   -0.02312   -0.01885
N6    3    0.628118    0.500764    0.356502    10.40000    0.06215    0.03748 =
         0.10017    0.00123   -0.02312   -0.01885
C84   1    0.712111    0.425677    0.325965    10.40000    0.06215    0.03748 =
         0.10017    0.00123   -0.02312   -0.01885
AFIX  13
H84A  2    0.760140    0.416498    0.348606    10.40000   -1.20000
AFIX   0
C85   1    0.511986    0.458984    0.448855    10.40000    0.06215    0.03748 =
         0.10017    0.00123   -0.02312   -0.01885
AFIX  33
H85A  2    0.450034    0.457449    0.460698    10.40000   -1.50000
H85B  2    0.565623    0.398761    0.442299    10.40000   -1.50000
H85C  2    0.505844    0.497201    0.488137    10.40000   -1.50000
AFIX   0
C86   1    0.534619    0.495840    0.379079    10.40000    0.06215    0.03748 =
         0.10017    0.00123   -0.02312   -0.01885
AFIX  23
H86A  2    0.539021    0.457687    0.340017    10.40000   -1.20000
H86B  2    0.479286    0.556054    0.385821    10.40000   -1.20000
AFIX   0
C87   1    0.568094    0.580877    0.485719    10.40000    0.06215    0.03748 =
         0.10017    0.00123   -0.02312   -0.01885
AFIX  33
H87A  2    0.571523    0.627758    0.509999    10.40000   -1.50000
H87B  2    0.498953    0.598101    0.496490    10.40000   -1.50000
H87C  2    0.598669    0.525429    0.502783    10.40000   -1.50000
AFIX   0
C88   1    0.623423    0.567246    0.403659    10.40000    0.06215    0.03748 =
         0.10017    0.00123   -0.02312   -0.01885
AFIX  23
H88A  2    0.592837    0.624955    0.388497    10.40000   -1.20000
H88B  2    0.692015    0.552676    0.394756    10.40000   -1.20000
AFIX   0
C89   1    0.934190   -0.543759    0.184272    11.00000    0.12926    0.10172 =
         0.10454    0.01696   -0.04709   -0.06465
PART 1
AFIX  13
H89A  2    0.917006   -0.585703    0.166029   -21.00000   -1.20000
AFIX  13
PART 2
H89B  2    0.937171   -0.600247    0.168339   -21.00000   -1.20000
AFIX   0
PART 0

PART 1
CL1   6    0.986417   -0.590099    0.247574    21.00000    0.23648    0.15178 =
         0.13369    0.02656   -0.10918   -0.06111
CL2   6    0.823253   -0.443837    0.232072    21.00000    0.11836    0.11441 =
         0.11236   -0.00074   -0.01912   -0.05426
CL3   6    1.012590   -0.523306    0.110289    21.00000    0.12286    0.12762 =
         0.11680    0.00248   -0.01777   -0.07937
PART 2
CL1A  6    1.039915   -0.582849    0.207197   -21.00000    0.21469    0.11755 =
         0.12937   -0.01863   -0.12400   -0.00301
CL2A  6    0.818974   -0.490367    0.259927   -21.00000    0.20168    0.19046 =
         0.23321    0.05199    0.03584    0.00007
CL3A  6    0.953505   -0.498876    0.103129   -21.00000    0.17278    0.25170 =
         0.16186    0.11006   -0.09569   -0.04296
PART 0

HKLF 4

REM  t_a.res in P-1
REM R1 =  0.1155 for   11080 Fo > 4sig(Fo)  and  0.1704 for all   17941 data
REM    992 parameters refined using    292 restraints

END

WGHT      0.0680     94.3333

REM Highest difference peak  1.821,  deepest hole -2.602,  1-sigma level  0.170
Q1    1   0.4980  0.4115  0.4535  11.00000  0.05    1.82
Q2    1   0.8186  0.1516  0.2684  11.00000  0.05    1.58
Q3    1   0.5659  0.4927  0.2843  11.00000  0.05    1.33
Q4    1   0.6007  0.5687  0.3793  11.00000  0.05    1.33
Q5    1   1.0415 -0.3581  0.2008  11.00000  0.05    1.19
Q6    1   0.9026  0.2540  0.0887  11.00000  0.05    1.17
Q7    1   0.8430  0.3367  0.1234  11.00000  0.05    1.15
Q8    1  -0.2398  0.9519  0.4989  11.00000  0.05    1.11
Q9    1   1.6454 -0.5846  0.2190  11.00000  0.05    1.11
Q10   1   0.5649  0.3927  0.0644  11.00000  0.05    1.11
;
_shelx_res_checksum              29261
_shelx_fab_file
;
    2    0    0    -36.42      0.00
    3    0    0     30.03      0.00
    4    0    0     -3.69      0.00
    5    0    0     -2.74      0.00
    6    0    0      3.22      0.00
    7    0    0      5.05      0.00
    8    0    0     -9.78      0.00
    9    0    0     -0.65      0.00
   10    0    0     -0.38      0.00
   11    0    0      0.67      0.00
   12    0    0      2.73      0.00
   13    0    0      1.62      0.00
   14    0    0      0.65      0.00
   15    0    0      2.87      0.00
   16    0    0     -1.13      0.00
   17    0    0      1.14      0.00
  -17    1    0     -0.49      0.00
  -16    1    0     -0.98      0.00
  -15    1    0      2.37      0.00
  -14    1    0      2.34      0.00
  -13    1    0      0.77      0.00
  -12    1    0      1.10      0.00
  -11    1    0     -0.66      0.00
  -10    1    0     -2.84      0.00
   -9    1    0      6.40      0.00
   -8    1    0      0.23      0.00
   -7    1    0      6.72      0.00
   -6    1    0     -2.53      0.00
   -5    1    0    -17.06      0.00
   -4    1    0      7.55      0.00
   -3    1    0      1.68      0.00
   -2    1    0    -15.74      0.00
   -1    1    0     18.23      0.00
    2    1    0     31.69      0.00
    3    1    0     28.67      0.00
    4    1    0      0.81      0.00
    5    1    0     -5.75      0.00
    6    1    0     13.25      0.00
    7    1    0      2.01      0.00
    8    1    0     -9.23      0.00
    9    1    0     -3.99      0.00
   10    1    0     -5.51      0.00
   11    1    0      2.80      0.00
   12    1    0      3.40      0.00
   13    1    0      1.46      0.00
   14    1    0     -0.24      0.00
   15    1    0      2.04      0.00
   16    1    0     -0.04      0.00
   17    1    0     -0.51      0.00
   18    1    0      1.60      0.00
  -16    2    0     -0.35      0.00
  -15    2    0      1.85      0.00
  -14    2    0      0.32      0.00
  -13    2    0      2.94      0.00
  -12    2    0     -0.70      0.00
  -11    2    0     -1.41      0.00
  -10    2    0     -1.99      0.00
   -9    2    0      6.35      0.00
   -8    2    0      4.55      0.00
   -7    2    0      2.89      0.00
   -6    2    0     -0.42      0.00
   -5    2    0      1.32      0.00
   -4    2    0    -18.25      0.00
   -3    2    0     -7.14      0.00
   -2    2    0      9.51      0.00
   -1    2    0     29.02      0.00
    0    2    0     48.44      0.00
    1    2    0    -67.68      0.00
    2    2    0    102.72      0.00
    3    2    0     35.19      0.00
    4    2    0     20.23      0.00
    5    2    0      9.06      0.00
    6    2    0     -1.93      0.00
    7    2    0      2.69      0.00
    8    2    0     -6.09      0.00
    9    2    0      1.52      0.00
   10    2    0     -5.00      0.00
   11    2    0     -0.43      0.00
   12    2    0      1.51      0.00
   13    2    0      2.55      0.00
   14    2    0     -0.01      0.00
   15    2    0      0.10      0.00
   16    2    0     -1.56      0.00
   17    2    0      1.86      0.00
   18    2    0      0.17      0.00
  -16    3    0     -1.62      0.00
  -15    3    0     -1.04      0.00
  -14    3    0      2.11      0.00
  -13    3    0      0.54      0.00
  -12    3    0     -0.02      0.00
  -11    3    0      0.43      0.00
  -10    3    0      0.17      0.00
   -9    3    0      4.81      0.00
   -8    3    0      1.94      0.00
   -7    3    0     -0.09      0.00
   -6    3    0     -0.27      0.00
   -5    3    0      8.60      0.00
   -4    3    0     -9.13      0.00
   -3    3    0    -12.82      0.00
   -2    3    0     16.94      0.00
   -1    3    0     -6.99      0.00
    0    3    0     17.23      0.00
    1    3    0     -2.97      0.00
    2    3    0      2.26      0.00
    3    3    0     40.54      0.00
    4    3    0     20.16      0.00
    5    3    0     27.53      0.00
    6    3    0     10.79      0.00
    7    3    0     -9.90      0.00
    8    3    0     -0.80      0.00
    9    3    0     -2.52      0.00
   10    3    0     -0.68      0.00
   11    3    0      3.07      0.00
   12    3    0      0.23      0.00
   13    3    0      1.66      0.00
   14    3    0     -0.56      0.00
   15    3    0     -1.63      0.00
   16    3    0     -0.48      0.00
   17    3    0      2.44      0.00
   18    3    0     -0.61      0.00
  -15    4    0     -4.22      0.00
  -14    4    0      2.11      0.00
  -13    4    0     -1.94      0.00
  -12    4    0     -1.33      0.00
  -11    4    0      4.30      0.00
  -10    4    0     -1.03      0.00
   -9    4    0      6.54      0.00
   -8    4    0      0.92      0.00
   -7    4    0      0.53      0.00
   -6    4    0     -0.80      0.00
   -5    4    0     -0.03      0.00
   -4    4    0     -6.49      0.00
   -3    4    0      7.63      0.00
   -2    4    0      7.29      0.00
   -1    4    0     -8.25      0.00
    0    4    0    -15.20      0.00
    1    4    0    -20.84      0.00
    2    4    0     44.66      0.00
    3    4    0     -7.33      0.00
    4    4    0     23.74      0.00
    5    4    0     15.07      0.00
    6    4    0      9.99      0.00
    7    4    0      9.30      0.00
    8    4    0      2.39      0.00
    9    4    0     -8.68      0.00
   10    4    0     -4.68      0.00
   11    4    0      4.69      0.00
   12    4    0      2.24      0.00
   13    4    0      1.05      0.00
   14    4    0     -0.97      0.00
   15    4    0     -1.13      0.00
   16    4    0     -0.45      0.00
   17    4    0      1.12      0.00
   18    4    0     -2.44      0.00
   19    4    0      0.17      0.00
  -15    5    0     -0.64      0.00
  -14    5    0     -4.14      0.00
  -13    5    0     -6.08      0.00
  -12    5    0      3.62      0.00
  -11    5    0      0.73      0.00
  -10    5    0      0.27      0.00
   -9    5    0      2.81      0.00
   -8    5    0      2.42      0.00
   -7    5    0      4.59      0.00
   -6    5    0     -6.98      0.00
   -5    5    0      1.07      0.00
   -4    5    0     -1.40      0.00
   -3    5    0     -2.70      0.00
   -2    5    0     16.12      0.00
   -1    5    0     -2.83      0.00
    0    5    0    -29.21      0.00
    1    5    0    -17.41      0.00
    2    5    0     14.42      0.00
    3    5    0      9.67      0.00
    4    5    0     15.31      0.00
    5    5    0     15.13      0.00
    6    5    0     -9.78      0.00
    7    5    0     17.04      0.00
    8    5    0     12.20      0.00
    9    5    0     -5.48      0.00
   10    5    0      1.15      0.00
   11    5    0     -0.75      0.00
   12    5    0     -4.74      0.00
   13    5    0      0.47      0.00
   14    5    0      1.63      0.00
   15    5    0      0.05      0.00
   16    5    0     -0.86      0.00
   17    5    0     -3.37      0.00
   18    5    0      0.36      0.00
   19    5    0      2.88      0.00
  -14    6    0     -0.93      0.00
  -13    6    0     -5.70      0.00
  -12    6    0      0.97      0.00
  -11    6    0      0.82      0.00
  -10    6    0     -0.56      0.00
   -9    6    0     -1.53      0.00
   -8    6    0      1.64      0.00
   -7    6    0      5.46      0.00
   -6    6    0    -12.80      0.00
   -5    6    0      5.41      0.00
   -4    6    0      9.48      0.00
   -3    6    0     -2.94      0.00
   -2    6    0     -2.99      0.00
   -1    6    0     -0.56      0.00
    0    6    0    -15.62      0.00
    1    6    0    -12.35      0.00
    2    6    0      6.54      0.00
    3    6    0     -5.63      0.00
    4    6    0     13.03      0.00
    5    6    0      1.39      0.00
    6    6    0      9.09      0.00
    7    6    0      7.19      0.00
    8    6    0      2.91      0.00
    9    6    0      0.40      0.00
   10    6    0     11.88      0.00
   11    6    0      3.58      0.00
   12    6    0     -8.14      0.00
   13    6    0     -4.34      0.00
   14    6    0     -0.07      0.00
   15    6    0      1.52      0.00
   16    6    0     -1.34      0.00
   17    6    0     -1.30      0.00
   18    6    0      1.30      0.00
   19    6    0      1.34      0.00
  -13    7    0      0.39      0.00
  -12    7    0     -0.78      0.00
  -11    7    0     -1.85      0.00
  -10    7    0     -0.35      0.00
   -9    7    0     -2.85      0.00
   -8    7    0      4.36      0.00
   -7    7    0     -1.93      0.00
   -6    7    0    -15.22      0.00
   -5    7    0     10.99      0.00
   -4    7    0     10.60      0.00
   -3    7    0     -3.02      0.00
   -2    7    0     -1.69      0.00
   -1    7    0     -3.12      0.00
    0    7    0    -15.59      0.00
    1    7    0     -5.15      0.00
    2    7    0      8.52      0.00
    3    7    0     -6.94      0.00
    4    7    0     -4.69      0.00
    5    7    0      1.26      0.00
    6    7    0      4.30      0.00
    7    7    0      9.83      0.00
    8    7    0     -0.25      0.00
    9    7    0      1.68      0.00
   10    7    0      5.63      0.00
   11    7    0      4.64      0.00
   12    7    0      0.32      0.00
   13    7    0     -1.70      0.00
   14    7    0     -2.39      0.00
   15    7    0     -0.87      0.00
   16    7    0      0.66      0.00
   17    7    0      1.12      0.00
   18    7    0      2.68      0.00
   19    7    0     -2.33      0.00
   20    7    0      1.24      0.00
  -13    8    0     -0.77      0.00
  -12    8    0      2.29      0.00
  -11    8    0     -2.05      0.00
  -10    8    0     -1.10      0.00
   -9    8    0      0.46      0.00
   -8    8    0     -0.10      0.00
   -7    8    0     -5.40      0.00
   -6    8    0     -7.74      0.00
   -5    8    0      9.16      0.00
   -4    8    0      4.25      0.00
   -3    8    0      0.04      0.00
   -2    8    0     -2.15      0.00
   -1    8    0      2.27      0.00
    0    8    0    -15.96      0.00
    1    8    0     -0.11      0.00
    2    8    0     10.38      0.00
    3    8    0    -16.92      0.00
    4    8    0     -1.22      0.00
    5    8    0      0.58      0.00
    6    8    0     -3.68      0.00
    7    8    0     -3.92      0.00
    8    8    0      7.34      0.00
    9    8    0      7.20      0.00
   10    8    0      2.16      0.00
   11    8    0     -5.22      0.00
   12    8    0      1.91      0.00
   13    8    0      3.61      0.00
   14    8    0      0.11      0.00
   15    8    0      0.23      0.00
   16    8    0     -1.35      0.00
   17    8    0      3.52      0.00
   18    8    0      1.85      0.00
   19    8    0      0.20      0.00
   20    8    0      0.41      0.00
  -12    9    0      0.58      0.00
  -11    9    0     -0.19      0.00
  -10    9    0      0.88      0.00
   -9    9    0     -1.31      0.00
   -8    9    0     -5.10      0.00
   -7    9    0     -2.93      0.00
   -6    9    0     -1.27      0.00
   -5    9    0      4.98      0.00
   -4    9    0      1.72      0.00
   -3    9    0      0.84      0.00
   -2    9    0     -5.07      0.00
   -1    9    0     -3.01      0.00
    0    9    0      0.36      0.00
    1    9    0      7.23      0.00
    2    9    0     -3.55      0.00
    3    9    0    -13.81      0.00
    4    9    0     -1.52      0.00
    5    9    0     -1.19      0.00
    6    9    0     -4.07      0.00
    7    9    0     -7.72      0.00
    8    9    0     -0.66      0.00
    9    9    0      9.69      0.00
   10    9    0      1.15      0.00
   11    9    0     -0.82      0.00
   12    9    0     -1.02      0.00
   13    9    0      1.37      0.00
   14    9    0      0.60      0.00
   15    9    0     -0.06      0.00
   16    9    0      1.21      0.00
   17    9    0      1.32      0.00
   18    9    0      2.53      0.00
   19    9    0     -0.42      0.00
   20    9    0      2.50      0.00
  -11   10    0     -1.29      0.00
  -10   10    0      2.17      0.00
   -9   10    0     -2.28      0.00
   -8   10    0     -5.02      0.00
   -7   10    0     -0.97      0.00
   -6   10    0      1.65      0.00
   -5   10    0     -1.53      0.00
   -4   10    0     -2.60      0.00
   -3   10    0      3.85      0.00
   -2   10    0     -8.32      0.00
   -1   10    0      2.49      0.00
    0   10    0      4.96      0.00
    1   10    0      3.19      0.00
    2   10    0     -3.99      0.00
    3   10    0     -7.43      0.00
    4   10    0     -1.24      0.00
    5   10    0    -10.61      0.00
    6   10    0     -3.33      0.00
    7   10    0      0.78      0.00
    8   10    0     -1.88      0.00
    9   10    0     -3.09      0.00
   10   10    0      3.46      0.00
   11   10    0      0.32      0.00
   12   10    0      4.81      0.00
   13   10    0     -2.31      0.00
   14   10    0     -0.53      0.00
   15   10    0      0.22      0.00
   16   10    0     -0.78      0.00
   17   10    0      3.49      0.00
   18   10    0     -1.68      0.00
   19   10    0     -1.73      0.00
   20   10    0      3.22      0.00
  -10   11    0      0.73      0.00
   -9   11    0     -0.13      0.00
   -8   11    0     -2.80      0.00
   -7   11    0      1.72      0.00
   -6   11    0     -0.95      0.00
   -5   11    0     -3.58      0.00
   -4   11    0     -6.96      0.00
   -3   11    0      0.28      0.00
   -2   11    0     -3.18      0.00
   -1   11    0      4.72      0.00
    0   11    0      6.82      0.00
    1   11    0     -4.48      0.00
    2   11    0     -4.47      0.00
    3   11    0      6.43      0.00
    4   11    0     -6.00      0.00
    5   11    0     -9.89      0.00
    6   11    0     -3.77      0.00
    7   11    0      1.59      0.00
    8   11    0     -3.79      0.00
    9   11    0      0.42      0.00
   10   11    0     -0.34      0.00
   11   11    0      1.41      0.00
   12   11    0      0.09      0.00
   13   11    0      2.72      0.00
   14   11    0      0.31      0.00
   15   11    0     -0.87      0.00
   16   11    0      0.29      0.00
   17   11    0     -1.19      0.00
   18   11    0     -1.40      0.00
   19   11    0     -1.93      0.00
   20   11    0      1.96      0.00
   -9   12    0     -2.29      0.00
   -8   12    0      0.62      0.00
   -7   12    0      1.89      0.00
   -6   12    0     -0.65      0.00
   -5   12    0     -5.32      0.00
   -4   12    0     -4.55      0.00
   -3   12    0     -1.97      0.00
   -2   12    0     -6.16      0.00
   -1   12    0      5.72      0.00
    0   12    0      6.07      0.00
    1   12    0     -5.60      0.00
    2   12    0     -3.29      0.00
    3   12    0      6.83      0.00
    4   12    0     -0.15      0.00
    5   12    0     -8.38      0.00
    6   12    0      3.14      0.00
    7   12    0     -3.05      0.00
    8   12    0     -7.89      0.00
    9   12    0      2.10      0.00
   10   12    0      3.84      0.00
   11   12    0     -2.96      0.00
   12   12    0      3.25      0.00
   13   12    0     -2.55      0.00
   14   12    0      4.08      0.00
   15   12    0      1.58      0.00
   16   12    0     -2.06      0.00
   17   12    0     -1.64      0.00
   18   12    0     -1.35      0.00
   19   12    0     -1.08      0.00
   20   12    0     -0.25      0.00
   -8   13    0     -0.23      0.00
   -7   13    0      1.51      0.00
   -6   13    0     -2.07      0.00
   -5   13    0     -0.85      0.00
   -4   13    0     -6.50      0.00
   -3   13    0      0.29      0.00
   -2   13    0     -3.20      0.00
   -1   13    0     -0.46      0.00
    0   13    0      2.44      0.00
    1   13    0     -4.95      0.00
    2   13    0      0.86      0.00
    3   13    0      6.72      0.00
    4   13    0     -0.83      0.00
    5   13    0      0.89      0.00
    6   13    0     -1.99      0.00
    7   13    0      1.45      0.00
    8   13    0     -3.86      0.00
    9   13    0     -0.11      0.00
   10   13    0     -1.36      0.00
   11   13    0      0.67      0.00
   12   13    0      2.05      0.00
   13   13    0      0.73      0.00
   14   13    0     -2.18      0.00
   15   13    0      4.08      0.00
   16   13    0      1.02      0.00
   17   13    0     -3.04      0.00
   18   13    0      0.39      0.00
   19   13    0     -1.29      0.00
   20   13    0     -0.24      0.00
   -7   14    0     -1.00      0.00
   -6   14    0     -2.51      0.00
   -5   14    0     -0.75      0.00
   -4   14    0     -5.62      0.00
   -3   14    0      1.54      0.00
   -2   14    0      0.80      0.00
   -1   14    0     -1.96      0.00
    0   14    0     -3.45      0.00
    1   14    0     -3.49      0.00
    2   14    0      3.46      0.00
    3   14    0      4.71      0.00
    4   14    0      1.13      0.00
    5   14    0     -0.30      0.00
    6   14    0      2.62      0.00
    7   14    0     -0.30      0.00
    8   14    0     -0.12      0.00
    9   14    0      0.31      0.00
   10   14    0     -0.38      0.00
   11   14    0     -2.28      0.00
   12   14    0      3.26      0.00
   13   14    0     -2.75      0.00
   14   14    0      2.29      0.00
   15   14    0      1.53      0.00
   16   14    0      0.61      0.00
   17   14    0      0.23      0.00
   18   14    0     -0.38      0.00
   19   14    0      0.40      0.00
   20   14    0      0.74      0.00
   -6   15    0     -2.82      0.00
   -5   15    0     -0.10      0.00
   -4   15    0     -4.75      0.00
   -3   15    0      1.39      0.00
   -2   15    0     -2.16      0.00
   -1   15    0     -0.40      0.00
    0   15    0      0.19      0.00
    1   15    0     -0.20      0.00
    2   15    0     -0.45      0.00
    3   15    0     -3.10      0.00
    4   15    0      1.82      0.00
    5   15    0      5.51      0.00
    6   15    0      3.42      0.00
    7   15    0      0.58      0.00
    8   15    0     -1.34      0.00
    9   15    0     -2.00      0.00
   10   15    0      1.06      0.00
   11   15    0      3.50      0.00
   12   15    0     -3.23      0.00
   13   15    0     -1.13      0.00
   14   15    0      1.44      0.00
   15   15    0      3.37      0.00
   16   15    0      0.22      0.00
   17   15    0      0.72      0.00
   18   15    0      2.06      0.00
   19   15    0      0.99      0.00
   -5   16    0      1.65      0.00
   -4   16    0     -4.81      0.00
   -3   16    0      0.85      0.00
   -2   16    0     -2.02      0.00
   -1   16    0     -4.97      0.00
    0   16    0      2.81      0.00
    1   16    0      7.39      0.00
    2   16    0     -3.69      0.00
    3   16    0     -7.84      0.00
    4   16    0      1.25      0.00
    5   16    0      4.12      0.00
    6   16    0      3.44      0.00
    7   16    0      2.40      0.00
    8   16    0      1.77      0.00
    9   16    0     -4.48      0.00
   10   16    0      1.38      0.00
   11   16    0      1.47      0.00
   12   16    0      0.19      0.00
   13   16    0     -2.01      0.00
   14   16    0      1.68      0.00
   15   16    0      0.96      0.00
   16   16    0      1.70      0.00
   17   16    0      2.27      0.00
   18   16    0      3.56      0.00
   19   16    0      1.23      0.00
   -4   17    0     -0.61      0.00
   -3   17    0     -1.30      0.00
   -2   17    0     -0.02      0.00
   -1   17    0     -1.52      0.00
    0   17    0     -3.98      0.00
    1   17    0      4.12      0.00
    2   17    0      4.20      0.00
    3   17    0     -3.59      0.00
    4   17    0     -1.54      0.00
    5   17    0     -0.47      0.00
    6   17    0     -2.14      0.00
    7   17    0      4.18      0.00
    8   17    0      3.84      0.00
    9   17    0     -2.61      0.00
   10   17    0      2.90      0.00
   11   17    0      0.73      0.00
   12   17    0     -1.78      0.00
   13   17    0      2.18      0.00
   14   17    0     -0.36      0.00
   15   17    0      2.12      0.00
   16   17    0     -1.04      0.00
   17   17    0      1.73      0.00
   18   17    0      3.75      0.00
   19   17    0      2.57      0.00
   -3   18    0     -1.05      0.00
   -2   18    0     -1.97      0.00
   -1   18    0      2.32      0.00
    0   18    0     -0.23      0.00
    1   18    0     -3.85      0.00
    2   18    0      5.94      0.00
    3   18    0      2.84      0.00
    4   18    0     -4.49      0.00
    5   18    0      1.78      0.00
    6   18    0     -1.45      0.00
    7   18    0     -3.63      0.00
    8   18    0      2.89      0.00
    9   18    0      0.06      0.00
   10   18    0      2.71      0.00
   11   18    0      1.94      0.00
   12   18    0      2.05      0.00
   13   18    0     -0.07      0.00
   14   18    0      1.79      0.00
   15   18    0      0.73      0.00
   16   18    0     -2.06      0.00
   17   18    0      0.24      0.00
   18   18    0      2.29      0.00
   -1   19    0      0.15      0.00
    0   19    0     -0.21      0.00
    1   19    0     -0.50      0.00
    2   19    0      4.63      0.00
    3   19    0     -1.64      0.00
    4   19    0      3.39      0.00
    5   19    0      2.79      0.00
    6   19    0     -3.01      0.00
    7   19    0     -0.62      0.00
    8   19    0     -3.27      0.00
    9   19    0      0.32      0.00
   10   19    0      3.32      0.00
   11   19    0     -0.75      0.00
   12   19    0      3.33      0.00
   13   19    0      4.25      0.00
   14   19    0     -0.92      0.00
   15   19    0     -0.35      0.00
   16   19    0     -1.48      0.00
   17   19    0      1.10      0.00
    1   20    0     -3.12      0.00
    2   20    0      2.76      0.00
    3   20    0      1.74      0.00
    4   20    0      2.27      0.00
    5   20    0      2.62      0.00
    6   20    0      0.49      0.00
    7   20    0      0.84      0.00
    8   20    0     -1.76      0.00
    9   20    0     -1.26      0.00
   10   20    0      0.83      0.00
   11   20    0      0.13      0.00
   12   20    0      1.56      0.00
   13   20    0      2.03      0.00
   14   20    0     -0.07      0.00
   15   20    0     -0.41      0.00
   16   20    0     -0.17      0.00
   17   20    0      0.27      0.00
    3   21    0     -1.05      0.00
    4   21    0      1.05      0.00
    5   21    0     -1.41      0.00
    6   21    0      3.80      0.00
    7   21    0      3.55      0.00
    8   21    0      2.03      0.00
    9   21    0      0.35      0.00
   10   21    0     -2.89      0.00
   11   21    0     -0.62      0.00
   12   21    0      1.02      0.00
   13   21    0      0.71      0.00
   14   21    0     -0.56      0.00
   15   21    0      0.62      0.00
    6   22    0     -0.22      0.00
    7   22    0      0.72      0.00
    8   22    0      5.29      0.00
    9   22    0      2.78      0.00
   10   22    0      1.31      0.00
   11   22    0     -4.42      0.00
   12   22    0     -2.63      0.00
   13   22    0      4.08      0.00
  -13  -22    1     -0.63      0.00
  -12  -22    1     -4.75      0.00
  -11  -22    1      7.43      0.00
  -10  -22    1      1.08      0.00
   -9  -22    1     -0.55      0.00
   -8  -22    1     -2.76      0.00
   -7  -22    1     -2.98      0.00
   -6  -22    1     -1.48      0.00
  -15  -21    1      0.61      0.00
  -14  -21    1     -1.10      0.00
  -13  -21    1      0.29      0.00
  -12  -21    1     -1.36      0.00
  -11  -21    1      2.35      0.00
  -10  -21    1      0.03      0.00
   -9  -21    1      3.74      0.00
   -8  -21    1     -3.20      0.00
   -7  -21    1      1.67      0.00
   -6  -21    1     -5.67      0.00
   -5  -21    1     -1.48      0.00
   -4  -21    1     -0.15      0.00
   -3  -21    1     -1.66      0.00
  -16  -20    1     -0.13      0.00
  -15  -20    1      1.13      0.00
  -14  -20    1      0.62      0.00
  -13  -20    1     -1.34      0.00
  -12  -20    1     -1.67      0.00
  -11  -20    1      1.65      0.00
  -10  -20    1     -2.08      0.00
   -9  -20    1      1.35      0.00
   -8  -20    1      1.21      0.00
   -7  -20    1     -0.44      0.00
   -6  -20    1     -0.16      0.00
   -5  -20    1      0.73      0.00
   -4  -20    1     -1.62      0.00
   -3  -20    1     -0.48      0.00
   -2  -20    1     -4.83      0.00
   -1  -20    1     -1.36      0.00
  -17  -19    1     -2.07      0.00
  -16  -19    1      0.92      0.00
  -15  -19    1      0.59      0.00
  -14  -19    1      0.91      0.00
  -13  -19    1      2.85      0.00
  -12  -19    1     -6.21      0.00
  -11  -19    1      1.09      0.00
  -10  -19    1     -1.50      0.00
   -9  -19    1     -2.36      0.00
   -8  -19    1      0.55      0.00
   -7  -19    1      3.09      0.00
   -6  -19    1      0.82      0.00
   -5  -19    1      2.36      0.00
   -4  -19    1     -2.70      0.00
   -3  -19    1      2.05      0.00
   -2  -19    1     -1.74      0.00
   -1  -19    1     -1.29      0.00
    0  -19    1      0.68      0.00
    1  -19    1     -1.55      0.00
  -18  -18    1     -2.98      0.00
  -17  -18    1     -3.28      0.00
  -16  -18    1      1.45      0.00
  -15  -18    1      1.51      0.00
  -14  -18    1      0.30      0.00
  -13  -18    1     -0.51      0.00
  -12  -18    1     -0.26      0.00
  -11  -18    1      1.13      0.00
  -10  -18    1     -4.93      0.00
   -9  -18    1      0.46      0.00
   -8  -18    1     -0.51      0.00
   -7  -18    1     -1.80      0.00
   -6  -18    1      4.65      0.00
   -5  -18    1     -0.25      0.00
   -4  -18    1      0.43      0.00
   -3  -18    1      4.51      0.00
   -2  -18    1     -3.76      0.00
   -1  -18    1      1.03      0.00
    0  -18    1      3.61      0.00
    1  -18    1     -2.45      0.00
    2  -18    1      0.11      0.00
    3  -18    1      0.43      0.00
  -18  -17    1     -4.08      0.00
  -17  -17    1     -3.97      0.00
  -16  -17    1      0.40      0.00
  -15  -17    1      0.15      0.00
  -14  -17    1      0.56      0.00
  -13  -17    1     -0.35      0.00
  -12  -17    1     -0.79      0.00
  -11  -17    1      2.52      0.00
  -10  -17    1     -5.72      0.00
   -9  -17    1      4.48      0.00
   -8  -17    1      1.98      0.00
   -7  -17    1     -7.20      0.00
   -6  -17    1      0.31      0.00
   -5  -17    1      1.95      0.00
   -4  -17    1     -0.25      0.00
   -3  -17    1      4.33      0.00
   -2  -17    1      1.72      0.00
   -1  -17    1     -4.40      0.00
    0  -17    1      0.41      0.00
    1  -17    1      6.02      0.00
    2  -17    1      0.32      0.00
    3  -17    1     -1.69      0.00
    4  -17    1      2.17      0.00
  -19  -16    1      0.34      0.00
  -18  -16    1     -1.77      0.00
  -17  -16    1     -3.73      0.00
  -16  -16    1     -1.12      0.00
  -15  -16    1     -1.80      0.00
  -14  -16    1      0.05      0.00
  -13  -16    1      0.53      0.00
  -12  -16    1      1.94      0.00
  -11  -16    1     -1.92      0.00
  -10  -16    1     -3.79      0.00
   -9  -16    1      3.60      0.00
   -8  -16    1      0.72      0.00
   -7  -16    1      0.06      0.00
   -6  -16    1     -1.01      0.00
   -5  -16    1     -4.50      0.00
   -4  -16    1     -4.13      0.00
   -3  -16    1      3.19      0.00
   -2  -16    1      4.58      0.00
   -1  -16    1      1.33      0.00
    0  -16    1     -4.26      0.00
    1  -16    1     -0.49      0.00
    2  -16    1      5.89      0.00
    3  -16    1     -2.21      0.00
    4  -16    1      2.69      0.00
    5  -16    1      0.65      0.00
  -19  -15    1     -0.40      0.00
  -18  -15    1     -0.51      0.00
  -17  -15    1     -2.64      0.00
  -16  -15    1      1.26      0.00
  -15  -15    1     -2.24      0.00
  -14  -15    1     -1.42      0.00
  -13  -15    1     -0.58      0.00
  -12  -15    1      2.18      0.00
  -11  -15    1      1.53      0.00
  -10  -15    1     -3.90      0.00
   -9  -15    1     -0.12      0.00
   -8  -15    1     -1.30      0.00
   -7  -15    1      2.63      0.00
   -6  -15    1      0.05      0.00
   -5  -15    1     -5.31      0.00
   -4  -15    1     -5.48      0.00
   -3  -15    1      0.81      0.00
   -2  -15    1      1.04      0.00
   -1  -15    1      2.18      0.00
    0  -15    1     -0.82      0.00
    1  -15    1     -2.08      0.00
    2  -15    1      3.33      0.00
    3  -15    1     -1.95      0.00
    4  -15    1      0.89      0.00
    5  -15    1      3.38      0.00
    6  -15    1     -0.48      0.00
    7  -15    1      2.06      0.00
  -19  -14    1     -2.13      0.00
  -18  -14    1     -1.37      0.00
  -17  -14    1      1.00      0.00
  -16  -14    1      1.41      0.00
  -15  -14    1     -2.10      0.00
  -14  -14    1     -0.39      0.00
  -13  -14    1     -1.21      0.00
  -12  -14    1      1.88      0.00
  -11  -14    1     -0.82      0.00
  -10  -14    1     -0.17      0.00
   -9  -14    1      2.32      0.00
   -8  -14    1     -2.82      0.00
   -7  -14    1     -1.88      0.00
   -6  -14    1     -2.52      0.00
   -5  -14    1     -1.02      0.00
   -4  -14    1     -0.32      0.00
   -3  -14    1     -1.19      0.00
   -2  -14    1     -4.97      0.00
   -1  -14    1     -1.41      0.00
    0  -14    1      1.37      0.00
    1  -14    1      2.79      0.00
    2  -14    1      3.58      0.00
    3  -14    1     -7.02      0.00
    4  -14    1      3.32      0.00
    5  -14    1      1.39      0.00
    6  -14    1      1.18      0.00
    7  -14    1      1.92      0.00
    8  -14    1     -0.44      0.00
  -19  -13    1      0.56      0.00
  -18  -13    1     -1.77      0.00
  -17  -13    1      0.66      0.00
  -16  -13    1      5.28      0.00
  -15  -13    1     -4.81      0.00
  -14  -13    1     -0.52      0.00
  -13  -13    1      2.86      0.00
  -12  -13    1     -0.32      0.00
  -11  -13    1     -2.16      0.00
  -10  -13    1      0.43      0.00
   -9  -13    1      0.02      0.00
   -8  -13    1      0.08      0.00
   -7  -13    1      0.09      0.00
   -6  -13    1     -3.60      0.00
   -5  -13    1     -0.06      0.00
   -4  -13    1      1.20      0.00
   -3  -13    1     -2.23      0.00
   -2  -13    1     -8.37      0.00
   -1  -13    1      4.52      0.00
    0  -13    1      0.16      0.00
    1  -13    1     -1.56      0.00
    2  -13    1      3.08      0.00
    3  -13    1     -2.32      0.00
    4  -13    1      2.43      0.00
    5  -13    1      3.25      0.00
    6  -13    1      0.32      0.00
    7  -13    1      2.00      0.00
    8  -13    1     -4.20      0.00
    9  -13    1      0.29      0.00
  -20  -12    1      0.51      0.00
  -19  -12    1     -1.27      0.00
  -18  -12    1      0.96      0.00
  -17  -12    1     -0.46      0.00
  -16  -12    1      1.75      0.00
  -15  -12    1      2.34      0.00
  -14  -12    1     -1.68      0.00
  -13  -12    1     -0.79      0.00
  -12  -12    1      1.05      0.00
  -11  -12    1      0.27      0.00
  -10  -12    1      1.34      0.00
   -9  -12    1     -5.84      0.00
   -8  -12    1     -2.60      0.00
   -7  -12    1      8.22      0.00
   -6  -12    1     -4.38      0.00
   -5  -12    1     -0.08      0.00
   -4  -12    1      5.11      0.00
   -3  -12    1     -7.11      0.00
   -2  -12    1     -3.49      0.00
   -1  -12    1      6.70      0.00
    0  -12    1      2.39      0.00
    1  -12    1     -9.86      0.00
    2  -12    1     -0.16      0.00
    3  -12    1      3.62      0.00
    4  -12    1      2.69      0.00
    5  -12    1      3.55      0.00
    6  -12    1      4.47      0.00
    7  -12    1     -2.15      0.00
    8  -12    1     -2.57      0.00
    9  -12    1      0.23      0.00
   10  -12    1      0.14      0.00
  -20  -11    1     -2.05      0.00
  -19  -11    1      1.61      0.00
  -18  -11    1      0.23      0.00
  -17  -11    1     -1.11      0.00
  -16  -11    1      1.89      0.00
  -15  -11    1     -0.67      0.00
  -14  -11    1      2.81      0.00
  -13  -11    1     -1.03      0.00
  -12  -11    1     -1.60      0.00
  -11  -11    1      0.66      0.00
  -10  -11    1     -0.13      0.00
   -9  -11    1     -2.15      0.00
   -8  -11    1      1.53      0.00
   -7  -11    1     -2.82      0.00
   -6  -11    1     -2.23      0.00
   -5  -11    1      2.25      0.00
   -4  -11    1      6.88      0.00
   -3  -11    1     -2.02      0.00
   -2  -11    1     -3.81      0.00
   -1  -11    1      6.00      0.00
    0  -11    1     -0.69      0.00
    1  -11    1     -7.59      0.00
    2  -11    1     -1.34      0.00
    3  -11    1      0.64      0.00
    4  -11    1      3.00      0.00
    5  -11    1      6.29      0.00
    6  -11    1      2.17      0.00
    7  -11    1     -0.51      0.00
    8  -11    1     -2.65      0.00
    9  -11    1      4.75      0.00
   10  -11    1     -3.05      0.00
   11  -11    1     -1.20      0.00
  -20  -10    1     -2.13      0.00
  -19  -10    1     -0.49      0.00
  -18  -10    1      2.75      0.00
  -17  -10    1     -1.29      0.00
  -16  -10    1     -0.51      0.00
  -15  -10    1     -1.10      0.00
  -14  -10    1      0.23      0.00
  -13  -10    1      3.65      0.00
  -12  -10    1     -0.75      0.00
  -11  -10    1     -2.10      0.00
  -10  -10    1     -2.07      0.00
   -9  -10    1     -0.16      0.00
   -8  -10    1      0.66      0.00
   -7  -10    1      0.95      0.00
   -6  -10    1     -6.71      0.00
   -5  -10    1      4.35      0.00
   -4  -10    1      2.94      0.00
   -3  -10    1     -0.86      0.00
   -2  -10    1      5.74      0.00
   -1  -10    1     -1.04      0.00
    0  -10    1     -3.74      0.00
    1  -10    1     -8.35      0.00
    2  -10    1      4.03      0.00
    3  -10    1      0.27      0.00
    4  -10    1     -0.17      0.00
    5  -10    1      4.65      0.00
    6  -10    1      0.97      0.00
    7  -10    1     -3.47      0.00
    8  -10    1      1.77      0.00
    9  -10    1      4.79      0.00
   10  -10    1     -0.70      0.00
   11  -10    1     -0.62      0.00
  -19   -9    1      1.04      0.00
  -18   -9    1     -0.25      0.00
  -17   -9    1     -0.62      0.00
  -16   -9    1     -0.77      0.00
  -15   -9    1     -1.13      0.00
  -14   -9    1      1.48      0.00
  -13   -9    1     -1.39      0.00
  -12   -9    1     -0.77      0.00
  -11   -9    1      2.22      0.00
  -10   -9    1      1.87      0.00
   -9   -9    1     -4.90      0.00
   -8   -9    1     -6.52      0.00
   -7   -9    1      1.54      0.00
   -6   -9    1      4.93      0.00
   -5   -9    1      0.05      0.00
   -4   -9    1     -4.48      0.00
   -3   -9    1     -0.53      0.00
   -2   -9    1     10.64      0.00
   -1   -9    1     -5.55      0.00
    0   -9    1     -7.50      0.00
    1   -9    1     -2.93      0.00
    2   -9    1      3.34      0.00
    3   -9    1      1.14      0.00
    4   -9    1     -0.04      0.00
    5   -9    1     -2.69      0.00
    6   -9    1     -2.45      0.00
    7   -9    1      1.26      0.00
    8   -9    1      1.90      0.00
    9   -9    1      4.80      0.00
   10   -9    1     -1.49      0.00
   11   -9    1      2.54      0.00
   12   -9    1     -1.21      0.00
  -19   -8    1      1.09      0.00
  -18   -8    1      1.40      0.00
  -17   -8    1     -2.76      0.00
  -16   -8    1      0.89      0.00
  -15   -8    1      0.56      0.00
  -14   -8    1      1.83      0.00
  -13   -8    1     -1.80      0.00
  -12   -8    1     -2.54      0.00
  -11   -8    1      0.15      0.00
  -10   -8    1      2.81      0.00
   -9   -8    1     -0.67      0.00
   -8   -8    1     -9.53      0.00
   -7   -8    1     -2.02      0.00
   -6   -8    1      0.85      0.00
   -5   -8    1      4.20      0.00
   -4   -8    1    -10.05      0.00
   -3   -8    1      8.05      0.00
   -2   -8    1      3.15      0.00
   -1   -8    1    -18.57      0.00
    0   -8    1      5.59      0.00
    1   -8    1      3.44      0.00
    2   -8    1     -3.23      0.00
    3   -8    1      1.01      0.00
    4   -8    1      0.09      0.00
    5   -8    1    -13.95      0.00
    6   -8    1     -1.36      0.00
    7   -8    1      8.19      0.00
    8   -8    1      2.20      0.00
    9   -8    1      0.16      0.00
   10   -8    1      0.62      0.00
   11   -8    1      0.68      0.00
   12   -8    1     -0.49      0.00
   13   -8    1      0.46      0.00
  -19   -7    1      0.65      0.00
  -18   -7    1      0.55      0.00
  -17   -7    1     -0.69      0.00
  -16   -7    1      2.14      0.00
  -15   -7    1     -1.79      0.00
  -14   -7    1      0.13      0.00
  -13   -7    1      4.99      0.00
  -12   -7    1      2.96      0.00
  -11   -7    1     -0.36      0.00
  -10   -7    1     -8.34      0.00
   -9   -7    1     -3.68      0.00
   -8   -7    1      2.24      0.00
   -7   -7    1     -4.11      0.00
   -6   -7    1     -7.64      0.00
   -5   -7    1     -4.03      0.00
   -4   -7    1     -4.68      0.00
   -3   -7    1      8.45      0.00
   -2   -7    1     -3.46      0.00
   -1   -7    1    -18.22      0.00
    0   -7    1     12.09      0.00
    1   -7    1      2.22      0.00
    2   -7    1     -2.27      0.00
    3   -7    1     -1.02      0.00
    4   -7    1      0.87      0.00
    5   -7    1    -19.76      0.00
    6   -7    1     -0.58      0.00
    7   -7    1     10.95      0.00
    8   -7    1     -3.06      0.00
    9   -7    1      1.84      0.00
   10   -7    1     -0.74      0.00
   11   -7    1      0.90      0.00
   12   -7    1      0.60      0.00
   13   -7    1      2.30      0.00
   14   -7    1     -0.39      0.00
  -19   -6    1     -0.14      0.00
  -18   -6    1     -1.85      0.00
  -17   -6    1     -0.68      0.00
  -16   -6    1      2.61      0.00
  -15   -6    1     -1.69      0.00
  -14   -6    1      0.79      0.00
  -13   -6    1     -0.85      0.00
  -12   -6    1      8.75      0.00
  -11   -6    1      6.10      0.00
  -10   -6    1     -6.67      0.00
   -9   -6    1     -8.77      0.00
   -8   -6    1     -1.68      0.00
   -7   -6    1      0.41      0.00
   -6   -6    1    -12.10      0.00
   -5   -6    1     -2.50      0.00
   -4   -6    1    -11.27      0.00
   -3   -6    1     -2.08      0.00
   -2   -6    1     -6.63      0.00
   -1   -6    1    -10.01      0.00
    0   -6    1     18.67      0.00
    1   -6    1      1.83      0.00
    2   -6    1     -8.07      0.00
    3   -6    1      2.43      0.00
    4   -6    1     -2.01      0.00
    5   -6    1    -17.09      0.00
    6   -6    1      4.47      0.00
    7   -6    1      6.00      0.00
    8   -6    1     -7.39      0.00
    9   -6    1      0.40      0.00
   10   -6    1      1.11      0.00
   11   -6    1      1.79      0.00
   12   -6    1     -2.95      0.00
   13   -6    1      1.01      0.00
   14   -6    1      4.41      0.00
  -19   -5    1     -0.81      0.00
  -18   -5    1     -1.80      0.00
  -17   -5    1     -2.35      0.00
  -16   -5    1      2.62      0.00
  -15   -5    1     -0.08      0.00
  -14   -5    1      0.58      0.00
  -13   -5    1     -1.58      0.00
  -12   -5    1     -0.17      0.00
  -11   -5    1      6.68      0.00
  -10   -5    1     -6.00      0.00
   -9   -5    1      7.35      0.00
   -8   -5    1      0.79      0.00
   -7   -5    1    -17.89      0.00
   -6   -5    1     -4.55      0.00
   -5   -5    1      0.49      0.00
   -4   -5    1    -12.23      0.00
   -3   -5    1    -11.77      0.00
   -2   -5    1    -25.08      0.00
   -1   -5    1     -8.09      0.00
    0   -5    1     26.51      0.00
    1   -5    1     10.10      0.00
    2   -5    1     -0.47      0.00
    3   -5    1    -17.28      0.00
    4   -5    1      2.69      0.00
    5   -5    1    -11.69      0.00
    6   -5    1      7.44      0.00
    7   -5    1      2.48      0.00
    8   -5    1     -4.62      0.00
    9   -5    1     -0.95      0.00
   10   -5    1     -3.51      0.00
   11   -5    1      3.24      0.00
   12   -5    1     -5.09      0.00
   13   -5    1     -0.30      0.00
   14   -5    1      3.66      0.00
   15   -5    1      3.07      0.00
  -19   -4    1     -0.45      0.00
  -18   -4    1      0.17      0.00
  -17   -4    1      0.23      0.00
  -16   -4    1     -0.83      0.00
  -15   -4    1     -1.51      0.00
  -14   -4    1      0.79      0.00
  -13   -4    1     -0.73      0.00
  -12   -4    1      2.19      0.00
  -11   -4    1     -5.30      0.00
  -10   -4    1     -4.27      0.00
   -9   -4    1      6.73      0.00
   -8   -4    1      6.86      0.00
   -7   -4    1     -4.51      0.00
   -6   -4    1    -13.49      0.00
   -5   -4    1      2.63      0.00
   -4   -4    1    -26.90      0.00
   -3   -4    1    -11.97      0.00
   -2   -4    1    -16.68      0.00
   -1   -4    1    -28.12      0.00
    0   -4    1     21.31      0.00
    1   -4    1      6.27      0.00
    2   -4    1      7.75      0.00
    3   -4    1    -11.72      0.00
    4   -4    1     -6.63      0.00
    5   -4    1      1.29      0.00
    6   -4    1     -0.10      0.00
    7   -4    1      0.04      0.00
    8   -4    1     -0.05      0.00
    9   -4    1      0.45      0.00
   10   -4    1     -4.08      0.00
   11   -4    1     -1.28      0.00
   12   -4    1     -2.17      0.00
   13   -4    1      3.35      0.00
   14   -4    1     -1.86      0.00
   15   -4    1     -2.20      0.00
   16   -4    1      4.52      0.00
  -18   -3    1      4.70      0.00
  -17   -3    1     -1.94      0.00
  -16   -3    1     -1.44      0.00
  -15   -3    1     -2.48      0.00
  -14   -3    1      0.61      0.00
  -13   -3    1     -0.90      0.00
  -12   -3    1     -1.19      0.00
  -11   -3    1     -0.23      0.00
  -10   -3    1     -4.67      0.00
   -9   -3    1      8.42      0.00
   -8   -3    1     -9.12      0.00
   -7   -3    1      7.05      0.00
   -6   -3    1      8.55      0.00
   -5   -3    1    -14.08      0.00
   -4   -3    1    -17.45      0.00
   -3   -3    1    -36.72      0.00
   -2   -3    1    -30.03      0.00
   -1   -3    1     10.02      0.00
    0   -3    1    -18.31      0.00
    1   -3    1     -7.11      0.00
    2   -3    1      0.51      0.00
    3   -3    1    -15.94      0.00
    4   -3    1     21.47      0.00
    5   -3    1     -4.11      0.00
    6   -3    1     -2.68      0.00
    7   -3    1     -3.58      0.00
    8   -3    1      2.76      0.00
    9   -3    1     -3.54      0.00
   10   -3    1     -3.36      0.00
   11   -3    1      3.94      0.00
   12   -3    1     -1.99      0.00
   13   -3    1      2.45      0.00
   14   -3    1     -2.59      0.00
   15   -3    1     -1.92      0.00
   16   -3    1     -0.84      0.00
  -18   -2    1      2.44      0.00
  -17   -2    1     -3.08      0.00
  -16   -2    1     -0.66      0.00
  -15   -2    1      0.12      0.00
  -14   -2    1     -1.17      0.00
  -13   -2    1     -1.70      0.00
  -12   -2    1     -4.04      0.00
  -11   -2    1     -3.81      0.00
  -10   -2    1      7.21      0.00
   -9   -2    1      0.62      0.00
   -8   -2    1      0.56      0.00
   -7   -2    1      0.81      0.00
   -6   -2    1      2.12      0.00
   -5   -2    1      2.77      0.00
   -4   -2    1    -18.44      0.00
   -3   -2    1      8.28      0.00
   -2   -2    1    -77.59      0.00
   -1   -2    1    -30.60      0.00
    0   -2    1     27.48      0.00
    1   -2    1    -59.44      0.00
    2   -2    1     -4.32      0.00
    3   -2    1    -14.55      0.00
    4   -2    1      9.53      0.00
    5   -2    1     14.86      0.00
    6   -2    1     -2.80      0.00
    7   -2    1      3.11      0.00
    8   -2    1     -4.53      0.00
    9   -2    1     -4.21      0.00
   10   -2    1     -4.07      0.00
   11   -2    1      3.29      0.00
   12   -2    1      2.94      0.00
   13   -2    1     -1.32      0.00
   14   -2    1     -0.50      0.00
   15   -2    1     -1.01      0.00
   16   -2    1     -1.96      0.00
   17   -2    1     -1.06      0.00
  -17   -1    1     -3.90      0.00
  -16   -1    1      4.31      0.00
  -15   -1    1     -2.19      0.00
  -14   -1    1     -1.77      0.00
  -13   -1    1     -1.05      0.00
  -12   -1    1     -4.04      0.00
  -11   -1    1     -3.79      0.00
  -10   -1    1     -0.38      0.00
   -9   -1    1      4.89      0.00
   -8   -1    1      1.27      0.00
   -7   -1    1     16.33      0.00
   -6   -1    1    -15.52      0.00
   -5   -1    1     -3.39      0.00
   -4   -1    1     12.02      0.00
   -3   -1    1    -13.17      0.00
   -2   -1    1     -6.45      0.00
    1   -1    1    -62.32      0.00
    2   -1    1      2.22      0.00
    3   -1    1     -3.29      0.00
    4   -1    1     -6.58      0.00
    5   -1    1      3.15      0.00
    6   -1    1     16.77      0.00
    7   -1    1     -4.13      0.00
    8   -1    1      3.09      0.00
    9   -1    1     -6.18      0.00
   10   -1    1     -2.64      0.00
   11   -1    1      3.66      0.00
   12   -1    1     -0.99      0.00
   13   -1    1      1.43      0.00
   14   -1    1     -0.70      0.00
   15   -1    1     -1.63      0.00
   16   -1    1     -1.13      0.00
   17   -1    1      0.18      0.00
  -17    0    1      0.03      0.00
  -16    0    1      2.50      0.00
  -15    0    1     -0.85      0.00
  -14    0    1     -1.71      0.00
  -13    0    1     -1.61      0.00
  -12    0    1     -2.76      0.00
  -11    0    1     -3.33      0.00
  -10    0    1      1.19      0.00
   -9    0    1     -3.76      0.00
   -8    0    1      8.40      0.00
   -7    0    1      3.46      0.00
   -6    0    1     -2.79      0.00
   -5    0    1     -2.67      0.00
   -4    0    1      7.84      0.00
   -3    0    1    -10.35      0.00
   -2    0    1    -19.68      0.00
   -1    0    1    126.75      0.00
    2    0    1     47.08      0.00
    3    0    1    -15.04      0.00
    4    0    1     -6.77      0.00
    5    0    1      4.61      0.00
    6    0    1      1.00      0.00
    7    0    1     -2.03      0.00
    8    0    1     -2.22      0.00
    9    0    1      8.31      0.00
   10    0    1     -1.00      0.00
   11    0    1      3.93      0.00
   12    0    1     -1.88      0.00
   13    0    1     -1.76      0.00
   14    0    1      1.29      0.00
   15    0    1     -1.89      0.00
   16    0    1      0.96      0.00
   17    0    1     -1.52      0.00
   18    0    1     -1.55      0.00
  -17    1    1      0.69      0.00
  -16    1    1      3.45      0.00
  -15    1    1      0.78      0.00
  -14    1    1     -1.87      0.00
  -13    1    1     -1.92      0.00
  -12    1    1     -1.26      0.00
  -11    1    1     -3.60      0.00
  -10    1    1      5.37      0.00
   -9    1    1     -2.00      0.00
   -8    1    1     -2.36      0.00
   -7    1    1      2.45      0.00
   -6    1    1    -12.96      0.00
   -5    1    1     14.95      0.00
   -4    1    1      6.01      0.00
   -3    1    1     -2.30      0.00
   -2    1    1      8.06      0.00
   -1    1    1     35.97      0.00
    2    1    1    -34.90      0.00
    3    1    1    -27.51      0.00
    4    1    1    -21.15      0.00
    5    1    1      6.08      0.00
    6    1    1      4.63      0.00
    7    1    1    -17.17      0.00
    8    1    1      5.62      0.00
    9    1    1      1.75      0.00
   10    1    1     10.63      0.00
   11    1    1      1.40      0.00
   12    1    1     -2.50      0.00
   13    1    1     -1.23      0.00
   14    1    1     -0.43      0.00
   15    1    1      2.86      0.00
   16    1    1     -2.10      0.00
   17    1    1      0.80      0.00
   18    1    1     -0.68      0.00
  -16    2    1      3.54      0.00
  -15    2    1      1.37      0.00
  -14    2    1     -0.87      0.00
  -13    2    1     -1.31      0.00
  -12    2    1     -0.44      0.00
  -11    2    1     -0.67      0.00
  -10    2    1      2.61      0.00
   -9    2    1     -1.60      0.00
   -8    2    1     -2.45      0.00
   -7    2    1     -5.70      0.00
   -6    2    1      1.65      0.00
   -5    2    1     -4.00      0.00
   -4    2    1     10.98      0.00
   -3    2    1     20.02      0.00
   -2    2    1      6.57      0.00
   -1    2    1      5.14      0.00
    0    2    1    -76.44      0.00
    1    2    1     45.76      0.00
    2    2    1     30.26      0.00
    3    2    1    -70.80      0.00
    4    2    1    -17.75      0.00
    5    2    1    -15.57      0.00
    6    2    1      0.16      0.00
    7    2    1     -7.09      0.00
    8    2    1      3.10      0.00
    9    2    1      5.84      0.00
   10    2    1     -0.70      0.00
   11    2    1      2.81      0.00
   12    2    1     -0.37      0.00
   13    2    1     -1.02      0.00
   14    2    1     -0.26      0.00
   15    2    1      0.84      0.00
   16    2    1      1.50      0.00
   17    2    1      1.81      0.00
   18    2    1     -0.66      0.00
  -16    3    1      3.07      0.00
  -15    3    1      1.67      0.00
  -14    3    1      1.04      0.00
  -13    3    1      0.12      0.00
  -12    3    1      1.08      0.00
  -11    3    1     -1.41      0.00
  -10    3    1      1.52      0.00
   -9    3    1     -3.53      0.00
   -8    3    1     -3.75      0.00
   -7    3    1     -1.92      0.00
   -6    3    1      3.36      0.00
   -5    3    1      3.77      0.00
   -4    3    1     -8.02      0.00
   -3    3    1     24.45      0.00
   -2    3    1      0.39      0.00
   -1    3    1      0.53      0.00
    0    3    1    -17.70      0.00
    1    3    1     19.25      0.00
    2    3    1      3.50      0.00
    3    3    1     -7.78      0.00
    4    3    1     -9.50      0.00
    5    3    1    -14.39      0.00
    6    3    1    -24.25      0.00
    7    3    1     -5.69      0.00
    8    3    1     10.37      0.00
    9    3    1     -0.37      0.00
   10    3    1      5.54      0.00
   11    3    1     -4.82      0.00
   12    3    1     -0.12      0.00
   13    3    1     -1.21      0.00
   14    3    1     -1.66      0.00
   15    3    1      1.69      0.00
   16    3    1      2.88      0.00
   17    3    1      2.41      0.00
   18    3    1     -3.08      0.00
   19    3    1      3.44      0.00
  -15    4    1      4.49      0.00
  -14    4    1      2.21      0.00
  -13    4    1      0.07      0.00
  -12    4    1      4.77      0.00
  -11    4    1     -3.77      0.00
  -10    4    1      1.65      0.00
   -9    4    1     -2.13      0.00
   -8    4    1     -6.82      0.00
   -7    4    1      0.55      0.00
   -6    4    1      3.40      0.00
   -5    4    1     -1.62      0.00
   -4    4    1      7.04      0.00
   -3    4    1     11.93      0.00
   -2    4    1     -6.36      0.00
   -1    4    1     -5.69      0.00
    0    4    1     13.29      0.00
    1    4    1     36.64      0.00
    2    4    1    -18.13      0.00
    3    4    1    -10.70      0.00
    4    4    1     12.40      0.00
    5    4    1    -19.95      0.00
    6    4    1     -6.12      0.00
    7    4    1    -10.60      0.00
    8    4    1     -7.91      0.00
    9    4    1      0.98      0.00
   10    4    1      6.83      0.00
   11    4    1      2.11      0.00
   12    4    1     -3.92      0.00
   13    4    1     -2.24      0.00
   14    4    1     -2.02      0.00
   15    4    1      2.10      0.00
   16    4    1      1.72      0.00
   17    4    1      0.20      0.00
   18    4    1      1.54      0.00
   19    4    1      2.82      0.00
  -14    5    1     -0.77      0.00
  -13    5    1      5.53      0.00
  -12    5    1      3.74      0.00
  -11    5    1     -2.11      0.00
  -10    5    1      1.40      0.00
   -9    5    1     -3.82      0.00
   -8    5    1     -0.26      0.00
   -7    5    1     -3.47      0.00
   -6    5    1     -0.58      0.00
   -5    5    1      5.95      0.00
   -4    5    1     -0.12      0.00
   -3    5    1     15.07      0.00
   -2    5    1     -5.97      0.00
   -1    5    1     -6.30      0.00
    0    5    1     10.01      0.00
    1    5    1     37.77      0.00
    2    5    1     -3.49      0.00
    3    5    1      4.32      0.00
    4    5    1     -5.68      0.00
    5    5    1    -21.85      0.00
    6    5    1      5.39      0.00
    7    5    1     -1.21      0.00
    8    5    1    -15.54      0.00
    9    5    1     -5.52      0.00
   10    5    1      2.00      0.00
   11    5    1     -4.35      0.00
   12    5    1      3.28      0.00
   13    5    1      1.80      0.00
   14    5    1     -1.97      0.00
   15    5    1     -0.17      0.00
   16    5    1     -1.93      0.00
   17    5    1      2.31      0.00
   18    5    1      4.08      0.00
   19    5    1      0.09      0.00
  -14    6    1     -5.25      0.00
  -13    6    1      3.04      0.00
  -12    6    1      4.58      0.00
  -11    6    1     -2.91      0.00
  -10    6    1      1.68      0.00
   -9    6    1     -0.64      0.00
   -8    6    1      0.84      0.00
   -7    6    1     -6.38      0.00
   -6    6    1      3.77      0.00
   -5    6    1     11.12      0.00
   -4    6    1     -7.38      0.00
   -3    6    1     -2.53      0.00
   -2    6    1      4.64      0.00
   -1    6    1      4.07      0.00
    0    6    1     10.78      0.00
    1    6    1     19.16      0.00
    2    6    1      5.28      0.00
    3    6    1      3.05      0.00
    4    6    1      3.95      0.00
    5    6    1    -10.61      0.00
    6    6    1      0.50      0.00
    7    6    1     -6.92      0.00
    8    6    1     -8.10      0.00
    9    6    1      0.61      0.00
   10    6    1     -5.70      0.00
   11    6    1    -11.00      0.00
   12    6    1     -1.76      0.00
   13    6    1      5.93      0.00
   14    6    1     -0.46      0.00
   15    6    1     -0.36      0.00
   16    6    1     -1.59      0.00
   17    6    1      2.63      0.00
   18    6    1     -0.64      0.00
   19    6    1     -0.04      0.00
   20    6    1     -1.07      0.00
  -13    7    1     -1.15      0.00
  -12    7    1     -2.59      0.00
  -11    7    1      0.14      0.00
  -10    7    1      2.30      0.00
   -9    7    1      0.66      0.00
   -8    7    1      0.99      0.00
   -7    7    1     -7.61      0.00
   -6    7    1      9.32      0.00
   -5    7    1      8.12      0.00
   -4    7    1    -11.23      0.00
   -3    7    1     -4.59      0.00
   -2    7    1      2.82      0.00
   -1    7    1      3.03      0.00
    0    7    1     10.29      0.00
    1    7    1     20.05      0.00
    2    7    1     -5.00      0.00
    3    7    1      3.47      0.00
    4    7    1      6.52      0.00
    5    7    1      3.18      0.00
    6    7    1      3.11      0.00
    7    7    1     -8.26      0.00
    8    7    1     -5.19      0.00
    9    7    1     -1.58      0.00
   10    7    1     -4.28      0.00
   11    7    1     -4.93      0.00
   12    7    1     -3.00      0.00
   13    7    1     -2.82      0.00
   14    7    1     -1.74      0.00
   15    7    1      1.62      0.00
   16    7    1      0.54      0.00
   17    7    1     -0.60      0.00
   18    7    1     -3.13      0.00
   19    7    1     -1.46      0.00
   20    7    1      0.80      0.00
  -12    8    1     -3.56      0.00
  -11    8    1     -0.68      0.00
  -10    8    1      2.56      0.00
   -9    8    1     -0.73      0.00
   -8    8    1      0.05      0.00
   -7    8    1      0.04      0.00
   -6    8    1      6.44      0.00
   -5    8    1     -0.04      0.00
   -4    8    1     -8.07      0.00
   -3    8    1     -2.48      0.00
   -2    8    1      2.92      0.00
   -1    8    1     -0.54      0.00
    0    8    1      2.93      0.00
    1    8    1     16.38      0.00
    2    8    1     -6.85      0.00
    3    8    1      0.96      0.00
    4    8    1     14.31      0.00
    5    8    1     -2.07      0.00
    6    8    1      4.39      0.00
    7    8    1      5.33      0.00
    8    8    1      0.33      0.00
    9    8    1     -7.37      0.00
   10    8    1     -8.85      0.00
   11    8    1      1.46      0.00
   12    8    1      1.99      0.00
   13    8    1     -3.56      0.00
   14    8    1     -4.09      0.00
   15    8    1     -0.22      0.00
   16    8    1     -1.05      0.00
   17    8    1      0.58      0.00
   18    8    1     -4.68      0.00
   19    8    1     -0.61      0.00
   20    8    1     -1.54      0.00
  -12    9    1      0.19      0.00
  -11    9    1      0.47      0.00
  -10    9    1     -1.32      0.00
   -9    9    1     -1.23      0.00
   -8    9    1      2.79      0.00
   -7    9    1      3.13      0.00
   -6    9    1      4.88      0.00
   -5    9    1     -3.18      0.00
   -4    9    1     -5.63      0.00
   -3    9    1     -5.39      0.00
   -2    9    1      3.83      0.00
   -1    9    1      3.05      0.00
    0    9    1      2.80      0.00
    1    9    1     -0.38      0.00
    2    9    1     -8.94      0.00
    3    9    1      8.58      0.00
    4    9    1      8.38      0.00
    5    9    1      2.42      0.00
    6    9    1      1.10      0.00
    7    9    1      6.56      0.00
    8    9    1      7.78      0.00
    9    9    1     -3.42      0.00
   10    9    1     -7.92      0.00
   11    9    1     -0.93      0.00
   12    9    1     -0.08      0.00
   13    9    1      0.54      0.00
   14    9    1     -2.65      0.00
   15    9    1     -0.76      0.00
   16    9    1      0.03      0.00
   17    9    1     -1.53      0.00
   18    9    1     -2.14      0.00
   19    9    1      0.37      0.00
   20    9    1     -1.40      0.00
  -11   10    1      0.61      0.00
  -10   10    1     -0.27      0.00
   -9   10    1     -1.19      0.00
   -8   10    1      2.06      0.00
   -7   10    1      5.46      0.00
   -6   10    1      0.59      0.00
   -5   10    1     -2.57      0.00
   -4   10    1      2.07      0.00
   -3   10    1     -5.25      0.00
   -2   10    1      0.99      0.00
   -1   10    1      6.15      0.00
    0   10    1     -5.04      0.00
    1   10    1     -2.91      0.00
    2   10    1     -5.00      0.00
    3   10    1      5.43      0.00
    4   10    1      2.71      0.00
    5   10    1      3.47      0.00
    6   10    1      9.40      0.00
    7   10    1      0.56      0.00
    8   10    1      1.25      0.00
    9   10    1      3.04      0.00
   10   10    1      0.36      0.00
   11   10    1     -2.11      0.00
   12   10    1     -2.02      0.00
   13   10    1     -2.61      0.00
   14   10    1      0.07      0.00
   15   10    1      0.70      0.00
   16   10    1      0.06      0.00
   17   10    1     -1.27      0.00
   18   10    1     -1.29      0.00
   19   10    1      4.69      0.00
   20   10    1     -1.57      0.00
  -10   11    1      0.53      0.00
   -9   11    1     -0.52      0.00
   -8   11    1      1.99      0.00
   -7   11    1      1.55      0.00
   -6   11    1     -1.30      0.00
   -5   11    1     -0.97      0.00
   -4   11    1      6.25      0.00
   -3   11    1      1.21      0.00
   -2   11    1      0.93      0.00
   -1   11    1      1.19      0.00
    0   11    1     -8.38      0.00
    1   11    1     -5.30      0.00
    2   11    1      8.44      0.00
    3   11    1     -3.12      0.00
    4   11    1     -6.34      0.00
    5   11    1      9.54      0.00
    6   11    1      5.86      0.00
    7   11    1      1.52      0.00
    8   11    1      1.41      0.00
    9   11    1      1.70      0.00
   10   11    1      0.46      0.00
   11   11    1      0.96      0.00
   12   11    1     -2.43      0.00
   13   11    1      0.18      0.00
   14   11    1     -3.08      0.00
   15   11    1      0.67      0.00
   16   11    1     -0.90      0.00
   17   11    1     -0.68      0.00
   18   11    1      2.39      0.00
   19   11    1      3.34      0.00
   20   11    1      1.45      0.00
   -9   12    1     -0.64      0.00
   -8   12    1      1.72      0.00
   -7   12    1     -0.28      0.00
   -6   12    1     -2.05      0.00
   -5   12    1      0.38      0.00
   -4   12    1      5.30      0.00
   -3   12    1      1.97      0.00
   -2   12    1      3.03      0.00
   -1   12    1      2.53      0.00
    0   12    1    -10.12      0.00
    1   12    1     -1.03      0.00
    2   12    1      5.10      0.00
    3   12    1     -2.39      0.00
    4   12    1     -6.07      0.00
    5   12    1      2.96      0.00
    6   12    1      5.35      0.00
    7   12    1     -4.56      0.00
    8   12    1      6.24      0.00
    9   12    1      5.40      0.00
   10   12    1     -2.10      0.00
   11   12    1     -0.88      0.00
   12   12    1      0.36      0.00
   13   12    1     -0.27      0.00
   14   12    1      0.42      0.00
   15   12    1     -3.13      0.00
   16   12    1     -2.59      0.00
   17   12    1      3.28      0.00
   18   12    1      0.00      0.00
   19   12    1      3.34      0.00
   20   12    1      1.89      0.00
   -8   13    1     -0.43      0.00
   -7   13    1     -0.15      0.00
   -6   13    1      0.37      0.00
   -5   13    1     -0.56      0.00
   -4   13    1      2.95      0.00
   -3   13    1      1.71      0.00
   -2   13    1      0.46      0.00
   -1   13    1      3.59      0.00
    0   13    1     -4.38      0.00
    1   13    1     -0.08      0.00
    2   13    1      4.19      0.00
    3   13    1     -6.97      0.00
    4   13    1     -0.36      0.00
    5   13    1     -0.86      0.00
    6   13    1     -1.13      0.00
    7   13    1     -1.57      0.00
    8   13    1      2.72      0.00
    9   13    1      3.74      0.00
   10   13    1      0.01      0.00
   11   13    1      2.44      0.00
   12   13    1     -1.39      0.00
   13   13    1     -0.34      0.00
   14   13    1     -0.53      0.00
   15   13    1      1.78      0.00
   16   13    1     -2.85      0.00
   17   13    1      0.23      0.00
   18   13    1      1.41      0.00
   19   13    1      0.93      0.00
   20   13    1      1.70      0.00
   -7   14    1     -1.71      0.00
   -6   14    1      1.68      0.00
   -5   14    1      1.33      0.00
   -4   14    1      1.78      0.00
   -3   14    1      2.43      0.00
   -2   14    1     -2.58      0.00
   -1   14    1     -0.56      0.00
    0   14    1     -0.18      0.00
    1   14    1      4.70      0.00
    2   14    1      0.72      0.00
    3   14    1     -5.30      0.00
    4   14    1     -2.22      0.00
    5   14    1     -0.38      0.00
    6   14    1     -0.42      0.00
    7   14    1     -5.20      0.00
    8   14    1      4.09      0.00
    9   14    1     -0.32      0.00
   10   14    1     -0.26      0.00
   11   14    1      2.95      0.00
   12   14    1     -0.30      0.00
   13   14    1     -0.60      0.00
   14   14    1      1.93      0.00
   15   14    1     -0.67      0.00
   16   14    1     -0.27      0.00
   17   14    1      1.51      0.00
   18   14    1     -0.89      0.00
   19   14    1      1.44      0.00
   20   14    1      0.00      0.00
   -6   15    1      1.15      0.00
   -5   15    1      0.91      0.00
   -4   15    1      2.89      0.00
   -3   15    1      2.69      0.00
   -2   15    1     -3.09      0.00
   -1   15    1      1.55      0.00
    0   15    1     -0.03      0.00
    1   15    1     -0.93      0.00
    2   15    1     -1.21      0.00
    3   15    1      1.79      0.00
    4   15    1      1.39      0.00
    5   15    1     -4.10      0.00
    6   15    1     -1.11      0.00
    7   15    1     -2.81      0.00
    8   15    1     -2.61      0.00
    9   15    1      2.53      0.00
   10   15    1      2.81      0.00
   11   15    1     -3.11      0.00
   12   15    1     -0.55      0.00
   13   15    1      4.36      0.00
   14   15    1     -0.57      0.00
   15   15    1     -0.25      0.00
   16   15    1     -1.93      0.00
   17   15    1      2.21      0.00
   18   15    1      0.23      0.00
   19   15    1     -1.72      0.00
   20   15    1      1.45      0.00
   -5   16    1     -1.14      0.00
   -4   16    1      1.11      0.00
   -3   16    1      2.51      0.00
   -2   16    1     -0.83      0.00
   -1   16    1      4.56      0.00
    0   16    1      3.94      0.00
    1   16    1     -7.71      0.00
    2   16    1     -5.73      0.00
    3   16    1      5.61      0.00
    4   16    1      4.46      0.00
    5   16    1     -1.73      0.00
    6   16    1     -1.05      0.00
    7   16    1     -4.24      0.00
    8   16    1     -2.10      0.00
    9   16    1      0.80      0.00
   10   16    1      1.14      0.00
   11   16    1     -1.33      0.00
   12   16    1      1.04      0.00
   13   16    1      1.26      0.00
   14   16    1      1.13      0.00
   15   16    1     -1.68      0.00
   16   16    1     -0.54      0.00
   17   16    1      0.44      0.00
   18   16    1     -1.67      0.00
   19   16    1     -1.07      0.00
   -4   17    1     -2.45      0.00
   -3   17    1      1.86      0.00
   -2   17    1      2.21      0.00
   -1   17    1      0.66      0.00
    0   17    1      3.10      0.00
    1   17    1      2.57      0.00
    2   17    1     -6.33      0.00
    3   17    1     -3.17      0.00
    4   17    1      4.90      0.00
    5   17    1     -0.29      0.00
    6   17    1      1.34      0.00
    7   17    1      1.36      0.00
    8   17    1     -3.06      0.00
    9   17    1     -0.05      0.00
   10   17    1     -0.73      0.00
   11   17    1     -1.92      0.00
   12   17    1      2.12      0.00
   13   17    1      0.41      0.00
   14   17    1      0.87      0.00
   15   17    1     -1.91      0.00
   16   17    1     -0.34      0.00
   17   17    1      1.27      0.00
   18   17    1     -1.97      0.00
   19   17    1     -1.16      0.00
   -2   18    1      2.99      0.00
   -1   18    1     -0.41      0.00
    0   18    1     -0.01      0.00
    1   18    1      4.07      0.00
    2   18    1      0.65      0.00
    3   18    1     -5.36      0.00
    4   18    1      0.44      0.00
    5   18    1      0.90      0.00
    6   18    1     -1.44      0.00
    7   18    1      4.47      0.00
    8   18    1      2.63      0.00
    9   18    1     -0.91      0.00
   10   18    1      0.43      0.00
   11   18    1     -0.95      0.00
   12   18    1     -0.64      0.00
   13   18    1     -0.64      0.00
   14   18    1      0.56      0.00
   15   18    1     -1.52      0.00
   16   18    1      0.74      0.00
   17   18    1      1.23      0.00
   18   18    1      0.21      0.00
   -1   19    1      3.56      0.00
    0   19    1     -0.22      0.00
    1   19    1      1.70      0.00
    2   19    1      0.44      0.00
    3   19    1     -0.88      0.00
    4   19    1      2.54      0.00
    5   19    1     -5.90      0.00
    6   19    1      0.91      0.00
    7   19    1      1.12      0.00
    8   19    1      3.77      0.00
    9   19    1      4.08      0.00
   10   19    1      0.05      0.00
   11   19    1     -0.66      0.00
   12   19    1      2.47      0.00
   13   19    1     -3.75      0.00
   14   19    1     -0.28      0.00
   15   19    1      0.17      0.00
   16   19    1      2.03      0.00
   17   19    1      0.65      0.00
   18   19    1     -0.18      0.00
    1   20    1      3.96      0.00
    2   20    1      1.27      0.00
    3   20    1     -0.10      0.00
    4   20    1      1.74      0.00
    5   20    1     -1.58      0.00
    6   20    1     -1.72      0.00
    7   20    1     -1.18      0.00
    8   20    1      1.83      0.00
    9   20    1      3.61      0.00
   10   20    1      2.13      0.00
   11   20    1      1.07      0.00
   12   20    1      0.78      0.00
   13   20    1     -3.09      0.00
   14   20    1      2.28      0.00
   15   20    1      1.39      0.00
   16   20    1      0.26      0.00
   17   20    1      1.05      0.00
    3   21    1      1.40      0.00
    4   21    1      2.95      0.00
    5   21    1     -0.47      0.00
    6   21    1      4.47      0.00
    7   21    1     -3.08      0.00
    8   21    1     -1.59      0.00
    9   21    1     -2.78      0.00
   10   21    1      3.72      0.00
   11   21    1      3.29      0.00
   12   21    1      0.61      0.00
   13   21    1     -1.59      0.00
   14   21    1      1.54      0.00
   15   21    1      0.99      0.00
   16   21    1      1.38      0.00
    6   22    1      1.42      0.00
    7   22    1      2.66      0.00
    8   22    1      1.44      0.00
    9   22    1     -6.12      0.00
   10   22    1     -1.66      0.00
   11   22    1      1.06      0.00
   12   22    1      5.38      0.00
   13   22    1      0.02      0.00
   14   22    1     -0.68      0.00
  -13  -22    2     -4.68      0.00
  -12  -22    2      4.84      0.00
  -11  -22    2     -1.54      0.00
  -10  -22    2     -6.84      0.00
   -9  -22    2     -1.92      0.00
   -8  -22    2      0.56      0.00
   -7  -22    2      0.20      0.00
   -6  -22    2      0.38      0.00
   -5  -22    2      1.58      0.00
  -15  -21    2     -4.00      0.00
  -14  -21    2     -0.03      0.00
  -13  -21    2     -1.26      0.00
  -12  -21    2      1.84      0.00
  -11  -21    2     -3.64      0.00
  -10  -21    2     -1.03      0.00
   -9  -21    2     -5.06      0.00
   -8  -21    2     -0.58      0.00
   -7  -21    2      0.12      0.00
   -6  -21    2     -2.49      0.00
   -5  -21    2      3.64      0.00
   -4  -21    2     -1.36      0.00
   -3  -21    2      0.10      0.00
  -16  -20    2     -1.73      0.00
  -15  -20    2     -0.96      0.00
  -14  -20    2     -2.60      0.00
  -13  -20    2     -1.47      0.00
  -12  -20    2      1.99      0.00
  -11  -20    2     -4.11      0.00
  -10  -20    2     -0.30      0.00
   -9  -20    2     -0.76      0.00
   -8  -20    2     -2.47      0.00
   -7  -20    2     -2.53      0.00
   -6  -20    2      0.35      0.00
   -5  -20    2      0.39      0.00
   -4  -20    2     -2.39      0.00
   -3  -20    2     -3.30      0.00
   -2  -20    2     -0.14      0.00
   -1  -20    2      3.89      0.00
    0  -20    2     -2.16      0.00
  -17  -19    2      0.34      0.00
  -16  -19    2      0.11      0.00
  -15  -19    2     -2.12      0.00
  -14  -19    2      0.51      0.00
  -13  -19    2     -6.24      0.00
  -12  -19    2      0.65      0.00
  -11  -19    2     -1.14      0.00
  -10  -19    2     -0.58      0.00
   -9  -19    2      0.36      0.00
   -8  -19    2      1.84      0.00
   -7  -19    2     -4.45      0.00
   -6  -19    2     -1.91      0.00
   -5  -19    2     -1.13      0.00
   -4  -19    2     -2.06      0.00
   -3  -19    2     -0.17      0.00
   -2  -19    2     -3.00      0.00
   -1  -19    2     -1.85      0.00
    0  -19    2     -2.56      0.00
    1  -19    2     -0.14      0.00
  -18  -18    2      0.13      0.00
  -17  -18    2      2.25      0.00
  -16  -18    2      0.50      0.00
  -15  -18    2     -1.49      0.00
  -14  -18    2     -3.43      0.00
  -13  -18    2     -0.91      0.00
  -12  -18    2     -0.53      0.00
  -11  -18    2     -4.46      0.00
  -10  -18    2      1.71      0.00
   -9  -18    2      2.89      0.00
   -8  -18    2     -3.87      0.00
   -7  -18    2      3.15      0.00
   -6  -18    2     -1.70      0.00
   -5  -18    2     -6.28      0.00
   -4  -18    2      1.57      0.00
   -3  -18    2      0.24      0.00
   -2  -18    2     -3.99      0.00
   -1  -18    2      0.12      0.00
    0  -18    2     -5.25      0.00
    1  -18    2     -3.68      0.00
    2  -18    2      0.72      0.00
    3  -18    2      0.42      0.00
  -18  -17    2      1.74      0.00
  -17  -17    2      2.94      0.00
  -16  -17    2      1.78      0.00
  -15  -17    2     -3.03      0.00
  -14  -17    2     -1.09      0.00
  -13  -17    2     -2.37      0.00
  -12  -17    2      0.85      0.00
  -11  -17    2     -3.57      0.00
  -10  -17    2      4.46      0.00
   -9  -17    2      0.88      0.00
   -8  -17    2     -6.99      0.00
   -7  -17    2      3.35      0.00
   -6  -17    2      2.42      0.00
   -5  -17    2     -1.60      0.00
   -4  -17    2      0.59      0.00
   -3  -17    2     -2.83      0.00
   -2  -17    2     -3.67      0.00
   -1  -17    2      2.33      0.00
    0  -17    2      1.55      0.00
    1  -17    2     -4.70      0.00
    2  -17    2     -4.51      0.00
    3  -17    2      0.45      0.00
    4  -17    2     -0.07      0.00
  -18  -16    2     -0.48      0.00
  -17  -16    2      2.71      0.00
  -16  -16    2      0.30      0.00
  -15  -16    2      0.69      0.00
  -14  -16    2     -1.14      0.00
  -13  -16    2     -1.30      0.00
  -12  -16    2     -2.49      0.00
  -11  -16    2      0.07      0.00
  -10  -16    2      3.58      0.00
   -9  -16    2      1.53      0.00
   -8  -16    2     -2.07      0.00
   -7  -16    2      1.07      0.00
   -6  -16    2     -2.80      0.00
   -5  -16    2      3.99      0.00
   -4  -16    2      3.14      0.00
   -3  -16    2     -0.43      0.00
   -2  -16    2      0.03      0.00
   -1  -16    2     -2.47      0.00
    0  -16    2      0.06      0.00
    1  -16    2      4.85      0.00
    2  -16    2     -2.83      0.00
    3  -16    2     -2.68      0.00
    4  -16    2      3.65      0.00
    5  -16    2     -1.82      0.00
    6  -16    2      0.70      0.00
  -19  -15    2      2.02      0.00
  -18  -15    2      0.31      0.00
  -17  -15    2      1.17      0.00
  -16  -15    2      0.39      0.00
  -15  -15    2     -0.94      0.00
  -14  -15    2      0.78      0.00
  -13  -15    2     -0.66      0.00
  -12  -15    2     -0.17      0.00
  -11  -15    2     -3.01      0.00
  -10  -15    2      2.03      0.00
   -9  -15    2      0.73      0.00
   -8  -15    2      2.62      0.00
   -7  -15    2      3.39      0.00
   -6  -15    2     -2.53      0.00
   -5  -15    2      1.06      0.00
   -4  -15    2      5.18      0.00
   -3  -15    2      4.24      0.00
   -2  -15    2      0.54      0.00
   -1  -15    2     -1.47      0.00
    0  -15    2     -0.32      0.00
    1  -15    2      4.27      0.00
    2  -15    2     -0.12      0.00
    3  -15    2      1.06      0.00
    4  -15    2      6.65      0.00
    5  -15    2     -3.00      0.00
    6  -15    2     -1.00      0.00
    7  -15    2      1.51      0.00
  -19  -14    2     -0.91      0.00
  -18  -14    2      4.12      0.00
  -17  -14    2      1.73      0.00
  -16  -14    2     -4.04      0.00
  -15  -14    2      2.65      0.00
  -14  -14    2     -1.99      0.00
  -13  -14    2      2.38      0.00
  -12  -14    2     -2.05      0.00
  -11  -14    2     -0.27      0.00
  -10  -14    2      0.89      0.00
   -9  -14    2     -1.18      0.00
   -8  -14    2     -1.10      0.00
   -7  -14    2      5.23      0.00
   -6  -14    2      3.66      0.00
   -5  -14    2      5.33      0.00
   -4  -14    2      1.82      0.00
   -3  -14    2     -0.36      0.00
   -2  -14    2      2.72      0.00
   -1  -14    2      3.07      0.00
    0  -14    2      3.75      0.00
    1  -14    2      0.83      0.00
    2  -14    2     -3.47      0.00
    3  -14    2      3.79      0.00
    4  -14    2      7.42      0.00
    5  -14    2     -2.07      0.00
    6  -14    2      3.25      0.00
    7  -14    2     -2.79      0.00
    8  -14    2      0.02      0.00
  -19  -13    2      1.26      0.00
  -18  -13    2      0.01      0.00
  -17  -13    2      3.47      0.00
  -16  -13    2     -3.38      0.00
  -15  -13    2     -1.63      0.00
  -14  -13    2      4.59      0.00
  -13  -13    2     -0.84      0.00
  -12  -13    2     -3.50      0.00
  -11  -13    2      1.19      0.00
  -10  -13    2      1.61      0.00
   -9  -13    2     -1.31      0.00
   -8  -13    2      3.57      0.00
   -7  -13    2     -2.25      0.00
   -6  -13    2      6.40      0.00
   -5  -13    2      6.85      0.00
   -4  -13    2      1.36      0.00
   -3  -13    2     -1.74      0.00
   -2  -13    2      7.78      0.00
   -1  -13    2      3.27      0.00
    0  -13    2     -2.29      0.00
    1  -13    2      4.94      0.00
    2  -13    2     -1.31      0.00
    3  -13    2      1.01      0.00
    4  -13    2      5.55      0.00
    5  -13    2     -2.59      0.00
    6  -13    2      2.71      0.00
    7  -13    2     -2.17      0.00
    8  -13    2      1.41      0.00
    9  -13    2      3.64      0.00
  -19  -12    2      0.01      0.00
  -18  -12    2     -0.09      0.00
  -17  -12    2      0.34      0.00
  -16  -12    2      1.30      0.00
  -15  -12    2     -0.68      0.00
  -14  -12    2     -2.45      0.00
  -13  -12    2      4.94      0.00
  -12  -12    2     -3.87      0.00
  -11  -12    2      2.26      0.00
  -10  -12    2     -3.73      0.00
   -9  -12    2      2.10      0.00
   -8  -12    2      7.77      0.00
   -7  -12    2      1.81      0.00
   -6  -12    2     -2.00      0.00
   -5  -12    2      7.82      0.00
   -4  -12    2     -1.06      0.00
   -3  -12    2      3.24      0.00
   -2  -12    2     11.26      0.00
   -1  -12    2     -1.93      0.00
    0  -12    2     -4.99      0.00
    1  -12    2      2.23      0.00
    2  -12    2      9.39      0.00
    3  -12    2      0.49      0.00
    4  -12    2     -0.39      0.00
    5  -12    2     -2.30      0.00
    6  -12    2     -1.39      0.00
    7  -12    2     -2.90      0.00
    8  -12    2      6.05      0.00
    9  -12    2      0.09      0.00
   10  -12    2      0.51      0.00
  -19  -11    2     -0.20      0.00
  -18  -11    2     -4.48      0.00
  -17  -11    2      3.89      0.00
  -16  -11    2     -1.08      0.00
  -15  -11    2      0.82      0.00
  -14  -11    2      0.10      0.00
  -13  -11    2     -2.57      0.00
  -12  -11    2      2.57      0.00
  -11  -11    2      2.08      0.00
  -10  -11    2     -0.48      0.00
   -9  -11    2     -0.89      0.00
   -8  -11    2      4.86      0.00
   -7  -11    2      0.08      0.00
   -6  -11    2      7.31      0.00
   -5  -11    2      4.57      0.00
   -4  -11    2      0.32      0.00
   -3  -11    2      1.33      0.00
   -2  -11    2      6.96      0.00
   -1  -11    2      0.26      0.00
    0  -11    2     -3.42      0.00
    1  -11    2      4.13      0.00
    2  -11    2      6.91      0.00
    3  -11    2      2.31      0.00
    4  -11    2      1.02      0.00
    5  -11    2     -4.45      0.00
    6  -11    2     -2.75      0.00
    7  -11    2     -1.65      0.00
    8  -11    2      5.39      0.00
    9  -11    2     -1.67      0.00
   10  -11    2     -3.44      0.00
   11  -11    2      4.35      0.00
  -19  -10    2      0.69      0.00
  -18  -10    2     -1.47      0.00
  -17  -10    2     -1.91      0.00
  -16  -10    2      0.01      0.00
  -15  -10    2      2.01      0.00
  -14  -10    2      0.80      0.00
  -13  -10    2     -0.28      0.00
  -12  -10    2     -2.64      0.00
  -11  -10    2      4.37      0.00
  -10  -10    2      0.23      0.00
   -9  -10    2      4.40      0.00
   -8  -10    2     -0.45      0.00
   -7  -10    2     -0.31      0.00
   -6  -10    2      2.40      0.00
   -5  -10    2     10.95      0.00
   -4  -10    2     -2.26      0.00
   -3  -10    2      6.01      0.00
   -2  -10    2      1.16      0.00
   -1  -10    2     -2.26      0.00
    0  -10    2      6.06      0.00
    1  -10    2      4.82      0.00
    2  -10    2      6.72      0.00
    3  -10    2     -4.20      0.00
    4  -10    2      5.03      0.00
    5  -10    2     -4.21      0.00
    6  -10    2     -1.32      0.00
    7  -10    2      1.04      0.00
    8  -10    2      4.93      0.00
    9  -10    2     -4.74      0.00
   10  -10    2     -0.12      0.00
   11  -10    2     -0.51      0.00
   12  -10    2      0.12      0.00
  -19   -9    2      0.13      0.00
  -18   -9    2     -2.23      0.00
  -17   -9    2     -0.05      0.00
  -16   -9    2     -1.24      0.00
  -15   -9    2      2.26      0.00
  -14   -9    2     -1.12      0.00
  -13   -9    2      2.02      0.00
  -12   -9    2      2.32      0.00
  -11   -9    2     -0.10      0.00
  -10   -9    2     -0.26      0.00
   -9   -9    2     -0.52      0.00
   -8   -9    2      8.18      0.00
   -7   -9    2      2.17      0.00
   -6   -9    2      0.40      0.00
   -5   -9    2     -3.78      0.00
   -4   -9    2      3.43      0.00
   -3   -9    2     11.49      0.00
   -2   -9    2     -1.74      0.00
   -1   -9    2      0.16      0.00
    0   -9    2      7.12      0.00
    1   -9    2      9.87      0.00
    2   -9    2      3.40      0.00
    3   -9    2     -3.34      0.00
    4   -9    2      0.12      0.00
    5   -9    2      1.17      0.00
    6   -9    2      4.72      0.00
    7   -9    2     -0.29      0.00
    8   -9    2      2.39      0.00
    9   -9    2     -1.48      0.00
   10   -9    2     -2.00      0.00
   11   -9    2      0.87      0.00
   12   -9    2     -2.62      0.00
  -19   -8    2      0.18      0.00
  -18   -8    2     -2.49      0.00
  -17   -8    2     -0.03      0.00
  -16   -8    2      0.65      0.00
  -15   -8    2     -1.43      0.00
  -14   -8    2      0.05      0.00
  -13   -8    2      0.00      0.00
  -12   -8    2      1.99      0.00
  -11   -8    2      3.62      0.00
  -10   -8    2      1.66      0.00
   -9   -8    2     -1.73      0.00
   -8   -8    2      1.00      0.00
   -7   -8    2     11.24      0.00
   -6   -8    2     -2.60      0.00
   -5   -8    2      0.27      0.00
   -4   -8    2     -2.06      0.00
   -3   -8    2      9.81      0.00
   -2   -8    2     -8.36      0.00
   -1   -8    2     11.43      0.00
    0   -8    2     15.87      0.00
    1   -8    2     -4.77      0.00
    2   -8    2      6.15      0.00
    3   -8    2      0.31      0.00
    4   -8    2     -3.11      0.00
    5   -8    2      6.01      0.00
    6   -8    2     14.14      0.00
    7   -8    2     -4.68      0.00
    8   -8    2     -1.07      0.00
    9   -8    2     -1.90      0.00
   10   -8    2      0.53      0.00
   11   -8    2     -0.94      0.00
   12   -8    2      1.84      0.00
   13   -8    2     -0.51      0.00
  -19   -7    2      0.81      0.00
  -18   -7    2     -0.03      0.00
  -17   -7    2      1.18      0.00
  -16   -7    2     -3.06      0.00
  -15   -7    2     -0.41      0.00
  -14   -7    2      2.90      0.00
  -13   -7    2      0.60      0.00
  -12   -7    2     -5.33      0.00
  -11   -7    2     -2.38      0.00
  -10   -7    2      4.68      0.00
   -9   -7    2      8.88      0.00
   -8   -7    2      1.36      0.00
   -7   -7    2     -4.14      0.00
   -6   -7    2      9.26      0.00
   -5   -7    2     -2.47      0.00
   -4   -7    2     12.18      0.00
   -3   -7    2     -3.79      0.00
   -2   -7    2    -13.49      0.00
   -1   -7    2     24.88      0.00
    0   -7    2      7.83      0.00
    1   -7    2     -7.56      0.00
    2   -7    2      3.12      0.00
    3   -7    2      6.68      0.00
    4   -7    2     -4.02      0.00
    5   -7    2      8.19      0.00
    6   -7    2     16.02      0.00
    7   -7    2     -5.68      0.00
    8   -7    2     -2.77      0.00
    9   -7    2      0.43      0.00
   10   -7    2     -0.68      0.00
   11   -7    2      1.79      0.00
   12   -7    2     -0.27      0.00
   13   -7    2      1.57      0.00
   14   -7    2     -2.94      0.00
  -19   -6    2      0.61      0.00
  -18   -6    2     -0.22      0.00
  -17   -6    2      2.58      0.00
  -16   -6    2     -1.31      0.00
  -15   -6    2      0.52      0.00
  -14   -6    2      1.43      0.00
  -13   -6    2      0.89      0.00
  -12   -6    2      0.55      0.00
  -11   -6    2    -10.10      0.00
  -10   -6    2     -1.95      0.00
   -9   -6    2      8.14      0.00
   -8   -6    2      5.96      0.00
   -7   -6    2      1.37      0.00
   -6   -6    2     -3.33      0.00
   -5   -6    2     12.56      0.00
   -4   -6    2     -1.83      0.00
   -3   -6    2      7.14      0.00
   -2   -6    2     -3.68      0.00
   -1   -6    2     21.89      0.00
    0   -6    2     -5.39      0.00
    1   -6    2    -13.05      0.00
    2   -6    2      9.21      0.00
    3   -6    2      5.45      0.00
    4   -6    2     -3.06      0.00
    5   -6    2      9.85      0.00
    6   -6    2     12.83      0.00
    7   -6    2    -11.65      0.00
    8   -6    2     -0.60      0.00
    9   -6    2      6.19      0.00
   10   -6    2      0.54      0.00
   11   -6    2     -4.32      0.00
   12   -6    2      3.71      0.00
   13   -6    2      0.42      0.00
   14   -6    2     -1.06      0.00
   15   -6    2     -1.29      0.00
  -18   -5    2      0.09      0.00
  -17   -5    2      2.63      0.00
  -16   -5    2      1.12      0.00
  -15   -5    2      0.84      0.00
  -14   -5    2     -0.59      0.00
  -13   -5    2      0.14      0.00
  -12   -5    2      2.36      0.00
  -11   -5    2     -3.64      0.00
  -10   -5    2      0.41      0.00
   -9   -5    2      3.61      0.00
   -8   -5    2    -11.03      0.00
   -7   -5    2      4.59      0.00
   -6   -5    2     16.74      0.00
   -5   -5    2     -7.47      0.00
   -4   -5    2      4.72      0.00
   -3   -5    2     -5.15      0.00
   -2   -5    2     21.29      0.00
   -1   -5    2     23.20      0.00
    0   -5    2    -14.10      0.00
    1   -5    2     -6.20      0.00
    2   -5    2    -16.04      0.00
    3   -5    2     12.26      0.00
    4   -5    2      4.47      0.00
    5   -5    2      8.24      0.00
    6   -5    2      5.29      0.00
    7   -5    2    -10.36      0.00
    8   -5    2      1.18      0.00
    9   -5    2     -0.15      0.00
   10   -5    2      1.69      0.00
   11   -5    2      1.61      0.00
   12   -5    2     -1.27      0.00
   13   -5    2      3.16      0.00
   14   -5    2      0.52      0.00
   15   -5    2      0.19      0.00
  -18   -4    2      0.42      0.00
  -17   -4    2      0.73      0.00
  -16   -4    2     -0.08      0.00
  -15   -4    2      1.84      0.00
  -14   -4    2      1.02      0.00
  -13   -4    2      0.67      0.00
  -12   -4    2     -0.07      0.00
  -11   -4    2     -3.56      0.00
  -10   -4    2      9.42      0.00
   -9   -4    2      0.60      0.00
   -8   -4    2     -7.65      0.00
   -7   -4    2     -5.32      0.00
   -6   -4    2     10.81      0.00
   -5   -4    2      1.10      0.00
   -4   -4    2    -11.99      0.00
   -3   -4    2     33.25      0.00
   -2   -4    2    -14.47      0.00
   -1   -4    2     32.82      0.00
    0   -4    2     -2.27      0.00
    1   -4    2     -6.35      0.00
    2   -4    2    -14.87      0.00
    3   -4    2      1.20      0.00
    4   -4    2      8.07      0.00
    5   -4    2      2.99      0.00
    6   -4    2      1.77      0.00
    7   -4    2     -3.62      0.00
    8   -4    2      0.70      0.00
    9   -4    2     -4.88      0.00
   10   -4    2      1.35      0.00
   11   -4    2      1.24      0.00
   12   -4    2      3.78      0.00
   13   -4    2     -2.57      0.00
   14   -4    2      0.59      0.00
   15   -4    2      2.11      0.00
   16   -4    2      0.97      0.00
  -18   -3    2     -0.71      0.00
  -17   -3    2     -2.53      0.00
  -16   -3    2      1.53      0.00
  -15   -3    2      1.76      0.00
  -14   -3    2      1.81      0.00
  -13   -3    2      1.01      0.00
  -12   -3    2      0.36      0.00
  -11   -3    2      0.74      0.00
  -10   -3    2      3.20      0.00
   -9   -3    2     -4.16      0.00
   -8   -3    2     -1.26      0.00
   -7   -3    2     10.27      0.00
   -6   -3    2    -12.25      0.00
   -5   -3    2    -11.36      0.00
   -4   -3    2     15.39      0.00
   -3   -3    2      1.86      0.00
   -2   -3    2     34.89      0.00
   -1   -3    2     -0.52      0.00
    0   -3    2    -22.99      0.00
    1   -3    2     28.04      0.00
    2   -3    2    -12.39      0.00
    3   -3    2     15.79      0.00
    4   -3    2     -4.15      0.00
    5   -3    2     -9.05      0.00
    6   -3    2     -1.58      0.00
    7   -3    2      2.98      0.00
    8   -3    2     -0.66      0.00
    9   -3    2     -2.88      0.00
   10   -3    2      6.55      0.00
   11   -3    2     -3.01      0.00
   12   -3    2     -0.39      0.00
   13   -3    2      0.90      0.00
   14   -3    2     -3.07      0.00
   15   -3    2      3.01      0.00
   16   -3    2      1.79      0.00
  -18   -2    2     -2.95      0.00
  -17   -2    2      0.55      0.00
  -16   -2    2      2.02      0.00
  -15   -2    2     -0.95      0.00
  -14   -2    2      2.02      0.00
  -13   -2    2     -1.91      0.00
  -12   -2    2      4.19      0.00
  -11   -2    2      4.46      0.00
  -10   -2    2      1.08      0.00
   -9   -2    2     -8.57      0.00
   -8   -2    2      1.94      0.00
   -7   -2    2     -1.82      0.00
   -6   -2    2      0.54      0.00
   -5   -2    2     -7.97      0.00
   -4   -2    2     -0.52      0.00
   -3   -2    2      7.77      0.00
   -2   -2    2    -13.56      0.00
   -1   -2    2     58.79      0.00
    0   -2    2    -48.25      0.00
    1   -2    2     36.58      0.00
    2   -2    2     -0.97      0.00
    3   -2    2     13.79      0.00
    4   -2    2     14.28      0.00
    5   -2    2    -18.96      0.00
    6   -2    2     -5.71      0.00
    7   -2    2     -3.30      0.00
    8   -2    2     -0.82      0.00
    9   -2    2      2.30      0.00
   10   -2    2      5.25      0.00
   11   -2    2      0.32      0.00
   12   -2    2     -1.63      0.00
   13   -2    2     -2.81      0.00
   14   -2    2      2.39      0.00
   15   -2    2     -0.55      0.00
   16   -2    2      0.76      0.00
   17   -2    2      1.69      0.00
  -17   -1    2      2.89      0.00
  -16   -1    2      0.23      0.00
  -15   -1    2     -3.42      0.00
  -14   -1    2      1.10      0.00
  -13   -1    2     -0.23      0.00
  -12   -1    2      1.79      0.00
  -11   -1    2      4.34      0.00
  -10   -1    2      2.55      0.00
   -9   -1    2     -3.71      0.00
   -8   -1    2      1.22      0.00
   -7   -1    2    -11.69      0.00
   -6   -1    2     -4.92      0.00
   -5   -1    2     12.53      0.00
   -4   -1    2     -9.19      0.00
   -3   -1    2     -0.98      0.00
   -2   -1    2      7.74      0.00
   -1   -1    2    -49.35      0.00
    0   -1    2      7.25      0.00
    1   -1    2     76.18      0.00
    2   -1    2     -5.16      0.00
    3   -1    2      7.42      0.00
    4   -1    2      3.79      0.00
    5   -1    2      3.23      0.00
    6   -1    2     -8.71      0.00
    7   -1    2     -6.20      0.00
    8   -1    2     -2.68      0.00
    9   -1    2     -1.28      0.00
   10   -1    2      7.35      0.00
   11   -1    2     -2.13      0.00
   12   -1    2     -0.87      0.00
   13   -1    2      0.69      0.00
   14   -1    2     -0.70      0.00
   15   -1    2      2.02      0.00
   16   -1    2     -1.64      0.00
   17   -1    2      0.98      0.00
  -17    0    2      0.51      0.00
  -16    0    2     -2.34      0.00
  -15    0    2     -2.75      0.00
  -14    0    2      0.55      0.00
  -13    0    2     -1.01      0.00
  -12    0    2      2.66      0.00
  -11    0    2      1.89      0.00
  -10    0    2      0.99      0.00
   -9    0    2     -1.44      0.00
   -8    0    2      2.66      0.00
   -7    0    2    -11.33      0.00
   -6    0    2     -0.27      0.00
   -5    0    2     -1.23      0.00
   -4    0    2     -0.23      0.00
   -3    0    2     -4.42      0.00
   -2    0    2     16.79      0.00
   -1    0    2    -32.10      0.00
    2    0    2     30.45      0.00
    3    0    2    -12.48      0.00
    4    0    2     -0.56      0.00
    5    0    2      2.13      0.00
    6    0    2     -1.14      0.00
    7    0    2     -6.23      0.00
    8    0    2      8.50      0.00
    9    0    2     -2.30      0.00
   10    0    2     -1.80      0.00
   11    0    2     -3.96      0.00
   12    0    2     -1.41      0.00
   13    0    2      2.11      0.00
   14    0    2      0.41      0.00
   15    0    2     -0.44      0.00
   16    0    2      0.05      0.00
   17    0    2     -0.47      0.00
   18    0    2      2.54      0.00
  -16    1    2     -1.97      0.00
  -15    1    2     -4.69      0.00
  -14    1    2      0.07      0.00
  -13    1    2      0.72      0.00
  -12    1    2     -0.76      0.00
  -11    1    2      4.76      0.00
  -10    1    2     -2.51      0.00
   -9    1    2     -2.70      0.00
   -8    1    2      2.75      0.00
   -7    1    2     -8.40      0.00
   -6    1    2      6.53      0.00
   -5    1    2      4.23      0.00
   -4    1    2    -13.72      0.00
   -3    1    2    -10.59      0.00
   -2    1    2      7.62      0.00
   -1    1    2    -29.07      0.00
    0    1    2    -25.90      0.00
    1    1    2     40.37      0.00
    2    1    2     -3.47      0.00
    3    1    2      1.17      0.00
    4    1    2     22.96      0.00
    5    1    2      2.07      0.00
    6    1    2    -14.39      0.00
    7    1    2      8.01      0.00
    8    1    2     10.33      0.00
    9    1    2      1.21      0.00
   10    1    2     -4.97      0.00
   11    1    2     -7.66      0.00
   12    1    2     -0.38      0.00
   13    1    2      1.60      0.00
   14    1    2      0.69      0.00
   15    1    2     -0.46      0.00
   16    1    2     -2.35      0.00
   17    1    2      2.18      0.00
   18    1    2     -1.30      0.00
  -16    2    2     -2.72      0.00
  -15    2    2     -4.11      0.00
  -14    2    2      0.17      0.00
  -13    2    2     -0.33      0.00
  -12    2    2      0.65      0.00
  -11    2    2     -1.59      0.00
  -10    2    2      0.83      0.00
   -9    2    2     -1.96      0.00
   -8    2    2     -0.56      0.00
   -7    2    2      0.52      0.00
   -6    2    2      5.52      0.00
   -5    2    2     -1.79      0.00
   -4    2    2     -1.04      0.00
   -3    2    2    -15.08      0.00
   -2    2    2    -21.03      0.00
   -1    2    2    -26.44      0.00
    0    2    2     34.99      0.00
    1    2    2     57.10      0.00
    2    2    2    -94.03      0.00
    3    2    2      9.49      0.00
    4    2    2     18.42      0.00
    5    2    2      7.39      0.00
    6    2    2      1.51      0.00
    7    2    2      6.67      0.00
    8    2    2      7.87      0.00
    9    2    2     -6.79      0.00
   10    2    2     -0.73      0.00
   11    2    2     -1.12      0.00
   12    2    2      0.03      0.00
   13    2    2     -1.15      0.00
   14    2    2      1.22      0.00
   15    2    2     -0.05      0.00
   16    2    2     -0.71      0.00
   17    2    2     -2.37      0.00
   18    2    2     -0.30      0.00
   19    2    2     -1.20      0.00
  -15    3    2     -1.84      0.00
  -14    3    2      0.31      0.00
  -13    3    2     -1.13      0.00
  -12    3    2     -2.60      0.00
  -11    3    2      0.65      0.00
  -10    3    2     -3.00      0.00
   -9    3    2     -0.02      0.00
   -8    3    2      3.04      0.00
   -7    3    2      4.96      0.00
   -6    3    2      0.81      0.00
   -5    3    2    -10.43      0.00
   -4    3    2      4.62      0.00
   -3    3    2     -5.50      0.00
   -2    3    2    -25.71      0.00
   -1    3    2     -5.81      0.00
    0    3    2     21.65      0.00
    1    3    2     -1.97      0.00
    2    3    2    -22.15      0.00
    3    3    2      6.17      0.00
    4    3    2     -7.21      0.00
    5    3    2    -10.02      0.00
    6    3    2     17.33      0.00
    7    3    2     14.71      0.00
    8    3    2      1.17      0.00
    9    3    2     -3.85      0.00
   10    3    2     -5.30      0.00
   11    3    2      1.70      0.00
   12    3    2      2.38      0.00
   13    3    2      0.84      0.00
   14    3    2     -0.13      0.00
   15    3    2      1.97      0.00
   16    3    2     -2.03      0.00
   17    3    2     -3.15      0.00
   18    3    2     -0.67      0.00
   19    3    2     -0.94      0.00
  -15    4    2      1.68      0.00
  -14    4    2     -2.93      0.00
  -13    4    2      0.33      0.00
  -12    4    2     -2.54      0.00
  -11    4    2     -2.83      0.00
  -10    4    2      1.29      0.00
   -9    4    2     -3.02      0.00
   -8    4    2      5.71      0.00
   -7    4    2      3.97      0.00
   -6    4    2     -1.71      0.00
   -5    4    2     -4.79      0.00
   -4    4    2      4.28      0.00
   -3    4    2    -14.31      0.00
   -2    4    2    -13.79      0.00
   -1    4    2     16.74      0.00
    0    4    2     -0.09      0.00
    1    4    2    -31.35      0.00
    2    4    2     -9.87      0.00
    3    4    2     21.81      0.00
    4    4    2    -14.43      0.00
    5    4    2      2.30      0.00
    6    4    2      2.11      0.00
    7    4    2      9.40      0.00
    8    4    2      6.28      0.00
    9    4    2      6.66      0.00
   10    4    2     -2.30      0.00
   11    4    2     -4.36      0.00
   12    4    2      1.28      0.00
   13    4    2      1.48      0.00
   14    4    2      3.90      0.00
   15    4    2     -1.08      0.00
   16    4    2     -0.88      0.00
   17    4    2     -1.77      0.00
   18    4    2     -0.91      0.00
   19    4    2     -3.36      0.00
  -14    5    2      2.38      0.00
  -13    5    2      1.46      0.00
  -12    5    2     -4.96      0.00
  -11    5    2     -0.22      0.00
  -10    5    2     -1.87      0.00
   -9    5    2      1.27      0.00
   -8    5    2      2.49      0.00
   -7    5    2      1.34      0.00
   -6    5    2      3.29      0.00
   -5    5    2     -3.22      0.00
   -4    5    2      0.77      0.00
   -3    5    2     -9.34      0.00
   -2    5    2     -9.18      0.00
   -1    5    2      7.34      0.00
    0    5    2      5.45      0.00
    1    5    2    -22.41      0.00
    2    5    2    -16.14      0.00
    3    5    2      2.11      0.00
    4    5    2     -9.44      0.00
    5    5    2     10.20      0.00
    6    5    2     13.18      0.00
    7    5    2     -9.34      0.00
    8    5    2      8.15      0.00
    9    5    2      9.01      0.00
   10    5    2      1.59      0.00
   11    5    2      4.23      0.00
   12    5    2      0.82      0.00
   13    5    2     -1.40      0.00
   14    5    2      0.41      0.00
   15    5    2      1.48      0.00
   16    5    2     -0.45      0.00
   17    5    2      0.10      0.00
   18    5    2     -1.49      0.00
   19    5    2     -4.32      0.00
   20    5    2     -0.49      0.00
  -13    6    2      4.96      0.00
  -12    6    2     -5.18      0.00
  -11    6    2      1.79      0.00
  -10    6    2     -0.01      0.00
   -9    6    2     -1.28      0.00
   -8    6    2      1.06      0.00
   -7    6    2      3.94      0.00
   -6    6    2      6.50      0.00
   -5    6    2     -9.81      0.00
   -4    6    2     -3.13      0.00
   -3    6    2      3.78      0.00
   -2    6    2      1.27      0.00
   -1    6    2      0.54      0.00
    0    6    2     -3.28      0.00
    1    6    2    -16.28      0.00
    2    6    2    -10.13      0.00
    3    6    2      1.81      0.00
    4    6    2    -11.93      0.00
    5    6    2      5.50      0.00
    6    6    2      5.44      0.00
    7    6    2      0.37      0.00
    8    6    2      3.36      0.00
    9    6    2      7.81      0.00
   10    6    2     -2.84      0.00
   11    6    2      7.83      0.00
   12    6    2      8.10      0.00
   13    6    2     -1.21      0.00
   14    6    2      0.12      0.00
   15    6    2     -0.17      0.00
   16    6    2      1.70      0.00
   17    6    2     -2.10      0.00
   18    6    2     -0.52      0.00
   19    6    2     -1.85      0.00
   20    6    2      0.65      0.00
  -13    7    2     -2.24      0.00
  -12    7    2      2.60      0.00
  -11    7    2      3.91      0.00
  -10    7    2     -2.00      0.00
   -9    7    2      1.41      0.00
   -8    7    2     -1.58      0.00
   -7    7    2      2.78      0.00
   -6    7    2      7.30      0.00
   -5    7    2    -10.27      0.00
   -4    7    2     -2.55      0.00
   -3    7    2     10.29      0.00
   -2    7    2      3.90      0.00
   -1    7    2      0.14      0.00
    0    7    2     -1.03      0.00
    1    7    2    -16.72      0.00
    2    7    2     -5.92      0.00
    3    7    2      5.60      0.00
    4    7    2     -5.57      0.00
    5    7    2      1.05      0.00
    6    7    2     -5.91      0.00
    7    7    2     -2.12      0.00
    8    7    2      8.70      0.00
    9    7    2      0.80      0.00
   10    7    2      4.50      0.00
   11    7    2      1.75      0.00
   12    7    2      1.96      0.00
   13    7    2      3.39      0.00
   14    7    2      3.30      0.00
   15    7    2      1.74      0.00
   16    7    2     -0.70      0.00
   17    7    2     -1.74      0.00
   18    7    2     -0.58      0.00
   19    7    2      2.00      0.00
   20    7    2      0.80      0.00
  -12    8    2     -0.68      0.00
  -11    8    2      5.44      0.00
  -10    8    2     -1.52      0.00
   -9    8    2      1.64      0.00
   -8    8    2     -0.89      0.00
   -7    8    2      2.03      0.00
   -6    8    2     -0.72      0.00
   -5    8    2     -5.04      0.00
   -4    8    2      5.68      0.00
   -3    8    2      9.10      0.00
   -2    8    2      0.76      0.00
   -1    8    2     -4.95      0.00
    0    8    2      6.73      0.00
    1    8    2     -7.94      0.00
    2    8    2     -5.84      0.00
    3    8    2     10.44      0.00
    4    8    2     -5.76      0.00
    5    8    2     -1.44      0.00
    6    8    2     -1.01      0.00
    7    8    2     -3.58      0.00
    8    8    2     -5.69      0.00
    9    8    2      2.34      0.00
   10    8    2      6.48      0.00
   11    8    2      5.78      0.00
   12    8    2     -3.73      0.00
   13    8    2     -1.40      0.00
   14    8    2      4.49      0.00
   15    8    2      1.19      0.00
   16    8    2      1.94      0.00
   17    8    2     -3.20      0.00
   18    8    2      2.08      0.00
   19    8    2      1.72      0.00
   20    8    2     -0.38      0.00
  -11    9    2     -0.91      0.00
  -10    9    2      0.83      0.00
   -9    9    2      1.68      0.00
   -8    9    2      1.69      0.00
   -7    9    2     -0.96      0.00
   -6    9    2     -4.51      0.00
   -5    9    2     -2.34      0.00
   -4    9    2      5.91      0.00
   -3    9    2      8.66      0.00
   -2    9    2      1.77      0.00
   -1    9    2     -3.57      0.00
    0    9    2      0.49      0.00
    1    9    2     -4.69      0.00
    2    9    2      6.59      0.00
    3    9    2      8.51      0.00
    4    9    2     -5.31      0.00
    5    9    2     -1.73      0.00
    6    9    2      0.02      0.00
    7    9    2     -0.48      0.00
    8    9    2     -5.33      0.00
    9    9    2     -7.91      0.00
   10    9    2      6.93      0.00
   11    9    2      3.63      0.00
   12    9    2      0.16      0.00
   13    9    2     -1.82      0.00
   14    9    2      0.11      0.00
   15    9    2      1.44      0.00
   16    9    2     -0.63      0.00
   17    9    2     -0.69      0.00
   18    9    2      3.27      0.00
   19    9    2     -1.66      0.00
   20    9    2     -1.38      0.00
  -11   10    2      4.14      0.00
  -10   10    2     -1.68      0.00
   -9   10    2      2.27      0.00
   -8   10    2      1.97      0.00
   -7   10    2     -1.77      0.00
   -6   10    2     -5.46      0.00
   -5   10    2      3.81      0.00
   -4   10    2     -0.20      0.00
   -3   10    2      2.39      0.00
   -2   10    2      6.70      0.00
   -1   10    2     -5.70      0.00
    0   10    2      0.41      0.00
    1   10    2      2.05      0.00
    2   10    2      4.27      0.00
    3   10    2      5.13      0.00
    4   10    2     -0.20      0.00
    5   10    2      1.16      0.00
    6   10    2     -3.92      0.00
    7   10    2     -2.56      0.00
    8   10    2     -1.32      0.00
    9   10    2      0.07      0.00
   10   10    2     -2.86      0.00
   11   10    2      0.65      0.00
   12   10    2     -1.10      0.00
   13   10    2      2.32      0.00
   14   10    2      0.94      0.00
   15   10    2     -2.26      0.00
   16   10    2     -0.55      0.00
   17   10    2      0.65      0.00
   18   10    2      2.40      0.00
   19   10    2     -3.17      0.00
   20   10    2     -2.29      0.00
  -10   11    2      4.33      0.00
   -9   11    2      0.15      0.00
   -8   11    2      1.65      0.00
   -7   11    2     -3.06      0.00
   -6   11    2      0.07      0.00
   -5   11    2      4.50      0.00
   -4   11    2      0.34      0.00
   -3   11    2     -3.69      0.00
   -2   11    2      1.36      0.00
   -1   11    2     -3.73      0.00
    0   11    2      2.82      0.00
    1   11    2      9.80      0.00
    2   11    2      0.18      0.00
    3   11    2     -7.00      0.00
    4   11    2     10.04      0.00
    5   11    2      1.99      0.00
    6   11    2     -4.62      0.00
    7   11    2     -3.27      0.00
    8   11    2      0.51      0.00
    9   11    2     -2.23      0.00
   10   11    2      0.27      0.00
   11   11    2     -2.57      0.00
   12   11    2     -0.09      0.00
   13   11    2      0.37      0.00
   14   11    2     -0.40      0.00
   15   11    2      0.28      0.00
   16   11    2      0.37      0.00
   17   11    2     -0.40      0.00
   18   11    2      1.89      0.00
   19   11    2     -2.45      0.00
   20   11    2     -3.52      0.00
   -9   12    2      5.68      0.00
   -8   12    2     -0.07      0.00
   -7   12    2     -0.27      0.00
   -6   12    2      0.00      0.00
   -5   12    2      5.29      0.00
   -4   12    2      0.38      0.00
   -3   12    2     -3.17      0.00
   -2   12    2      0.32      0.00
   -1   12    2     -5.53      0.00
    0   12    2      4.99      0.00
    1   12    2      7.38      0.00
    2   12    2     -1.76      0.00
    3   12    2     -2.71      0.00
    4   12    2      3.03      0.00
    5   12    2      5.54      0.00
    6   12    2     -4.06      0.00
    7   12    2      0.57      0.00
    8   12    2      3.66      0.00
    9   12    2     -7.38      0.00
   10   12    2     -4.40      0.00
   11   12    2      3.26      0.00
   12   12    2     -2.90      0.00
   13   12    2      0.78      0.00
   14   12    2     -2.14      0.00
   15   12    2     -0.99      0.00
   16   12    2      3.08      0.00
   17   12    2     -0.47      0.00
   18   12    2     -0.62      0.00
   19   12    2     -0.37      0.00
   20   12    2     -2.94      0.00
   -8   13    2      3.68      0.00
   -7   13    2      0.93      0.00
   -6   13    2      0.93      0.00
   -5   13    2      0.69      0.00
   -4   13    2      1.94      0.00
   -3   13    2     -1.46      0.00
   -2   13    2      3.32      0.00
   -1   13    2     -3.53      0.00
    0   13    2      0.51      0.00
    1   13    2      4.29      0.00
    2   13    2     -3.14      0.00
    3   13    2      1.25      0.00
    4   13    2      5.70      0.00
    5   13    2     -4.89      0.00
    6   13    2      1.53      0.00
    7   13    2      4.65      0.00
    8   13    2      1.59      0.00
    9   13    2     -5.65      0.00
   10   13    2     -0.81      0.00
   11   13    2     -2.50      0.00
   12   13    2     -2.40      0.00
   13   13    2      0.52      0.00
   14   13    2     -1.03      0.00
   15   13    2     -1.33      0.00
   16   13    2     -1.91      0.00
   17   13    2      0.54      0.00
   18   13    2      0.08      0.00
   19   13    2     -2.39      0.00
   20   13    2      0.27      0.00
   -7   14    2      3.61      0.00
   -6   14    2      0.74      0.00
   -5   14    2     -0.44      0.00
   -4   14    2     -0.20      0.00
   -3   14    2     -2.28      0.00
   -2   14    2      4.35      0.00
   -1   14    2      0.07      0.00
    0   14    2      3.32      0.00
    1   14    2     -2.96      0.00
    2   14    2     -2.72      0.00
    3   14    2      2.78      0.00
    4   14    2      2.41      0.00
    5   14    2      0.71      0.00
    6   14    2     -3.46      0.00
    7   14    2      4.46      0.00
    8   14    2      2.61      0.00
    9   14    2     -3.47      0.00
   10   14    2     -0.22      0.00
   11   14    2      0.41      0.00
   12   14    2     -4.15      0.00
   13   14    2      1.31      0.00
   14   14    2     -1.46      0.00
   15   14    2     -2.67      0.00
   16   14    2      0.21      0.00
   17   14    2     -3.10      0.00
   18   14    2     -2.05      0.00
   19   14    2     -0.09      0.00
   20   14    2     -1.77      0.00
   -6   15    2      1.70      0.00
   -5   15    2     -0.68      0.00
   -4   15    2     -0.37      0.00
   -3   15    2     -5.49      0.00
   -2   15    2      3.83      0.00
   -1   15    2      1.55      0.00
    0   15    2     -1.02      0.00
    1   15    2      0.30      0.00
    2   15    2      1.17      0.00
    3   15    2      0.18      0.00
    4   15    2     -2.53      0.00
    5   15    2      1.93      0.00
    6   15    2      0.32      0.00
    7   15    2     -1.49      0.00
    8   15    2      4.40      0.00
    9   15    2      0.26      0.00
   10   15    2     -3.17      0.00
   11   15    2      0.79      0.00
   12   15    2      1.10      0.00
   13   15    2     -1.17      0.00
   14   15    2     -2.78      0.00
   15   15    2     -0.11      0.00
   16   15    2      0.39      0.00
   17   15    2     -1.59      0.00
   18   15    2     -3.43      0.00
   19   15    2     -0.72      0.00
   20   15    2     -0.71      0.00
   -4   16    2      0.51      0.00
   -3   16    2     -1.56      0.00
   -2   16    2      1.14      0.00
   -1   16    2     -2.84      0.00
    0   16    2     -2.47      0.00
    1   16    2     -3.78      0.00
    2   16    2      7.92      0.00
    3   16    2      2.74      0.00
    4   16    2     -5.75      0.00
    5   16    2     -0.95      0.00
    6   16    2     -1.87      0.00
    7   16    2      1.81      0.00
    8   16    2      1.61      0.00
    9   16    2      0.07      0.00
   10   16    2      0.17      0.00
   11   16    2      0.59      0.00
   12   16    2     -1.52      0.00
   13   16    2      0.17      0.00
   14   16    2     -3.69      0.00
   15   16    2      1.18      0.00
   16   16    2      1.35      0.00
   17   16    2     -1.71      0.00
   18   16    2      0.03      0.00
   19   16    2     -0.83      0.00
   20   16    2     -0.88      0.00
   -3   17    2     -0.67      0.00
   -2   17    2     -1.62      0.00
   -1   17    2     -1.49      0.00
    0   17    2     -0.64      0.00
    1   17    2     -5.85      0.00
    2   17    2     -0.86      0.00
    3   17    2      7.60      0.00
    4   17    2     -2.94      0.00
    5   17    2     -2.88      0.00
    6   17    2      1.28      0.00
    7   17    2     -3.74      0.00
    8   17    2     -0.10      0.00
    9   17    2      0.11      0.00
   10   17    2     -0.39      0.00
   11   17    2      1.12      0.00
   12   17    2     -0.99      0.00
   13   17    2     -1.29      0.00
   14   17    2     -3.36      0.00
   15   17    2      1.27      0.00
   16   17    2      0.43      0.00
   17   17    2     -0.38      0.00
   18   17    2      0.24      0.00
   19   17    2      0.62      0.00
   -2   18    2     -3.67      0.00
   -1   18    2     -2.48      0.00
    0   18    2      2.54      0.00
    1   18    2     -3.03      0.00
    2   18    2     -3.13      0.00
    3   18    2     -0.24      0.00
    4   18    2      0.38      0.00
    5   18    2      0.00      0.00
    6   18    2     -0.22      0.00
    7   18    2     -0.17      0.00
    8   18    2     -4.23      0.00
    9   18    2     -3.22      0.00
   10   18    2     -0.57      0.00
   11   18    2     -0.57      0.00
   12   18    2     -1.89      0.00
   13   18    2     -0.13      0.00
   14   18    2     -1.64      0.00
   15   18    2      0.08      0.00
   16   18    2     -0.40      0.00
   17   18    2     -0.38      0.00
   18   18    2     -0.28      0.00
   19   18    2     -0.50      0.00
    0   19    2     -2.95      0.00
    1   19    2      2.28      0.00
    2   19    2     -3.01      0.00
    3   19    2      0.74      0.00
    4   19    2     -4.29      0.00
    5   19    2     -0.91      0.00
    6   19    2      3.63      0.00
    7   19    2     -1.18      0.00
    8   19    2     -1.67      0.00
    9   19    2     -5.81      0.00
   10   19    2     -2.64      0.00
   11   19    2     -0.90      0.00
   12   19    2     -3.13      0.00
   13   19    2      0.59      0.00
   14   19    2     -1.57      0.00
   15   19    2      0.57      0.00
   16   19    2     -1.54      0.00
   17   19    2     -1.33      0.00
   18   19    2     -0.23      0.00
    2   20    2     -1.21      0.00
    3   20    2      1.48      0.00
    4   20    2     -4.87      0.00
    5   20    2     -1.15      0.00
    6   20    2      0.33      0.00
    7   20    2      0.02      0.00
    8   20    2      0.76      0.00
    9   20    2     -3.63      0.00
   10   20    2     -3.88      0.00
   11   20    2     -2.87      0.00
   12   20    2     -2.54      0.00
   13   20    2      2.15      0.00
   14   20    2      0.24      0.00
   15   20    2     -3.88      0.00
   16   20    2     -1.04      0.00
   17   20    2     -0.94      0.00
    4   21    2     -3.40      0.00
    5   21    2     -0.06      0.00
    6   21    2     -2.36      0.00
    7   21    2     -4.84      0.00
    8   21    2      0.93      0.00
    9   21    2      1.25      0.00
   10   21    2      0.94      0.00
   11   21    2     -5.40      0.00
   12   21    2     -3.21      0.00
   13   21    2      1.96      0.00
   14   21    2     -0.97      0.00
   15   21    2     -0.26      0.00
   16   21    2     -2.45      0.00
    6   22    2     -3.04      0.00
    7   22    2      0.07      0.00
    8   22    2     -7.26      0.00
    9   22    2     -0.39      0.00
   10   22    2      4.97      0.00
   11   22    2     -0.11      0.00
   12   22    2     -2.43      0.00
   13   22    2     -3.63      0.00
   14   22    2     -0.22      0.00
  -12  -22    3      1.79      0.00
  -11  -22    3     -5.24      0.00
  -10  -22    3      3.83      0.00
   -9  -22    3      5.82      0.00
   -8  -22    3      2.57      0.00
   -7  -22    3     -1.54      0.00
   -6  -22    3      2.64      0.00
  -14  -21    3      2.10      0.00
  -13  -21    3      1.28      0.00
  -12  -21    3      0.05      0.00
  -11  -21    3     -1.25      0.00
  -10  -21    3      2.91      0.00
   -9  -21    3      2.19      0.00
   -8  -21    3      6.01      0.00
   -7  -21    3     -3.06      0.00
   -6  -21    3      4.53      0.00
   -5  -21    3      0.03      0.00
   -4  -21    3     -0.38      0.00
   -3  -21    3      2.74      0.00
   -2  -21    3      2.45      0.00
  -15  -20    3      2.55      0.00
  -14  -20    3      0.46      0.00
  -13  -20    3      4.19      0.00
  -12  -20    3     -2.11      0.00
  -11  -20    3      1.34      0.00
  -10  -20    3      4.98      0.00
   -9  -20    3     -1.33      0.00
   -8  -20    3      0.55      0.00
   -7  -20    3      3.40      0.00
   -6  -20    3      4.49      0.00
   -5  -20    3     -3.95      0.00
   -4  -20    3     -0.57      0.00
   -3  -20    3      5.44      0.00
   -2  -20    3      4.75      0.00
   -1  -20    3      0.20      0.00
    0  -20    3      1.41      0.00
  -16  -19    3      1.21      0.00
  -15  -19    3      0.81      0.00
  -14  -19    3      0.45      0.00
  -13  -19    3      1.92      0.00
  -12  -19    3      2.29      0.00
  -11  -19    3      2.58      0.00
  -10  -19    3      2.51      0.00
   -9  -19    3     -1.13      0.00
   -8  -19    3     -1.44      0.00
   -7  -19    3      0.47      0.00
   -6  -19    3      3.76      0.00
   -5  -19    3      0.21      0.00
   -4  -19    3      2.15      0.00
   -3  -19    3     -1.51      0.00
   -2  -19    3      2.04      0.00
   -1  -19    3      4.71      0.00
    0  -19    3      5.11      0.00
    1  -19    3      3.00      0.00
    2  -19    3      0.80      0.00
  -17  -18    3      1.43      0.00
  -16  -18    3     -0.73      0.00
  -15  -18    3      1.48      0.00
  -14  -18    3      1.28      0.00
  -13  -18    3      2.00      0.00
  -12  -18    3     -0.23      0.00
  -11  -18    3      4.18      0.00
  -10  -18    3      1.82      0.00
   -9  -18    3     -4.10      0.00
   -8  -18    3      1.83      0.00
   -7  -18    3     -0.88      0.00
   -6  -18    3     -4.09      0.00
   -5  -18    3      5.96      0.00
   -4  -18    3      4.29      0.00
   -3  -18    3     -5.04      0.00
   -2  -18    3      1.16      0.00
   -1  -18    3      0.98      0.00
    0  -18    3      2.86      0.00
    1  -18    3      7.75      0.00
    2  -18    3      2.93      0.00
    3  -18    3     -0.24      0.00
  -18  -17    3      1.04      0.00
  -17  -17    3     -1.26      0.00
  -16  -17    3     -2.69      0.00
  -15  -17    3      1.58      0.00
  -14  -17    3      2.83      0.00
  -13  -17    3      2.08      0.00
  -12  -17    3      0.38      0.00
  -11  -17    3      0.96      0.00
  -10  -17    3      0.21      0.00
   -9  -17    3     -5.78      0.00
   -8  -17    3      2.16      0.00
   -7  -17    3      2.22      0.00
   -6  -17    3     -3.30      0.00
   -5  -17    3      0.37      0.00
   -4  -17    3     -2.41      0.00
   -3  -17    3      1.62      0.00
   -2  -17    3      3.04      0.00
   -1  -17    3     -1.87      0.00
    0  -17    3     -0.72      0.00
    1  -17    3      0.76      0.00
    2  -17    3      2.61      0.00
    3  -17    3      3.72      0.00
    4  -17    3      0.30      0.00
    5  -17    3     -1.39      0.00
  -18  -16    3      0.08      0.00
  -17  -16    3     -1.33      0.00
  -16  -16    3     -2.55      0.00
  -15  -16    3      1.21      0.00
  -14  -16    3     -0.74      0.00
  -13  -16    3      3.92      0.00
  -12  -16    3      0.70      0.00
  -11  -16    3      1.08      0.00
  -10  -16    3     -1.64      0.00
   -9  -16    3     -4.93      0.00
   -8  -16    3      1.13      0.00
   -7  -16    3     -1.99      0.00
   -6  -16    3      0.79      0.00
   -5  -16    3     -0.59      0.00
   -4  -16    3     -4.01      0.00
   -3  -16    3     -0.56      0.00
   -2  -16    3     -0.14      0.00
   -1  -16    3     -1.48      0.00
    0  -16    3      2.82      0.00
    1  -16    3     -5.43      0.00
    2  -16    3     -2.59      0.00
    3  -16    3      4.83      0.00
    4  -16    3     -4.98      0.00
    5  -16    3     -1.66      0.00
    6  -16    3     -0.50      0.00
  -18  -15    3     -2.77      0.00
  -17  -15    3     -1.00      0.00
  -16  -15    3     -1.61      0.00
  -15  -15    3     -0.05      0.00
  -14  -15    3     -0.45      0.00
  -13  -15    3      0.82      0.00
  -12  -15    3      0.48      0.00
  -11  -15    3      1.32      0.00
  -10  -15    3     -0.69      0.00
   -9  -15    3     -1.99      0.00
   -8  -15    3      2.80      0.00
   -7  -15    3     -6.62      0.00
   -6  -15    3     -2.83      0.00
   -5  -15    3      1.62      0.00
   -4  -15    3     -1.91      0.00
   -3  -15    3     -4.05      0.00
   -2  -15    3     -3.20      0.00
   -1  -15    3     -2.04      0.00
    0  -15    3      0.49      0.00
    1  -15    3     -2.14      0.00
    2  -15    3     -3.06      0.00
    3  -15    3      0.70      0.00
    4  -15    3     -9.20      0.00
    5  -15    3     -6.39      0.00
    6  -15    3      2.50      0.00
    7  -15    3     -1.29      0.00
  -19  -14    3      2.62      0.00
  -18  -14    3     -0.50      0.00
  -17  -14    3     -5.14      0.00
  -16  -14    3      0.94      0.00
  -15  -14    3      0.20      0.00
  -14  -14    3     -3.24      0.00
  -13  -14    3      2.06      0.00
  -12  -14    3     -1.95      0.00
  -11  -14    3      1.08      0.00
  -10  -14    3     -0.92      0.00
   -9  -14    3     -0.32      0.00
   -8  -14    3      2.82      0.00
   -7  -14    3     -1.65      0.00
   -6  -14    3     -2.45      0.00
   -5  -14    3     -6.96      0.00
   -4  -14    3     -6.05      0.00
   -3  -14    3      0.06      0.00
   -2  -14    3     -0.87      0.00
   -1  -14    3     -3.61      0.00
    0  -14    3     -1.81      0.00
    1  -14    3     -6.12      0.00
    2  -14    3     -0.21      0.00
    3  -14    3      1.84      0.00
    4  -14    3    -10.57      0.00
    5  -14    3     -4.34      0.00
    6  -14    3     -3.64      0.00
    7  -14    3     -1.72      0.00
    8  -14    3      1.75      0.00
  -19  -13    3     -1.13      0.00
  -18  -13    3      1.08      0.00
  -17  -13    3     -1.75      0.00
  -16  -13    3     -2.74      0.00
  -15  -13    3      3.03      0.00
  -14  -13    3     -2.30      0.00
  -13  -13    3     -4.74      0.00
  -12  -13    3      2.13      0.00
  -11  -13    3      1.16      0.00
  -10  -13    3     -1.30      0.00
   -9  -13    3     -0.21      0.00
   -8  -13    3     -1.35      0.00
   -7  -13    3      0.45      0.00
   -6  -13    3      0.53      0.00
   -5  -13    3    -10.04      0.00
   -4  -13    3     -6.78      0.00
   -3  -13    3     -0.40      0.00
   -2  -13    3     -1.73      0.00
   -1  -13    3     -6.37      0.00
    0  -13    3      1.08      0.00
    1  -13    3     -4.83      0.00
    2  -13    3     -4.61      0.00
    3  -13    3      2.74      0.00
    4  -13    3     -8.78      0.00
    5  -13    3     -1.51      0.00
    6  -13    3     -1.93      0.00
    7  -13    3     -3.51      0.00
    8  -13    3      1.89      0.00
    9  -13    3     -2.37      0.00
  -19  -12    3      0.15      0.00
  -18  -12    3      1.19      0.00
  -17  -12    3     -0.38      0.00
  -16  -12    3     -1.28      0.00
  -15  -12    3     -1.13      0.00
  -14  -12    3      0.37      0.00
  -13  -12    3     -3.33      0.00
  -12  -12    3     -0.93      0.00
  -11  -12    3      0.07      0.00
  -10  -12    3     -0.21      0.00
   -9  -12    3      3.34      0.00
   -8  -12    3     -2.32      0.00
   -7  -12    3     -8.34      0.00
   -6  -12    3     -0.02      0.00
   -5  -12    3     -3.03      0.00
   -4  -12    3     -5.89      0.00
   -3  -12    3      0.28      0.00
   -2  -12    3     -9.85      0.00
   -1  -12    3     -6.94      0.00
    0  -12    3      3.00      0.00
    1  -12    3      1.86      0.00
    2  -12    3     -3.45      0.00
    3  -12    3     -8.54      0.00
    4  -12    3     -4.38      0.00
    5  -12    3      1.35      0.00
    6  -12    3     -1.78      0.00
    7  -12    3      3.67      0.00
    8  -12    3     -1.73      0.00
    9  -12    3     -4.64      0.00
   10  -12    3      1.50      0.00
  -19  -11    3     -2.68      0.00
  -18  -11    3      5.73      0.00
  -17  -11    3     -0.43      0.00
  -16  -11    3     -1.52      0.00
  -15  -11    3     -0.15      0.00
  -14  -11    3     -2.96      0.00
  -13  -11    3      1.57      0.00
  -12  -11    3      1.19      0.00
  -11  -11    3     -5.62      0.00
  -10  -11    3     -2.22      0.00
   -9  -11    3      3.63      0.00
   -8  -11    3     -2.55      0.00
   -7  -11    3     -2.32      0.00
   -6  -11    3     -1.09      0.00
   -5  -11    3     -7.61      0.00
   -4  -11    3     -3.83      0.00
   -3  -11    3     -2.13      0.00
   -2  -11    3     -7.37      0.00
   -1  -11    3     -4.32      0.00
    0  -11    3      0.10      0.00
    1  -11    3      2.72      0.00
    2  -11    3     -5.22      0.00
    3  -11    3     -6.42      0.00
    4  -11    3     -4.83      0.00
    5  -11    3      0.64      0.00
    6  -11    3      0.39      0.00
    7  -11    3      3.46      0.00
    8  -11    3     -2.90      0.00
    9  -11    3     -3.92      0.00
   10  -11    3      4.07      0.00
   11  -11    3      0.90      0.00
  -19  -10    3     -0.94      0.00
  -18  -10    3      0.28      0.00
  -17  -10    3      1.15      0.00
  -16  -10    3      1.46      0.00
  -15  -10    3     -1.21      0.00
  -14  -10    3     -1.76      0.00
  -13  -10    3     -1.20      0.00
  -12  -10    3      1.78      0.00
  -11  -10    3     -2.94      0.00
  -10  -10    3     -0.58      0.00
   -9  -10    3     -4.44      0.00
   -8  -10    3     -3.00      0.00
   -7  -10    3      0.83      0.00
   -6  -10    3      4.73      0.00
   -5  -10    3     -6.68      0.00
   -4  -10    3     -5.31      0.00
   -3  -10    3     -3.75      0.00
   -2  -10    3     -6.91      0.00
   -1  -10    3      2.71      0.00
    0  -10    3     -2.64      0.00
    1  -10    3     -4.12      0.00
    2  -10    3     -7.95      0.00
    3  -10    3     -0.79      0.00
    4  -10    3     -0.78      0.00
    5  -10    3     -1.60      0.00
    6  -10    3      0.73      0.00
    7  -10    3      0.00      0.00
    8  -10    3     -4.79      0.00
    9  -10    3     -1.73      0.00
   10  -10    3      2.95      0.00
   11  -10    3     -0.76      0.00
   12  -10    3      1.01      0.00
  -19   -9    3     -1.87      0.00
  -18   -9    3      1.77      0.00
  -17   -9    3     -1.23      0.00
  -16   -9    3      1.49      0.00
  -15   -9    3     -0.42      0.00
  -14   -9    3     -0.35      0.00
  -13   -9    3     -2.15      0.00
  -12   -9    3     -2.86      0.00
  -11   -9    3     -1.56      0.00
  -10   -9    3     -0.58      0.00
   -9   -9    3      1.20      0.00
   -8   -9    3     -3.76      0.00
   -7   -9    3     -4.94      0.00
   -6   -9    3     -0.69      0.00
   -5   -9    3      1.68      0.00
   -4   -9    3      7.14      0.00
   -3   -9    3     -7.13      0.00
   -2   -9    3     -7.70      0.00
   -1   -9    3      1.83      0.00
    0   -9    3     -3.79      0.00
    1   -9    3     -4.22      0.00
    2   -9    3    -13.73      0.00
    3   -9    3      2.04      0.00
    4   -9    3      2.68      0.00
    5   -9    3      1.45      0.00
    6   -9    3     -6.51      0.00
    7   -9    3     -0.45      0.00
    8   -9    3     -2.19      0.00
    9   -9    3     -5.45      0.00
   10   -9    3      3.23      0.00
   11   -9    3     -1.65      0.00
   12   -9    3     -0.97      0.00
   13   -9    3      3.03      0.00
  -19   -8    3     -1.53      0.00
  -18   -8    3      0.53      0.00
  -17   -8    3      0.58      0.00
  -16   -8    3     -1.16      0.00
  -15   -8    3      1.06      0.00
  -14   -8    3     -1.73      0.00
  -13   -8    3     -0.45      0.00
  -12   -8    3     -0.73      0.00
  -11   -8    3     -2.79      0.00
  -10   -8    3     -3.24      0.00
   -9   -8    3     -3.18      0.00
   -8   -8    3      6.26      0.00
   -7   -8    3     -7.92      0.00
   -6   -8    3     -1.70      0.00
   -5   -8    3      0.00      0.00
   -4   -8    3      6.12      0.00
   -3   -8    3     -0.21      0.00
   -2   -8    3      0.40      0.00
   -1   -8    3      3.19      0.00
    0   -8    3    -16.12      0.00
    1   -8    3     -5.47      0.00
    2   -8    3     -0.20      0.00
    3   -8    3     -6.21      0.00
    4   -8    3      2.96      0.00
    5   -8    3      5.59      0.00
    6   -8    3    -12.81      0.00
    7   -8    3     -3.74      0.00
    8   -8    3     -0.25      0.00
    9   -8    3     -0.97      0.00
   10   -8    3      1.76      0.00
   11   -8    3     -2.48      0.00
   12   -8    3      0.73      0.00
   13   -8    3     -2.28      0.00
  -19   -7    3     -0.17      0.00
  -18   -7    3     -0.09      0.00
  -17   -7    3     -2.61      0.00
  -16   -7    3      0.22      0.00
  -15   -7    3      1.61      0.00
  -14   -7    3     -1.06      0.00
  -13   -7    3     -4.78      0.00
  -12   -7    3      0.78      0.00
  -11   -7    3      3.79      0.00
  -10   -7    3      2.76      0.00
   -9   -7    3     -7.79      0.00
   -8   -7    3     -6.83      0.00
   -7   -7    3      5.96      0.00
   -6   -7    3     -1.16      0.00
   -5   -7    3     -0.57      0.00
   -4   -7    3      1.84      0.00
   -3   -7    3    -12.05      0.00
   -2   -7    3     22.55      0.00
   -1   -7    3      2.14      0.00
    0   -7    3    -28.39      0.00
    1   -7    3      6.62      0.00
    2   -7    3      0.63      0.00
    3   -7    3     -3.03      0.00
    4   -7    3     -2.83      0.00
    5   -7    3      6.51      0.00
    6   -7    3    -16.08      0.00
    7   -7    3     -4.01      0.00
    8   -7    3      4.44      0.00
    9   -7    3     -1.11      0.00
   10   -7    3      1.60      0.00
   11   -7    3     -0.80      0.00
   12   -7    3     -0.84      0.00
   13   -7    3     -3.36      0.00
   14   -7    3     -2.36      0.00
  -18   -6    3      0.18      0.00
  -17   -6    3     -0.83      0.00
  -16   -6    3     -1.77      0.00
  -15   -6    3      1.68      0.00
  -14   -6    3     -3.43      0.00
  -13   -6    3     -0.31      0.00
  -12   -6    3     -5.03      0.00
  -11   -6    3      3.97      0.00
  -10   -6    3      7.88      0.00
   -9   -6    3     -1.75      0.00
   -8   -6    3     -2.75      0.00
   -7   -6    3     -7.40      0.00
   -6   -6    3      8.42      0.00
   -5   -6    3     -4.23      0.00
   -4   -6    3     -0.62      0.00
   -3   -6    3      3.80      0.00
   -2   -6    3      4.26      0.00
   -1   -6    3     -5.37      0.00
    0   -6    3    -14.23      0.00
    1   -6    3     11.79      0.00
    2   -6    3      7.00      0.00
    3   -6    3     -9.90      0.00
    4   -6    3      1.37      0.00
    5   -6    3      1.40      0.00
    6   -6    3    -14.90      0.00
    7   -6    3     -1.89      0.00
    8   -6    3     11.78      0.00
    9   -6    3     -2.88      0.00
   10   -6    3     -3.47      0.00
   11   -6    3      1.95      0.00
   12   -6    3     -0.48      0.00
   13   -6    3     -3.85      0.00
   14   -6    3      1.01      0.00
   15   -6    3     -1.11      0.00
  -18   -5    3      0.15      0.00
  -17   -5    3     -0.13      0.00
  -16   -5    3     -1.16      0.00
  -15   -5    3     -1.26      0.00
  -14   -5    3     -2.14      0.00
  -13   -5    3      0.87      0.00
  -12   -5    3     -1.14      0.00
  -11   -5    3     -0.82      0.00
  -10   -5    3      4.10      0.00
   -9   -5    3     -7.34      0.00
   -8   -5    3      6.66      0.00
   -7   -5    3      8.75      0.00
   -6   -5    3    -11.36      0.00
   -5   -5    3     -3.42      0.00
   -4   -5    3      7.49      0.00
   -3   -5    3      7.16      0.00
   -2   -5    3      8.08      0.00
   -1   -5    3    -24.66      0.00
    0   -5    3     -4.65      0.00
    1   -5    3     10.97      0.00
    2   -5    3      7.62      0.00
    3   -5    3      9.74      0.00
    4   -5    3    -11.65      0.00
    5   -5    3      2.81      0.00
    6   -5    3    -14.56      0.00
    7   -5    3      5.85      0.00
    8   -5    3      5.49      0.00
    9   -5    3     -1.36      0.00
   10   -5    3      4.61      0.00
   11   -5    3     -5.43      0.00
   12   -5    3     -0.47      0.00
   13   -5    3      2.00      0.00
   14   -5    3     -3.15      0.00
   15   -5    3     -2.13      0.00
  -18   -4    3      0.24      0.00
  -17   -4    3     -0.35      0.00
  -16   -4    3     -1.62      0.00
  -15   -4    3      0.19      0.00
  -14   -4    3     -1.45      0.00
  -13   -4    3      0.71      0.00
  -12   -4    3     -2.00      0.00
  -11   -4    3      3.83      0.00
  -10   -4    3     -2.04      0.00
   -9   -4    3     -6.82      0.00
   -8   -4    3      0.98      0.00
   -7   -4    3      7.16      0.00
   -6   -4    3      2.20      0.00
   -5   -4    3    -12.91      0.00
   -4   -4    3     19.04      0.00
   -3   -4    3     -3.49      0.00
   -2   -4    3     -3.86      0.00
   -1   -4    3      7.52      0.00
    0   -4    3    -13.42      0.00
    1   -4    3      4.82      0.00
    2   -4    3      8.26      0.00
    3   -4    3      8.61      0.00
    4   -4    3      0.63      0.00
    5   -4    3     -5.89      0.00
    6   -4    3     -2.74      0.00
    7   -4    3      0.12      0.00
    8   -4    3      4.20      0.00
    9   -4    3      0.31      0.00
   10   -4    3      3.68      0.00
   11   -4    3     -2.33      0.00
   12   -4    3     -1.51      0.00
   13   -4    3     -1.29      0.00
   14   -4    3     -0.25      0.00
   15   -4    3     -0.57      0.00
   16   -4    3     -2.15      0.00
  -18   -3    3     -1.58      0.00
  -17   -3    3      1.50      0.00
  -16   -3    3     -0.25      0.00
  -15   -3    3      0.80      0.00
  -14   -3    3     -1.86      0.00
  -13   -3    3      0.32      0.00
  -12   -3    3     -0.71      0.00
  -11   -3    3     -0.07      0.00
  -10   -3    3     -1.18      0.00
   -9   -3    3     -4.13      0.00
   -8   -3    3     10.24      0.00
   -7   -3    3    -11.77      0.00
   -6   -3    3     -3.16      0.00
   -5   -3    3     16.00      0.00
   -4   -3    3      2.91      0.00
   -3   -3    3     -1.85      0.00
   -2   -3    3     -5.48      0.00
   -1   -3    3    -21.43      0.00
    0   -3    3     44.79      0.00
    1   -3    3     -1.09      0.00
    2   -3    3     -5.78      0.00
    3   -3    3      9.29      0.00
    4   -3    3    -14.82      0.00
    5   -3    3      6.74      0.00
    6   -3    3      3.11      0.00
    7   -3    3      5.80      0.00
    8   -3    3     -3.62      0.00
    9   -3    3      4.03      0.00
   10   -3    3     -1.24      0.00
   11   -3    3     -5.63      0.00
   12   -3    3      2.94      0.00
   13   -3    3     -3.59      0.00
   14   -3    3      0.82      0.00
   15   -3    3      2.25      0.00
   16   -3    3     -2.21      0.00
   17   -3    3     -1.49      0.00
  -17   -2    3      2.28      0.00
  -16   -2    3     -1.91      0.00
  -15   -2    3      1.90      0.00
  -14   -2    3     -1.62      0.00
  -13   -2    3      2.16      0.00
  -12   -2    3      0.79      0.00
  -11   -2    3     -2.12      0.00
  -10   -2    3     -5.67      0.00
   -9   -2    3      2.33      0.00
   -8   -2    3      4.62      0.00
   -7   -2    3     -0.39      0.00
   -6   -2    3     -4.21      0.00
   -5   -2    3      1.20      0.00
   -4   -2    3     15.49      0.00
   -3   -2    3    -12.76      0.00
   -2   -2    3      2.48      0.00
   -1   -2    3     -3.04      0.00
    0   -2    3     22.67      0.00
    1   -2    3     11.86      0.00
    2   -2    3     -0.69      0.00
    3   -2    3     12.51      0.00
    4   -2    3    -27.05      0.00
    5   -2    3     -0.68      0.00
    6   -2    3     15.02      0.00
    7   -2    3      0.23      0.00
    8   -2    3      7.23      0.00
    9   -2    3     -1.50      0.00
   10   -2    3     -2.58      0.00
   11   -2    3     -5.04      0.00
   12   -2    3     -1.04      0.00
   13   -2    3      1.65      0.00
   14   -2    3     -0.94      0.00
   15   -2    3     -1.47      0.00
   16   -2    3      1.00      0.00
   17   -2    3      0.37      0.00
  -17   -1    3      2.16      0.00
  -16   -1    3     -3.47      0.00
  -15   -1    3      1.52      0.00
  -14   -1    3      2.13      0.00
  -13   -1    3      1.80      0.00
  -12   -1    3      0.81      0.00
  -11   -1    3     -0.53      0.00
  -10   -1    3     -6.02      0.00
   -9   -1    3      2.24      0.00
   -8   -1    3      2.48      0.00
   -7   -1    3     -5.00      0.00
   -6   -1    3     17.12      0.00
   -5   -1    3     -7.43      0.00
   -4   -1    3     -1.32      0.00
   -3   -1    3     -2.48      0.00
   -2   -1    3     -7.11      0.00
   -1   -1    3     10.73      0.00
    0   -1    3     62.07      0.00
    1   -1    3    -28.93      0.00
    2   -1    3     -5.07      0.00
    3   -1    3      9.33      0.00
    4   -1    3     -2.08      0.00
    5   -1    3     -2.48      0.00
    6   -1    3     -4.70      0.00
    7   -1    3     10.12      0.00
    8   -1    3     -1.08      0.00
    9   -1    3      6.25      0.00
   10   -1    3     -4.65      0.00
   11   -1    3     -3.72      0.00
   12   -1    3      2.21      0.00
   13   -1    3     -0.49      0.00
   14   -1    3     -1.13      0.00
   15   -1    3     -2.66      0.00
   16   -1    3      0.80      0.00
   17   -1    3      1.41      0.00
   18   -1    3     -0.52      0.00
  -16    0    3     -1.48      0.00
  -15    0    3      4.04      0.00
  -14    0    3      0.39      0.00
  -13    0    3      1.95      0.00
  -12    0    3      0.72      0.00
  -11    0    3     -2.72      0.00
  -10    0    3     -1.72      0.00
   -9    0    3      4.02      0.00
   -8    0    3     -4.04      0.00
   -7    0    3      3.02      0.00
   -6    0    3      6.75      0.00
   -5    0    3      2.61      0.00
   -4    0    3     -5.04      0.00
   -3    0    3      0.96      0.00
   -2    0    3      1.79      0.00
   -1    0    3    -33.37      0.00
    0    0    3     85.77      0.00
    1    0    3     19.80      0.00
    2    0    3    -58.83      0.00
    3    0    3      7.19      0.00
    4    0    3     11.21      0.00
    5    0    3      3.99      0.00
    6    0    3     -3.89      0.00
    7    0    3      6.17      0.00
    8    0    3     -0.46      0.00
    9    0    3     -8.99      0.00
   10    0    3      1.99      0.00
   11    0    3      0.33      0.00
   12    0    3      4.83      0.00
   13    0    3     -0.95      0.00
   14    0    3     -2.13      0.00
   15    0    3      0.36      0.00
   16    0    3     -0.15      0.00
   17    0    3     -0.45      0.00
   18    0    3      0.05      0.00
  -16    1    3     -0.26      0.00
  -15    1    3      4.04      0.00
  -14    1    3      1.60      0.00
  -13    1    3     -0.88      0.00
  -12    1    3      0.71      0.00
  -11    1    3     -0.86      0.00
  -10    1    3     -3.45      0.00
   -9    1    3      4.12      0.00
   -8    1    3     -2.78      0.00
   -7    1    3      4.80      0.00
   -6    1    3      6.97      0.00
   -5    1    3    -14.11      0.00
   -4    1    3      2.96      0.00
   -3    1    3     10.27      0.00
   -2    1    3      8.54      0.00
   -1    1    3    -19.00      0.00
    0    1    3     50.18      0.00
    1    1    3    -28.71      0.00
    2    1    3     -9.38      0.00
    3    1    3     24.44      0.00
    4    1    3     -3.25      0.00
    5    1    3     -8.90      0.00
    6    1    3     11.33      0.00
    7    1    3     10.01      0.00
    8    1    3    -14.06      0.00
    9    1    3     -4.91      0.00
   10    1    3     -5.76      0.00
   11    1    3      6.77      0.00
   12    1    3      4.11      0.00
   13    1    3      0.67      0.00
   14    1    3     -0.40      0.00
   15    1    3     -1.80      0.00
   16    1    3      1.56      0.00
   17    1    3     -0.67      0.00
   18    1    3     -0.50      0.00
  -15    2    3      3.23      0.00
  -14    2    3      0.41      0.00
  -13    2    3     -0.70      0.00
  -12    2    3     -0.83      0.00
  -11    2    3      1.20      0.00
  -10    2    3     -0.26      0.00
   -9    2    3     -0.61      0.00
   -8    2    3      1.17      0.00
   -7    2    3      2.81      0.00
   -6    2    3     -4.00      0.00
   -5    2    3     -2.84      0.00
   -4    2    3     -4.12      0.00
   -3    2    3      2.96      0.00
   -2    2    3     10.68      0.00
   -1    2    3     33.38      0.00
    0    2    3     13.70      0.00
    1    2    3    -80.69      0.00
    2    2    3     11.24      0.00
    3    2    3     39.55      0.00
    4    2    3     -5.54      0.00
    5    2    3      2.71      0.00
    6    2    3     -3.45      0.00
    7    2    3      5.19      0.00
    8    2    3    -13.35      0.00
    9    2    3     -3.42      0.00
   10    2    3      5.22      0.00
   11    2    3     -0.50      0.00
   12    2    3      1.38      0.00
   13    2    3      0.26      0.00
   14    2    3      2.88      0.00
   15    2    3     -2.96      0.00
   16    2    3      0.69      0.00
   17    2    3     -0.02      0.00
   18    2    3     -0.06      0.00
   19    2    3      1.82      0.00
  -15    3    3      1.43      0.00
  -14    3    3     -0.80      0.00
  -13    3    3     -2.76      0.00
  -12    3    3      1.64      0.00
  -11    3    3      0.33      0.00
  -10    3    3      0.82      0.00
   -9    3    3      4.06      0.00
   -8    3    3     -1.23      0.00
   -7    3    3     -4.07      0.00
   -6    3    3     -7.22      0.00
   -5    3    3      3.21      0.00
   -4    3    3      4.42      0.00
   -3    3    3    -11.34      0.00
   -2    3    3     20.19      0.00
   -1    3    3     13.54      0.00
    0    3    3      2.59      0.00
    1    3    3    -35.75      0.00
    2    3    3     17.43      0.00
    3    3    3     -4.12      0.00
    4    3    3     -5.11      0.00
    5    3    3     15.01      0.00
    6    3    3      0.65      0.00
    7    3    3     -7.98      0.00
    8    3    3    -13.71      0.00
    9    3    3      1.33      0.00
   10    3    3      5.01      0.00
   11    3    3      5.04      0.00
   12    3    3     -3.85      0.00
   13    3    3     -0.67      0.00
   14    3    3      0.63      0.00
   15    3    3      0.21      0.00
   16    3    3      0.18      0.00
   17    3    3     -0.94      0.00
   18    3    3      2.53      0.00
   19    3    3      1.26      0.00
  -14    4    3     -1.08      0.00
  -13    4    3     -0.36      0.00
  -12    4    3     -2.26      0.00
  -11    4    3      3.29      0.00
  -10    4    3      0.95      0.00
   -9    4    3      1.53      0.00
   -8    4    3      0.12      0.00
   -7    4    3     -5.52      0.00
   -6    4    3     -6.41      0.00
   -5    4    3      4.69      0.00
   -4    4    3     -0.93      0.00
   -3    4    3     -2.79      0.00
   -2    4    3     16.63      0.00
   -1    4    3      2.01      0.00
    0    4    3    -24.56      0.00
    1    4    3     11.63      0.00
    2    4    3     22.76      0.00
    3    4    3    -12.96      0.00
    4    4    3     -9.71      0.00
    5    4    3      6.13      0.00
    6    4    3      0.20      0.00
    7    4    3     -3.70      0.00
    8    4    3     -8.12      0.00
    9    4    3     -2.09      0.00
   10    4    3     -2.05      0.00
   11    4    3      2.42      0.00
   12    4    3      3.06      0.00
   13    4    3     -1.42      0.00
   14    4    3     -0.84      0.00
   15    4    3     -2.09      0.00
   16    4    3      2.63      0.00
   17    4    3      0.06      0.00
   18    4    3      2.44      0.00
   19    4    3      0.27      0.00
   20    4    3      2.55      0.00
  -14    5    3      1.53      0.00
  -13    5    3     -4.30      0.00
  -12    5    3      1.22      0.00
  -11    5    3      0.20      0.00
  -10    5    3      0.13      0.00
   -9    5    3      2.02      0.00
   -8    5    3     -1.58      0.00
   -7    5    3     -4.94      0.00
   -6    5    3     -2.94      0.00
   -5    5    3      0.71      0.00
   -4    5    3     -3.13      0.00
   -3    5    3     -0.64      0.00
   -2    5    3     12.35      0.00
   -1    5    3     -2.14      0.00
    0    5    3    -10.09      0.00
    1    5    3     -5.04      0.00
    2    5    3     25.00      0.00
    3    5    3     -7.50      0.00
    4    5    3      1.36      0.00
    5    5    3     10.79      0.00
    6    5    3    -19.32      0.00
    7    5    3     -0.54      0.00
    8    5    3      3.84      0.00
    9    5    3     -6.85      0.00
   10    5    3     -1.19      0.00
   11    5    3     -1.86      0.00
   12    5    3     -2.46      0.00
   13    5    3      2.37      0.00
   14    5    3      0.36      0.00
   15    5    3     -2.07      0.00
   16    5    3      0.30      0.00
   17    5    3      3.81      0.00
   18    5    3     -1.01      0.00
   19    5    3      1.75      0.00
   20    5    3      3.53      0.00
  -13    6    3     -3.43      0.00
  -12    6    3     -0.36      0.00
  -11    6    3      1.22      0.00
  -10    6    3     -3.26      0.00
   -9    6    3      2.14      0.00
   -8    6    3     -1.64      0.00
   -7    6    3     -1.55      0.00
   -6    6    3     -8.00      0.00
   -5    6    3     -3.13      0.00
   -4    6    3      6.03      0.00
   -3    6    3      0.88      0.00
   -2    6    3     -1.38      0.00
   -1    6    3     -5.16      0.00
    0    6    3     -7.48      0.00
    1    6    3      7.93      0.00
    2    6    3     10.39      0.00
    3    6    3     -4.53      0.00
    4    6    3      3.13      0.00
    5    6    3      9.80      0.00
    6    6    3    -12.94      0.00
    7    6    3     -2.06      0.00
    8    6    3      3.71      0.00
    9    6    3     -6.37      0.00
   10    6    3      0.29      0.00
   11    6    3      1.43      0.00
   12    6    3     -3.41      0.00
   13    6    3     -3.92      0.00
   14    6    3      2.76      0.00
   15    6    3     -1.99      0.00
   16    6    3      1.55      0.00
   17    6    3     -0.13      0.00
   18    6    3      2.60      0.00
   19    6    3      2.51      0.00
   20    6    3      1.52      0.00
  -12    7    3      2.55      0.00
  -11    7    3     -4.65      0.00
  -10    7    3      0.20      0.00
   -9    7    3     -1.52      0.00
   -8    7    3     -2.34      0.00
   -7    7    3      1.95      0.00
   -6    7    3     -7.93      0.00
   -5    7    3     -4.77      0.00
   -4    7    3     10.23      0.00
   -3    7    3     -0.94      0.00
   -2    7    3    -11.73      0.00
   -1    7    3     -1.82      0.00
    0    7    3     -5.27      0.00
    1    7    3      3.66      0.00
    2    7    3     13.74      0.00
    3    7    3     -5.94      0.00
    4    7    3     -0.01      0.00
    5    7    3     -1.71      0.00
    6    7    3     -3.37      0.00
    7    7    3      8.09      0.00
    8    7    3     -1.93      0.00
    9    7    3     -3.63      0.00
   10    7    3     -0.79      0.00
   11    7    3     -1.86      0.00
   12    7    3      2.92      0.00
   13    7    3     -0.50      0.00
   14    7    3     -1.47      0.00
   15    7    3     -0.77      0.00
   16    7    3     -1.62      0.00
   17    7    3      2.07      0.00
   18    7    3      2.90      0.00
   19    7    3      2.11      0.00
   20    7    3     -1.08      0.00
  -12    8    3      2.57      0.00
  -11    8    3     -2.03      0.00
  -10    8    3     -3.16      0.00
   -9    8    3      0.01      0.00
   -8    8    3     -2.43      0.00
   -7    8    3     -0.39      0.00
   -6    8    3     -4.23      0.00
   -5    8    3      4.40      0.00
   -4    8    3      2.61      0.00
   -3    8    3     -9.63      0.00
   -2    8    3     -8.83      0.00
   -1    8    3      4.54      0.00
    0    8    3      0.49      0.00
    1    8    3     -5.26      0.00
    2    8    3      9.83      0.00
    3    8    3     -4.74      0.00
    4    8    3     -5.95      0.00
    5    8    3      0.46      0.00
    6    8    3     -2.39      0.00
    7    8    3      1.63      0.00
    8    8    3      4.04      0.00
    9    8    3      3.38      0.00
   10    8    3     -1.10      0.00
   11    8    3     -5.99      0.00
   12    8    3      0.33      0.00
   13    8    3      4.59      0.00
   14    8    3      2.48      0.00
   15    8    3     -3.78      0.00
   16    8    3      0.24      0.00
   17    8    3      1.61      0.00
   18    8    3      2.19      0.00
   19    8    3     -1.61      0.00
   20    8    3      1.25      0.00
  -11    9    3     -3.18      0.00
  -10    9    3      0.84      0.00
   -9    9    3     -0.87      0.00
   -8    9    3     -2.78      0.00
   -7    9    3     -3.57      0.00
   -6    9    3      2.40      0.00
   -5    9    3      3.75      0.00
   -4    9    3     -0.91      0.00
   -3    9    3     -6.92      0.00
   -2    9    3     -7.63      0.00
   -1    9    3      4.00      0.00
    0    9    3     -0.24      0.00
    1    9    3      2.13      0.00
    2    9    3      4.29      0.00
    3    9    3     -8.88      0.00
    4    9    3     -5.25      0.00
    5    9    3     -0.23      0.00
    6    9    3      0.41      0.00
    7    9    3     -1.95      0.00
    8    9    3     -0.42      0.00
    9    9    3      7.04      0.00
   10    9    3      3.43      0.00
   11    9    3     -5.37      0.00
   12    9    3     -0.01      0.00
   13    9    3      1.02      0.00
   14    9    3      2.55      0.00
   15    9    3      0.54      0.00
   16    9    3      0.56      0.00
   17    9    3      2.32      0.00
   18    9    3     -3.02      0.00
   19    9    3     -0.44      0.00
   20    9    3      2.34      0.00
   21    9    3     -0.40      0.00
  -10   10    3     -1.71      0.00
   -9   10    3      0.80      0.00
   -8   10    3     -3.92      0.00
   -7   10    3     -2.28      0.00
   -6   10    3      3.03      0.00
   -5   10    3      0.54      0.00
   -4   10    3     -4.39      0.00
   -3   10    3      1.44      0.00
   -2   10    3     -6.27      0.00
   -1   10    3      0.40      0.00
    0   10    3      4.58      0.00
    1   10    3     -3.74      0.00
    2   10    3      4.11      0.00
    3   10    3     -3.11      0.00
    4   10    3     -5.96      0.00
    5   10    3     -2.05      0.00
    6   10    3     -0.25      0.00
    7   10    3      1.02      0.00
    8   10    3      2.28      0.00
    9   10    3      1.06      0.00
   10   10    3     -1.46      0.00
   11   10    3      2.01      0.00
   12   10    3      1.88      0.00
   13   10    3     -0.18      0.00
   14   10    3     -0.85      0.00
   15   10    3      0.49      0.00
   16   10    3      4.12      0.00
   17   10    3     -0.36      0.00
   18   10    3     -2.66      0.00
   19   10    3     -1.85      0.00
   20   10    3      2.57      0.00
   21   10    3     -0.02      0.00
   -9   11    3     -4.17      0.00
   -8   11    3     -1.71      0.00
   -7   11    3     -1.75      0.00
   -6   11    3      3.79      0.00
   -5   11    3     -3.45      0.00
   -4   11    3     -6.25      0.00
   -3   11    3      0.39      0.00
   -2   11    3      0.05      0.00
   -1   11    3      2.38      0.00
    0   11    3      2.98      0.00
    1   11    3     -3.44      0.00
    2   11    3     -7.28      0.00
    3   11    3      5.73      0.00
    4   11    3      2.96      0.00
    5   11    3     -8.10      0.00
    6   11    3     -0.73      0.00
    7   11    3      3.89      0.00
    8   11    3      0.37      0.00
    9   11    3      0.87      0.00
   10   11    3      2.06      0.00
   11   11    3     -0.74      0.00
   12   11    3      2.95      0.00
   13   11    3     -0.66      0.00
   14   11    3      1.02      0.00
   15   11    3      0.62      0.00
   16   11    3     -1.11      0.00
   17   11    3      2.22      0.00
   18   11    3     -1.83      0.00
   19   11    3     -2.51      0.00
   20   11    3      1.26      0.00
   21   11    3      0.94      0.00
   -8   12    3     -4.94      0.00
   -7   12    3     -0.77      0.00
   -6   12    3      1.27      0.00
   -5   12    3     -2.34      0.00
   -4   12    3     -7.57      0.00
   -3   12    3      0.35      0.00
   -2   12    3     -0.58      0.00
   -1   12    3      2.79      0.00
    0   12    3      3.87      0.00
    1   12    3     -5.93      0.00
    2   12    3     -3.45      0.00
    3   12    3      3.07      0.00
    4   12    3      2.85      0.00
    5   12    3     -1.05      0.00
    6   12    3     -2.15      0.00
    7   12    3      3.80      0.00
    8   12    3     -6.58      0.00
    9   12    3      2.35      0.00
   10   12    3      6.83      0.00
   11   12    3      1.01      0.00
   12   12    3      0.91      0.00
   13   12    3      0.41      0.00
   14   12    3      1.26      0.00
   15   12    3      0.58      0.00
   16   12    3      1.56      0.00
   17   12    3     -2.62      0.00
   18   12    3      0.39      0.00
   19   12    3     -0.36      0.00
   20   12    3     -0.18      0.00
   21   12    3      0.10      0.00
   -7   13    3     -3.66      0.00
   -6   13    3     -1.12      0.00
   -5   13    3     -1.64      0.00
   -4   13    3     -2.68      0.00
   -3   13    3     -0.58      0.00
   -2   13    3     -2.54      0.00
   -1   13    3     -2.46      0.00
    0   13    3      4.26      0.00
    1   13    3     -1.20      0.00
    2   13    3     -1.94      0.00
    3   13    3      5.25      0.00
    4   13    3     -6.02      0.00
    5   13    3      1.41      0.00
    6   13    3      7.65      0.00
    7   13    3     -3.13      0.00
    8   13    3     -6.11      0.00
    9   13    3      2.16      0.00
   10   13    3      3.41      0.00
   11   13    3      0.43      0.00
   12   13    3      4.47      0.00
   13   13    3     -0.26      0.00
   14   13    3      1.62      0.00
   15   13    3      0.03      0.00
   16   13    3      1.95      0.00
   17   13    3      1.43      0.00
   18   13    3     -1.56      0.00
   19   13    3      1.93      0.00
   20   13    3      0.12      0.00
   -6   14    3     -2.35      0.00
   -5   14    3     -1.29      0.00
   -4   14    3     -1.36      0.00
   -3   14    3      4.33      0.00
   -2   14    3     -4.48      0.00
   -1   14    3     -3.39      0.00
    0   14    3     -0.04      0.00
    1   14    3     -0.50      0.00
    2   14    3      4.54      0.00
    3   14    3      1.05      0.00
    4   14    3     -3.62      0.00
    5   14    3      0.28      0.00
    6   14    3      1.96      0.00
    7   14    3      5.43      0.00
    8   14    3     -7.71      0.00
    9   14    3      1.22      0.00
   10   14    3      2.95      0.00
   11   14    3     -2.28      0.00
   12   14    3      1.43      0.00
   13   14    3      1.87      0.00
   14   14    3     -0.86      0.00
   15   14    3      1.57      0.00
   16   14    3      1.83      0.00
   17   14    3     -1.07      0.00
   18   14    3      4.52      0.00
   19   14    3      0.52      0.00
   20   14    3      1.44      0.00
   -5   15    3     -1.16      0.00
   -4   15    3      0.49      0.00
   -3   15    3      3.00      0.00
   -2   15    3      1.18      0.00
   -1   15    3     -4.19      0.00
    0   15    3     -0.87      0.00
    1   15    3      1.00      0.00
    2   15    3      1.20      0.00
    3   15    3     -0.24      0.00
    4   15    3      1.06      0.00
    5   15    3      0.86      0.00
    6   15    3     -0.47      0.00
    7   15    3      1.88      0.00
    8   15    3     -1.02      0.00
    9   15    3     -1.75      0.00
   10   15    3      2.00      0.00
   11   15    3     -1.16      0.00
   12   15    3      0.57      0.00
   13   15    3     -2.38      0.00
   14   15    3      1.82      0.00
   15   15    3      0.83      0.00
   16   15    3     -1.35      0.00
   17   15    3     -0.01      0.00
   18   15    3      2.17      0.00
   19   15    3      2.64      0.00
   20   15    3      1.03      0.00
   -4   16    3      2.26      0.00
   -3   16    3      1.55      0.00
   -2   16    3     -2.35      0.00
   -1   16    3      2.18      0.00
    0   16    3     -1.76      0.00
    1   16    3      4.33      0.00
    2   16    3      2.71      0.00
    3   16    3     -7.59      0.00
    4   16    3      2.04      0.00
    5   16    3      3.69      0.00
    6   16    3     -0.23      0.00
    7   16    3      2.03      0.00
    8   16    3     -2.21      0.00
    9   16    3      1.58      0.00
   10   16    3     -2.28      0.00
   11   16    3     -0.58      0.00
   12   16    3      1.23      0.00
   13   16    3     -1.54      0.00
   14   16    3      3.00      0.00
   15   16    3      0.21      0.00
   16   16    3     -2.51      0.00
   17   16    3      0.09      0.00
   18   16    3      0.41      0.00
   19   16    3     -0.23      0.00
   20   16    3      2.04      0.00
   -3   17    3      1.17      0.00
   -2   17    3      2.13      0.00
   -1   17    3      0.04      0.00
    0   17    3     -1.40      0.00
    1   17    3      2.42      0.00
    2   17    3      4.57      0.00
    3   17    3     -3.45      0.00
    4   17    3     -2.38      0.00
    5   17    3      3.81      0.00
    6   17    3     -0.16      0.00
    7   17    3      0.50      0.00
    8   17    3      2.18      0.00
    9   17    3     -0.79      0.00
   10   17    3      0.06      0.00
   11   17    3     -0.95      0.00
   12   17    3     -0.15      0.00
   13   17    3      0.93      0.00
   14   17    3      2.77      0.00
   15   17    3      0.64      0.00
   16   17    3     -0.72      0.00
   17   17    3      0.23      0.00
   18   17    3     -1.00      0.00
   19   17    3     -0.69      0.00
   -1   18    3      7.50      0.00
    0   18    3     -2.88      0.00
    1   18    3     -2.85      0.00
    2   18    3      2.28      0.00
    3   18    3     -0.94      0.00
    4   18    3      1.92      0.00
    5   18    3     -0.06      0.00
    6   18    3      0.39      0.00
    7   18    3      0.40      0.00
    8   18    3     -1.59      0.00
    9   18    3      3.46      0.00
   10   18    3      0.85      0.00
   11   18    3     -0.55      0.00
   12   18    3      1.23      0.00
   13   18    3      0.61      0.00
   14   18    3      1.85      0.00
   15   18    3      0.38      0.00
   16   18    3      0.96      0.00
   17   18    3     -0.30      0.00
   18   18    3      0.53      0.00
   19   18    3     -0.93      0.00
    0   19    3      5.25      0.00
    1   19    3     -0.60      0.00
    2   19    3     -3.03      0.00
    3   19    3     -2.37      0.00
    4   19    3      0.82      0.00
    5   19    3      4.54      0.00
    6   19    3     -2.07      0.00
    7   19    3     -1.08      0.00
    8   19    3     -0.92      0.00
    9   19    3      3.43      0.00
   10   19    3      1.28      0.00
   11   19    3      0.80      0.00
   12   19    3      1.50      0.00
   13   19    3     -0.49      0.00
   14   19    3      0.16      0.00
   15   19    3      1.92      0.00
   16   19    3     -0.64      0.00
   17   19    3      1.23      0.00
   18   19    3      0.42      0.00
    2   20    3      2.22      0.00
    3   20    3     -6.58      0.00
    4   20    3      1.66      0.00
    5   20    3      2.38      0.00
    6   20    3     -1.87      0.00
    7   20    3      1.92      0.00
    8   20    3     -1.98      0.00
    9   20    3      1.27      0.00
   10   20    3      1.34      0.00
   11   20    3      2.70      0.00
   12   20    3      1.71      0.00
   13   20    3     -0.95      0.00
   14   20    3     -3.13      0.00
   15   20    3     -0.24      0.00
   16   20    3      3.70      0.00
   17   20    3     -0.32      0.00
    4   21    3     -1.33      0.00
    5   21    3      0.26      0.00
    6   21    3     -2.17      0.00
    7   21    3      3.01      0.00
    8   21    3      2.26      0.00
    9   21    3      1.65      0.00
   10   21    3     -4.03      0.00
   11   21    3      1.71      0.00
   12   21    3      4.14      0.00
   13   21    3     -1.00      0.00
   14   21    3     -2.12      0.00
   15   21    3     -0.10      0.00
   16   21    3     -0.23      0.00
    7   22    3      0.03      0.00
    8   22    3     -0.52      0.00
    9   22    3      8.61      0.00
   10   22    3     -2.61      0.00
   11   22    3     -2.32      0.00
   12   22    3     -0.48      0.00
   13   22    3      1.87      0.00
   14   22    3      1.23      0.00
  -11  -22    4      3.69      0.00
  -10  -22    4      4.14      0.00
   -9  -22    4     -1.28      0.00
   -8  -22    4     -6.86      0.00
   -7  -22    4      1.71      0.00
   -6  -22    4      0.93      0.00
  -14  -21    4     -1.20      0.00
  -13  -21    4      1.52      0.00
  -12  -21    4     -3.51      0.00
  -11  -21    4      5.49      0.00
  -10  -21    4     -1.04      0.00
   -9  -21    4      2.44      0.00
   -8  -21    4     -5.41      0.00
   -7  -21    4      1.82      0.00
   -6  -21    4     -0.47      0.00
   -5  -21    4     -2.38      0.00
   -4  -21    4      3.19      0.00
   -3  -21    4     -2.18      0.00
   -2  -21    4     -3.55      0.00
  -15  -20    4     -1.77      0.00
  -14  -20    4      0.93      0.00
  -13  -20    4     -2.16      0.00
  -12  -20    4      0.74      0.00
  -11  -20    4      4.40      0.00
  -10  -20    4     -5.31      0.00
   -9  -20    4      0.04      0.00
   -8  -20    4      2.96      0.00
   -7  -20    4      1.93      0.00
   -6  -20    4     -5.37      0.00
   -5  -20    4     -0.77      0.00
   -4  -20    4      7.01      0.00
   -3  -20    4     -0.84      0.00
   -2  -20    4     -3.43      0.00
   -1  -20    4     -3.47      0.00
    0  -20    4     -2.62      0.00
  -16  -19    4     -2.75      0.00
  -15  -19    4     -0.16      0.00
  -14  -19    4      0.43      0.00
  -13  -19    4      1.44      0.00
  -12  -19    4      0.19      0.00
  -11  -19    4      1.61      0.00
  -10  -19    4     -6.79      0.00
   -9  -19    4      3.70      0.00
   -8  -19    4     -0.69      0.00
   -7  -19    4      4.99      0.00
   -6  -19    4     -0.95      0.00
   -5  -19    4     -1.20      0.00
   -4  -19    4     -0.56      0.00
   -3  -19    4      2.78      0.00
   -2  -19    4      3.00      0.00
   -1  -19    4     -3.28      0.00
    0  -19    4     -3.67      0.00
    1  -19    4     -5.02      0.00
    2  -19    4     -2.77      0.00
  -17  -18    4     -1.70      0.00
  -16  -18    4      0.20      0.00
  -15  -18    4     -1.54      0.00
  -14  -18    4     -0.03      0.00
  -13  -18    4      0.60      0.00
  -12  -18    4      2.56      0.00
  -11  -18    4     -1.52      0.00
  -10  -18    4     -2.22      0.00
   -9  -18    4      1.90      0.00
   -8  -18    4      1.78      0.00
   -7  -18    4     -0.21      0.00
   -6  -18    4      5.56      0.00
   -5  -18    4      0.26      0.00
   -4  -18    4     -2.98      0.00
   -3  -18    4     -1.82      0.00
   -2  -18    4      4.25      0.00
   -1  -18    4      2.35      0.00
    0  -18    4     -0.19      0.00
    1  -18    4     -5.21      0.00
    2  -18    4     -5.11      0.00
    3  -18    4     -1.26      0.00
  -17  -17    4      0.42      0.00
  -16  -17    4      2.23      0.00
  -15  -17    4      2.18      0.00
  -14  -17    4     -1.42      0.00
  -13  -17    4     -2.22      0.00
  -12  -17    4     -0.51      0.00
  -11  -17    4      2.45      0.00
  -10  -17    4     -2.45      0.00
   -9  -17    4      4.68      0.00
   -8  -17    4      2.96      0.00
   -7  -17    4     -0.99      0.00
   -6  -17    4      0.13      0.00
   -5  -17    4      1.26      0.00
   -4  -17    4      2.47      0.00
   -3  -17    4      0.75      0.00
   -2  -17    4     -1.26      0.00
   -1  -17    4      1.22      0.00
    0  -17    4      0.40      0.00
    1  -17    4     -0.51      0.00
    2  -17    4      1.05      0.00
    3  -17    4     -2.09      0.00
    4  -17    4     -2.37      0.00
    5  -17    4      0.52      0.00
  -18  -16    4      0.44      0.00
  -17  -16    4      0.87      0.00
  -16  -16    4      3.77      0.00
  -15  -16    4      1.16      0.00
  -14  -16    4      2.15      0.00
  -13  -16    4     -2.70      0.00
  -12  -16    4     -1.44      0.00
  -11  -16    4     -0.93      0.00
  -10  -16    4      1.03      0.00
   -9  -16    4      4.29      0.00
   -8  -16    4      1.79      0.00
   -7  -16    4     -2.15      0.00
   -6  -16    4      3.83      0.00
   -5  -16    4     -3.29      0.00
   -4  -16    4      2.87      0.00
   -3  -16    4      2.64      0.00
   -2  -16    4      0.79      0.00
   -1  -16    4      1.04      0.00
    0  -16    4     -2.10      0.00
    1  -16    4      1.40      0.00
    2  -16    4      4.99      0.00
    3  -16    4     -2.18      0.00
    4  -16    4      0.57      0.00
    5  -16    4      6.25      0.00
    6  -16    4     -0.26      0.00
  -18  -15    4      1.91      0.00
  -17  -15    4      2.50      0.00
  -16  -15    4      1.86      0.00
  -15  -15    4      1.58      0.00
  -14  -15    4      2.17      0.00
  -13  -15    4     -0.37      0.00
  -12  -15    4      0.13      0.00
  -11  -15    4     -1.48      0.00
  -10  -15    4      0.21      0.00
   -9  -15    4      4.47      0.00
   -8  -15    4     -4.72      0.00
   -7  -15    4     -0.16      0.00
   -6  -15    4      5.02      0.00
   -5  -15    4     -0.93      0.00
   -4  -15    4      1.70      0.00
   -3  -15    4     -0.31      0.00
   -2  -15    4      0.56      0.00
   -1  -15    4      5.03      0.00
    0  -15    4      1.89      0.00
    1  -15    4      0.28      0.00
    2  -15    4      2.13      0.00
    3  -15    4     -1.37      0.00
    4  -15    4      1.32      0.00
    5  -15    4     12.21      0.00
    6  -15    4      4.70      0.00
    7  -15    4     -1.07      0.00
  -18  -14    4     -2.23      0.00
  -17  -14    4      1.94      0.00
  -16  -14    4      3.16      0.00
  -15  -14    4     -1.82      0.00
  -14  -14    4      5.12      0.00
  -13  -14    4     -0.58      0.00
  -12  -14    4      0.98      0.00
  -11  -14    4     -0.72      0.00
  -10  -14    4      1.89      0.00
   -9  -14    4      0.02      0.00
   -8  -14    4     -1.31      0.00
   -7  -14    4     -2.46      0.00
   -6  -14    4     -1.39      0.00
   -5  -14    4      1.40      0.00
   -4  -14    4      8.45      0.00
   -3  -14    4      0.31      0.00
   -2  -14    4     -1.27      0.00
   -1  -14    4      4.73      0.00
    0  -14    4     -1.04      0.00
    1  -14    4      5.09      0.00
    2  -14    4      4.57      0.00
    3  -14    4     -3.91      0.00
    4  -14    4      2.67      0.00
    5  -14    4     10.91      0.00
    6  -14    4      2.23      0.00
    7  -14    4      5.00      0.00
    8  -14    4     -0.63      0.00
  -18  -13    4      1.49      0.00
  -17  -13    4     -2.21      0.00
  -16  -13    4      3.96      0.00
  -15  -13    4     -1.00      0.00
  -14  -13    4      0.42      0.00
  -13  -13    4      3.62      0.00
  -12  -13    4      2.62      0.00
  -11  -13    4     -2.44      0.00
  -10  -13    4     -0.60      0.00
   -9  -13    4      1.50      0.00
   -8  -13    4     -1.99      0.00
   -7  -13    4      1.33      0.00
   -6  -13    4     -5.53      0.00
   -5  -13    4      1.96      0.00
   -4  -13    4      8.35      0.00
   -3  -13    4      3.15      0.00
   -2  -13    4      1.54      0.00
   -1  -13    4      3.05      0.00
    0  -13    4     -0.87      0.00
    1  -13    4      2.47      0.00
    2  -13    4      5.57      0.00
    3  -13    4      0.14      0.00
    4  -13    4      3.49      0.00
    5  -13    4      7.29      0.00
    6  -13    4     -1.75      0.00
    7  -13    4      4.90      0.00
    8  -13    4      0.85      0.00
    9  -13    4     -0.37      0.00
  -18  -12    4     -2.06      0.00
  -17  -12    4      0.74      0.00
  -16  -12    4      0.82      0.00
  -15  -12    4      0.04      0.00
  -14  -12    4      1.90      0.00
  -13  -12    4     -0.51      0.00
  -12  -12    4      4.94      0.00
  -11  -12    4     -2.67      0.00
  -10  -12    4      3.58      0.00
   -9  -12    4     -4.85      0.00
   -8  -12    4     -4.01      0.00
   -7  -12    4      2.30      0.00
   -6  -12    4      4.25      0.00
   -5  -12    4     -1.98      0.00
   -4  -12    4      4.45      0.00
   -3  -12    4      1.42      0.00
   -2  -12    4      1.83      0.00
   -1  -12    4      9.96      0.00
    0  -12    4      0.22      0.00
    1  -12    4      1.52      0.00
    2  -12    4     -4.01      0.00
    3  -12    4      4.57      0.00
    4  -12    4      8.48      0.00
    5  -12    4      3.22      0.00
    6  -12    4     -0.19      0.00
    7  -12    4      2.12      0.00
    8  -12    4     -5.26      0.00
    9  -12    4      4.62      0.00
   10  -12    4     -0.04      0.00
  -19  -11    4      2.61      0.00
  -18  -11    4     -0.12      0.00
  -17  -11    4     -3.95      0.00
  -16  -11    4      1.41      0.00
  -15  -11    4     -0.01      0.00
  -14  -11    4      3.59      0.00
  -13  -11    4     -0.55      0.00
  -12  -11    4     -2.45      0.00
  -11  -11    4      0.95      0.00
  -10  -11    4      3.82      0.00
   -9  -11    4      0.25      0.00
   -8  -11    4     -6.39      0.00
   -7  -11    4      3.92      0.00
   -6  -11    4     -3.76      0.00
   -5  -11    4      0.73      0.00
   -4  -11    4      4.67      0.00
   -3  -11    4     -0.62      0.00
   -2  -11    4      5.84      0.00
   -1  -11    4      4.16      0.00
    0  -11    4      3.73      0.00
    1  -11    4      0.00      0.00
    2  -11    4     -3.90      0.00
    3  -11    4      6.40      0.00
    4  -11    4      5.41      0.00
    5  -11    4      2.19      0.00
    6  -11    4      1.57      0.00
    7  -11    4     -0.28      0.00
    8  -11    4     -2.43      0.00
    9  -11    4      3.39      0.00
   10  -11    4      1.07      0.00
   11  -11    4     -2.90      0.00
  -18  -10    4      0.46      0.00
  -17  -10    4      0.84      0.00
  -16  -10    4     -1.08      0.00
  -15  -10    4      0.48      0.00
  -14  -10    4      1.02      0.00
  -13  -10    4      1.45      0.00
  -12  -10    4     -0.27      0.00
  -11  -10    4     -2.52      0.00
  -10  -10    4      1.89      0.00
   -9  -10    4     -2.61      0.00
   -8  -10    4      6.69      0.00
   -7  -10    4     -1.12      0.00
   -6  -10    4     -3.06      0.00
   -5  -10    4     -8.85      0.00
   -4  -10    4      3.99      0.00
   -3  -10    4      1.56      0.00
   -2  -10    4      5.86      0.00
   -1  -10    4      2.69      0.00
    0  -10    4     -5.07      0.00
    1  -10    4      4.10      0.00
    2  -10    4      3.07      0.00
    3  -10    4      9.71      0.00
    4  -10    4     -3.55      0.00
    5  -10    4      0.83      0.00
    6  -10    4      0.65      0.00
    7  -10    4      0.79      0.00
    8  -10    4     -0.39      0.00
    9  -10    4      7.13      0.00
   10  -10    4     -2.29      0.00
   11  -10    4     -0.64      0.00
   12  -10    4      0.14      0.00
  -18   -9    4     -0.75      0.00
  -17   -9    4      1.00      0.00
  -16   -9    4      3.15      0.00
  -15   -9    4     -2.30      0.00
  -14   -9    4      1.52      0.00
  -13   -9    4     -0.38      0.00
  -12   -9    4      3.45      0.00
  -11   -9    4      1.57      0.00
  -10   -9    4     -1.11      0.00
   -9   -9    4     -1.49      0.00
   -8   -9    4     -4.77      0.00
   -7   -9    4      7.72      0.00
   -6   -9    4     -3.40      0.00
   -5   -9    4      1.19      0.00
   -4   -9    4     -7.68      0.00
   -3   -9    4     -8.92      0.00
   -2   -9    4      8.10      0.00
   -1   -9    4     -1.57      0.00
    0   -9    4      2.15      0.00
    1   -9    4     -2.65      0.00
    2   -9    4      8.55      0.00
    3   -9    4     12.08      0.00
    4   -9    4     -5.52      0.00
    5   -9    4     -4.75      0.00
    6   -9    4      1.89      0.00
    7   -9    4      2.90      0.00
    8   -9    4     -1.14      0.00
    9   -9    4      5.91      0.00
   10   -9    4      1.08      0.00
   11   -9    4     -1.90      0.00
   12   -9    4      4.14      0.00
   13   -9    4     -0.48      0.00
  -18   -8    4      0.28      0.00
  -17   -8    4      1.27      0.00
  -16   -8    4      0.00      0.00
  -15   -8    4      0.85      0.00
  -14   -8    4      0.89      0.00
  -13   -8    4      1.87      0.00
  -12   -8    4     -0.02      0.00
  -11   -8    4      1.95      0.00
  -10   -8    4     -0.28      0.00
   -9   -8    4      2.01      0.00
   -8   -8    4     -0.32      0.00
   -7   -8    4     -8.76      0.00
   -6   -8    4      8.46      0.00
   -5   -8    4     -6.34      0.00
   -4   -8    4      1.75      0.00
   -3   -8    4    -10.22      0.00
   -2   -8    4     -4.07      0.00
   -1   -8    4     -6.65      0.00
    0   -8    4      3.37      0.00
    1   -8    4     11.48      0.00
    2   -8    4     -2.46      0.00
    3   -8    4      6.42      0.00
    4   -8    4      2.53      0.00
    5   -8    4     -6.99      0.00
    6   -8    4      0.13      0.00
    7   -8    4      7.10      0.00
    8   -8    4     -0.77      0.00
    9   -8    4      3.93      0.00
   10   -8    4     -2.74      0.00
   11   -8    4      2.32      0.00
   12   -8    4     -0.81      0.00
   13   -8    4      1.30      0.00
   14   -8    4      2.55      0.00
  -18   -7    4     -1.05      0.00
  -17   -7    4      1.71      0.00
  -16   -7    4      1.60      0.00
  -15   -7    4     -0.86      0.00
  -14   -7    4      1.02      0.00
  -13   -7    4      1.38      0.00
  -12   -7    4      5.18      0.00
  -11   -7    4     -1.61      0.00
  -10   -7    4     -6.70      0.00
   -9   -7    4      0.66      0.00
   -8   -7    4      6.53      0.00
   -7   -7    4      1.03      0.00
   -6   -7    4    -11.52      0.00
   -5   -7    4      6.67      0.00
   -4   -7    4    -13.26      0.00
   -3   -7    4      8.02      0.00
   -2   -7    4     -1.96      0.00
   -1   -7    4    -28.87      0.00
    0   -7    4     15.55      0.00
    1   -7    4     10.45      0.00
    2   -7    4     -4.29      0.00
    3   -7    4     -1.01      0.00
    4   -7    4      3.64      0.00
    5   -7    4     -5.98      0.00
    6   -7    4      3.57      0.00
    7   -7    4     11.50      0.00
    8   -7    4     -3.94      0.00
    9   -7    4     -0.02      0.00
   10   -7    4      0.52      0.00
   11   -7    4     -3.63      0.00
   12   -7    4     -0.51      0.00
   13   -7    4      2.41      0.00
   14   -7    4      3.91      0.00
  -18   -6    4      1.46      0.00
  -17   -6    4     -0.15      0.00
  -16   -6    4      0.94      0.00
  -15   -6    4     -0.46      0.00
  -14   -6    4      0.13      0.00
  -13   -6    4      2.13      0.00
  -12   -6    4      2.96      0.00
  -11   -6    4      4.11      0.00
  -10   -6    4     -7.01      0.00
   -9   -6    4     -1.39      0.00
   -8   -6    4     -0.89      0.00
   -7   -6    4      0.48      0.00
   -6   -6    4      4.71      0.00
   -5   -6    4     -9.84      0.00
   -4   -6    4      6.46      0.00
   -3   -6    4    -12.54      0.00
   -2   -6    4     -1.10      0.00
   -1   -6    4    -12.33      0.00
    0   -6    4     12.99      0.00
    1   -6    4      6.47      0.00
    2   -6    4    -14.60      0.00
    3   -6    4     -0.42      0.00
    4   -6    4      4.96      0.00
    5   -6    4     -4.78      0.00
    6   -6    4      4.76      0.00
    7   -6    4     12.47      0.00
    8   -6    4     -3.34      0.00
    9   -6    4     -5.29      0.00
   10   -6    4     -1.04      0.00
   11   -6    4      1.58      0.00
   12   -6    4     -2.54      0.00
   13   -6    4      3.65      0.00
   14   -6    4      0.68      0.00
   15   -6    4      0.79      0.00
  -18   -5    4      0.46      0.00
  -17   -5    4      0.74      0.00
  -16   -5    4     -0.25      0.00
  -15   -5    4     -1.12      0.00
  -14   -5    4      2.79      0.00
  -13   -5    4     -0.07      0.00
  -12   -5    4      0.09      0.00
  -11   -5    4      1.66      0.00
  -10   -5    4     -0.54      0.00
   -9   -5    4      2.33      0.00
   -8   -5    4      4.00      0.00
   -7   -5    4     -9.17      0.00
   -6   -5    4     -2.44      0.00
   -5   -5    4     15.19      0.00
   -4   -5    4     -9.88      0.00
   -3   -5    4      0.94      0.00
   -2   -5    4    -22.76      0.00
   -1   -5    4     -2.33      0.00
    0   -5    4     25.41      0.00
    1   -5    4    -10.01      0.00
    2   -5    4     -4.11      0.00
    3   -5    4    -11.83      0.00
    4   -5    4      3.24      0.00
    5   -5    4     -0.92      0.00
    6   -5    4      6.75      0.00
    7   -5    4      8.59      0.00
    8   -5    4     -6.44      0.00
    9   -5    4      0.31      0.00
   10   -5    4     -2.84      0.00
   11   -5    4     -0.29      0.00
   12   -5    4      4.34      0.00
   13   -5    4     -2.12      0.00
   14   -5    4      0.10      0.00
   15   -5    4      0.99      0.00
   16   -5    4      2.91      0.00
  -17   -4    4     -1.18      0.00
  -16   -4    4      1.60      0.00
  -15   -4    4      0.69      0.00
  -14   -4    4      0.42      0.00
  -13   -4    4      0.31      0.00
  -12   -4    4     -2.20      0.00
  -11   -4    4      1.85      0.00
  -10   -4    4     -3.00      0.00
   -9   -4    4      5.84      0.00
   -8   -4    4      5.35      0.00
   -7   -4    4      2.30      0.00
   -6   -4    4     -6.18      0.00
   -5   -4    4      5.59      0.00
   -4   -4    4      9.28      0.00
   -3   -4    4    -22.75      0.00
   -2   -4    4     12.31      0.00
   -1   -4    4    -12.23      0.00
    0   -4    4      2.98      0.00
    1   -4    4    -10.33      0.00
    2   -4    4      7.53      0.00
    3   -4    4    -10.55      0.00
    4   -4    4     -8.02      0.00
    5   -4    4      4.11      0.00
    6   -4    4      3.26      0.00
    7   -4    4      5.19      0.00
    8   -4    4     -2.99      0.00
    9   -4    4     -0.79      0.00
   10   -4    4     -1.36      0.00
   11   -4    4      2.74      0.00
   12   -4    4     -0.10      0.00
   13   -4    4      1.85      0.00
   14   -4    4     -0.34      0.00
   15   -4    4      0.66      0.00
   16   -4    4      1.60      0.00
  -17   -3    4      0.71      0.00
  -16   -3    4      0.48      0.00
  -15   -3    4     -1.93      0.00
  -14   -3    4      2.08      0.00
  -13   -3    4     -1.77      0.00
  -12   -3    4      0.29      0.00
  -11   -3    4      0.00      0.00
  -10   -3    4     -1.31      0.00
   -9   -3    4      7.32      0.00
   -8   -3    4     -1.00      0.00
   -7   -3    4     -1.58      0.00
   -6   -3    4     14.85      0.00
   -5   -3    4      5.21      0.00
   -4   -3    4    -15.59      0.00
   -3   -3    4      0.84      0.00
   -2   -3    4      7.42      0.00
   -1   -3    4     19.35      0.00
    0   -3    4    -17.97      0.00
    1   -3    4    -33.26      0.00
    2   -3    4     11.40      0.00
    3   -3    4    -16.93      0.00
    4   -3    4      5.76      0.00
    5   -3    4      6.26      0.00
    6   -3    4     -0.69      0.00
    7   -3    4     -4.14      0.00
    8   -3    4     -2.10      0.00
    9   -3    4      2.17      0.00
   10   -3    4     -4.46      0.00
   11   -3    4      5.72      0.00
   12   -3    4      2.93      0.00
   13   -3    4     -0.04      0.00
   14   -3    4      3.62      0.00
   15   -3    4     -2.60      0.00
   16   -3    4     -0.07      0.00
   17   -3    4     -1.26      0.00
  -17   -2    4     -1.85      0.00
  -16   -2    4     -0.24      0.00
  -15   -2    4     -0.07      0.00
  -14   -2    4     -1.08      0.00
  -13   -2    4      0.93      0.00
  -12   -2    4     -2.56      0.00
  -11   -2    4     -0.37      0.00
  -10   -2    4      1.38      0.00
   -9   -2    4      8.04      0.00
   -8   -2    4     -4.37      0.00
   -7   -2    4      0.09      0.00
   -6   -2    4      4.86      0.00
   -5   -2    4     12.99      0.00
   -4   -2    4     -9.84      0.00
   -3   -2    4     -6.48      0.00
   -2   -2    4     31.79      0.00
   -1   -2    4     -3.63      0.00
    0   -2    4      0.28      0.00
    1   -2    4    -35.04      0.00
    2   -2    4      6.12      0.00
    3   -2    4    -32.99      0.00
    4   -2    4      8.40      0.00
    5   -2    4     19.05      0.00
    6   -2    4     -7.33      0.00
    7   -2    4     -2.58      0.00
    8   -2    4     -5.22      0.00
    9   -2    4     -3.57      0.00
   10   -2    4      0.08      0.00
   11   -2    4      6.38      0.00
   12   -2    4      2.57      0.00
   13   -2    4      0.19      0.00
   14   -2    4      0.53      0.00
   15   -2    4      1.48      0.00
   16   -2    4     -0.72      0.00
   17   -2    4     -2.59      0.00
  -16   -1    4     -0.39      0.00
  -15   -1    4      2.72      0.00
  -14   -1    4     -0.52      0.00
  -13   -1    4     -1.92      0.00
  -12   -1    4     -0.83      0.00
  -11   -1    4     -2.90      0.00
  -10   -1    4      5.96      0.00
   -9   -1    4      2.71      0.00
   -8   -1    4     -5.63      0.00
   -7   -1    4     10.09      0.00
   -6   -1    4     -3.43      0.00
   -5   -1    4     -6.82      0.00
   -4   -1    4      7.41      0.00
   -3   -1    4     12.65      0.00
   -2   -1    4     10.03      0.00
   -1   -1    4     16.11      0.00
    0   -1    4    -16.58      0.00
    1   -1    4    -30.67      0.00
    2   -1    4     17.15      0.00
    3   -1    4    -10.27      0.00
    4   -1    4    -13.66      0.00
    5   -1    4      2.13      0.00
    6   -1    4      6.61      0.00
    7   -1    4     -6.26      0.00
    8   -1    4     -2.04      0.00
    9   -1    4     -0.96      0.00
   10   -1    4     -2.49      0.00
   11   -1    4      5.56      0.00
   12   -1    4      1.27      0.00
   13   -1    4     -2.09      0.00
   14   -1    4      0.88      0.00
   15   -1    4     -0.07      0.00
   16   -1    4      2.87      0.00
   17   -1    4     -2.53      0.00
   18   -1    4      0.02      0.00
  -16    0    4      2.67      0.00
  -15    0    4     -0.45      0.00
  -14    0    4     -1.13      0.00
  -13    0    4      1.45      0.00
  -12    0    4     -3.44      0.00
  -11    0    4      3.33      0.00
  -10    0    4      3.59      0.00
   -9    0    4      0.04      0.00
   -8    0    4     -2.29      0.00
   -7    0    4      7.13      0.00
   -6    0    4     -6.41      0.00
   -5    0    4     -1.66      0.00
   -4    0    4      3.71      0.00
   -3    0    4      9.26      0.00
   -2    0    4      2.02      0.00
   -1    0    4     24.47      0.00
    0    0    4      5.86      0.00
    1    0    4    -51.44      0.00
    2    0    4     31.27      0.00
    3    0    4      0.35      0.00
    4    0    4      1.48      0.00
    5    0    4    -12.77      0.00
    6    0    4     -3.89      0.00
    7    0    4     -1.05      0.00
    8    0    4     -7.30      0.00
    9    0    4      6.38      0.00
   10    0    4      2.84      0.00
   11    0    4      2.14      0.00
   12    0    4     -3.05      0.00
   13    0    4     -2.70      0.00
   14    0    4      2.07      0.00
   15    0    4     -0.80      0.00
   16    0    4     -0.42      0.00
   17    0    4      0.89      0.00
   18    0    4     -0.06      0.00
  -16    1    4      1.95      0.00
  -15    1    4     -1.17      0.00
  -14    1    4     -1.34      0.00
  -13    1    4      0.60      0.00
  -12    1    4      2.22      0.00
  -11    1    4     -0.14      0.00
  -10    1    4      5.06      0.00
   -9    1    4      0.44      0.00
   -8    1    4      1.07      0.00
   -7    1    4      2.92      0.00
   -6    1    4    -10.76      0.00
   -5    1    4      6.61      0.00
   -4    1    4      9.42      0.00
   -3    1    4      4.17      0.00
   -2    1    4     -9.43      0.00
   -1    1    4      9.90      0.00
    0    1    4      2.94      0.00
    1    1    4    -11.24      0.00
    2    1    4     38.61      0.00
    3    1    4     -1.07      0.00
    4    1    4    -12.06      0.00
    5    1    4      9.26      0.00
    6    1    4     -4.99      0.00
    7    1    4    -15.10      0.00
    8    1    4     -2.21      0.00
    9    1    4      4.86      0.00
   10    1    4      7.53      0.00
   11    1    4      1.53      0.00
   12    1    4     -3.92      0.00
   13    1    4     -4.13      0.00
   14    1    4     -0.15      0.00
   15    1    4     -0.14      0.00
   16    1    4      1.72      0.00
   17    1    4     -2.40      0.00
   18    1    4      2.96      0.00
   19    1    4     -0.38      0.00
  -15    2    4     -0.01      0.00
  -14    2    4     -1.31      0.00
  -13    2    4      2.19      0.00
  -12    2    4      1.54      0.00
  -11    2    4      1.55      0.00
  -10    2    4      0.39      0.00
   -9    2    4      2.01      0.00
   -8    2    4      0.44      0.00
   -7    2    4      2.59      0.00
   -6    2    4     -5.59      0.00
   -5    2    4      6.33      0.00
   -4    2    4      5.59      0.00
   -3    2    4     10.23      0.00
   -2    2    4      1.63      0.00
   -1    2    4    -13.44      0.00
    0    2    4    -30.55      0.00
    1    2    4     28.07      0.00
    2    2    4     52.60      0.00
    3    2    4     -8.29      0.00
    4    2    4     -2.38      0.00
    5    2    4     -6.30      0.00
    6    2    4      8.88      0.00
    7    2    4    -13.38      0.00
    8    2    4     -1.44      0.00
    9    2    4     11.65      0.00
   10    2    4     -3.25      0.00
   11    2    4     -1.48      0.00
   12    2    4     -2.58      0.00
   13    2    4      1.02      0.00
   14    2    4     -3.89      0.00
   15    2    4     -0.54      0.00
   16    2    4      0.91      0.00
   17    2    4      0.79      0.00
   18    2    4      2.12      0.00
   19    2    4     -0.47      0.00
  -15    3    4     -0.81      0.00
  -14    3    4     -0.78      0.00
  -13    3    4      3.20      0.00
  -12    3    4      2.80      0.00
  -11    3    4     -0.77      0.00
  -10    3    4      2.01      0.00
   -9    3    4     -3.12      0.00
   -8    3    4      0.21      0.00
   -7    3    4     -1.02      0.00
   -6    3    4      6.61      0.00
   -5    3    4      7.98      0.00
   -4    3    4     -5.76      0.00
   -3    3    4      9.20      0.00
   -2    3    4      1.72      0.00
   -1    3    4     -9.49      0.00
    0    3    4    -13.58      0.00
    1    3    4     15.20      0.00
    2    3    4     28.16      0.00
    3    3    4     -7.17      0.00
    4    3    4     11.62      0.00
    5    3    4      6.67      0.00
    6    3    4    -10.65      0.00
    7    3    4     -1.46      0.00
    8    3    4      8.76      0.00
    9    3    4      6.15      0.00
   10    3    4     -3.14      0.00
   11    3    4     -9.88      0.00
   12    3    4     -0.36      0.00
   13    3    4      0.97      0.00
   14    3    4      0.92      0.00
   15    3    4     -1.68      0.00
   16    3    4     -2.12      0.00
   17    3    4      2.56      0.00
   18    3    4      0.14      0.00
   19    3    4     -1.11      0.00
  -14    4    4      0.57      0.00
  -13    4    4      1.29      0.00
  -12    4    4      1.67      0.00
  -11    4    4      1.99      0.00
  -10    4    4     -2.15      0.00
   -9    4    4     -0.27      0.00
   -8    4    4     -2.25      0.00
   -7    4    4      1.01      0.00
   -6    4    4      7.22      0.00
   -5    4    4      7.84      0.00
   -4    4    4     -7.07      0.00
   -3    4    4      5.82      0.00
   -2    4    4      0.08      0.00
   -1    4    4    -17.68      0.00
    0    4    4     13.76      0.00
    1    4    4     25.91      0.00
    2    4    4    -18.67      0.00
    3    4    4     -5.65      0.00
    4    4    4     20.15      0.00
    5    4    4      2.49      0.00
    6    4    4     -0.94      0.00
    7    4    4     -3.45      0.00
    8    4    4     10.80      0.00
    9    4    4     -0.93      0.00
   10    4    4     -2.16      0.00
   11    4    4     -0.91      0.00
   12    4    4     -4.88      0.00
   13    4    4     -0.64      0.00
   14    4    4     -1.13      0.00
   15    4    4      3.32      0.00
   16    4    4     -1.25      0.00
   17    4    4     -1.39      0.00
   18    4    4     -2.62      0.00
   19    4    4      1.07      0.00
   20    4    4     -0.56      0.00
  -13    5    4      0.24      0.00
  -12    5    4      0.81      0.00
  -11    5    4     -1.04      0.00
  -10    5    4      2.03      0.00
   -9    5    4     -1.67      0.00
   -8    5    4     -1.77      0.00
   -7    5    4      4.46      0.00
   -6    5    4      6.79      0.00
   -5    5    4     -0.96      0.00
   -4    5    4      1.67      0.00
   -3    5    4      6.49      0.00
   -2    5    4     -5.81      0.00
   -1    5    4    -10.15      0.00
    0    5    4      8.50      0.00
    1    5    4     17.55      0.00
    2    5    4    -10.82      0.00
    3    5    4     -6.06      0.00
    4    5    4     16.49      0.00
    5    5    4    -12.64      0.00
    6    5    4      2.83      0.00
    7    5    4     15.64      0.00
    8    5    4     -7.20      0.00
    9    5    4      0.78      0.00
   10    5    4      0.15      0.00
   11    5    4     -2.79      0.00
   12    5    4      1.69      0.00
   13    5    4     -2.46      0.00
   14    5    4     -3.41      0.00
   15    5    4      1.98      0.00
   16    5    4      1.44      0.00
   17    5    4     -2.56      0.00
   18    5    4     -3.58      0.00
   19    5    4      1.12      0.00
   20    5    4     -2.64      0.00
  -13    6    4     -0.88      0.00
  -12    6    4      1.99      0.00
  -11    6    4     -2.18      0.00
  -10    6    4      0.87      0.00
   -9    6    4      0.06      0.00
   -8    6    4      0.72      0.00
   -7    6    4      2.16      0.00
   -6    6    4      1.81      0.00
   -5    6    4      9.77      0.00
   -4    6    4     -0.32      0.00
   -3    6    4     -3.05      0.00
   -2    6    4     -1.32      0.00
   -1    6    4     -1.71      0.00
    0    6    4     10.97      0.00
    1    6    4      2.16      0.00
    2    6    4    -10.50      0.00
    3    6    4      1.27      0.00
    4    6    4      8.83      0.00
    5    6    4    -13.12      0.00
    6    6    4      4.50      0.00
    7    6    4      9.52      0.00
    8    6    4     -0.43      0.00
    9    6    4     -3.05      0.00
   10    6    4      3.36      0.00
   11    6    4     -3.28      0.00
   12    6    4     -4.21      0.00
   13    6    4      3.02      0.00
   14    6    4     -2.65      0.00
   15    6    4     -0.07      0.00
   16    6    4     -1.36      0.00
   17    6    4      0.77      0.00
   18    6    4     -2.36      0.00
   19    6    4     -2.92      0.00
   20    6    4     -2.53      0.00
  -12    7    4     -2.42      0.00
  -11    7    4      0.23      0.00
  -10    7    4      0.90      0.00
   -9    7    4     -1.42      0.00
   -8    7    4      3.15      0.00
   -7    7    4      0.54      0.00
   -6    7    4      1.39      0.00
   -5    7    4     10.11      0.00
   -4    7    4     -0.86      0.00
   -3    7    4    -10.87      0.00
   -2    7    4      7.24      0.00
   -1    7    4      4.83      0.00
    0    7    4      3.08      0.00
    1    7    4      6.00      0.00
    2    7    4    -12.42      0.00
    3    7    4     -4.74      0.00
    4    7    4      5.52      0.00
    5    7    4     -3.62      0.00
    6    7    4      7.81      0.00
    7    7    4      1.42      0.00
    8    7    4     -6.32      0.00
    9    7    4      4.39      0.00
   10    7    4     -0.89      0.00
   11    7    4      2.35      0.00
   12    7    4     -3.28      0.00
   13    7    4     -3.47      0.00
   14    7    4     -0.58      0.00
   15    7    4      0.09      0.00
   16    7    4     -0.43      0.00
   17    7    4      0.97      0.00
   18    7    4     -3.62      0.00
   19    7    4     -1.80      0.00
   20    7    4     -1.88      0.00
  -11    8    4     -2.82      0.00
  -10    8    4      3.44      0.00
   -9    8    4     -1.39      0.00
   -8    8    4      1.20      0.00
   -7    8    4      2.65      0.00
   -6    8    4      2.86      0.00
   -5    8    4      2.95      0.00
   -4    8    4     -6.63      0.00
   -3    8    4     -1.57      0.00
   -2    8    4     11.73      0.00
   -1    8    4      3.92      0.00
    0    8    4     -5.63      0.00
    1    8    4      1.81      0.00
    2    8    4     -2.50      0.00
    3    8    4     -7.94      0.00
    4    8    4      4.78      0.00
    5    8    4      0.73      0.00
    6    8    4      5.83      0.00
    7    8    4     -0.72      0.00
    8    8    4      0.34      0.00
    9    8    4     -3.78      0.00
   10    8    4     -2.23      0.00
   11    8    4      2.81      0.00
   12    8    4      2.30      0.00
   13    8    4     -1.73      0.00
   14    8    4     -6.13      0.00
   15    8    4      1.44      0.00
   16    8    4      0.92      0.00
   17    8    4     -1.11      0.00
   18    8    4     -1.48      0.00
   19    8    4     -0.48      0.00
   20    8    4     -0.47      0.00
   21    8    4      0.17      0.00
  -11    9    4      1.27      0.00
  -10    9    4      1.03      0.00
   -9    9    4     -1.66      0.00
   -8    9    4      0.87      0.00
   -7    9    4      4.28      0.00
   -6    9    4      1.55      0.00
   -5    9    4     -2.76      0.00
   -4    9    4     -1.35      0.00
   -3    9    4      0.56      0.00
   -2    9    4     10.19      0.00
   -1    9    4      0.40      0.00
    0    9    4     -5.79      0.00
    1    9    4      3.40      0.00
    2    9    4     -7.37      0.00
    3    9    4     -3.88      0.00
    4    9    4      4.69      0.00
    5    9    4      3.59      0.00
    6    9    4     -0.88      0.00
    7    9    4      1.52      0.00
    8    9    4      0.75      0.00
    9    9    4      0.90      0.00
   10    9    4     -5.85      0.00
   11    9    4      1.38      0.00
   12    9    4      0.82      0.00
   13    9    4      1.24      0.00
   14    9    4     -1.50      0.00
   15    9    4     -0.33      0.00
   16    9    4     -2.81      0.00
   17    9    4     -0.07      0.00
   18    9    4     -0.08      0.00
   19    9    4      3.15      0.00
   20    9    4     -0.01      0.00
   21    9    4      0.04      0.00
  -10   10    4      2.86      0.00
   -9   10    4     -1.67      0.00
   -8   10    4      0.67      0.00
   -7   10    4      3.63      0.00
   -6   10    4     -0.26      0.00
   -5   10    4     -2.76      0.00
   -4   10    4      3.74      0.00
   -3   10    4      2.57      0.00
   -2   10    4      2.03      0.00
   -1   10    4      1.81      0.00
    0   10    4     -5.52      0.00
    1   10    4      2.78      0.00
    2   10    4     -0.68      0.00
    3   10    4     -8.77      0.00
    4   10    4      2.56      0.00
    5   10    4      3.36      0.00
    6   10    4      0.67      0.00
    7   10    4     -1.13      0.00
    8   10    4     -0.14      0.00
    9   10    4     -3.42      0.00
   10   10    4      1.78      0.00
   11   10    4      1.49      0.00
   12   10    4     -0.63      0.00
   13   10    4     -1.54      0.00
   14   10    4      1.58      0.00
   15   10    4      2.04      0.00
   16   10    4     -1.94      0.00
   17   10    4     -3.06      0.00
   18   10    4      0.65      0.00
   19   10    4      4.37      0.00
   20   10    4      2.51      0.00
   21   10    4     -1.11      0.00
   -9   11    4      1.44      0.00
   -8   11    4      1.41      0.00
   -7   11    4      3.40      0.00
   -6   11    4     -1.80      0.00
   -5   11    4     -3.39      0.00
   -4   11    4      6.86      0.00
   -3   11    4      3.90      0.00
   -2   11    4      1.00      0.00
   -1   11    4     -0.71      0.00
    0   11    4     -3.84      0.00
    1   11    4     -1.56      0.00
    2   11    4      1.86      0.00
    3   11    4      4.64      0.00
    4   11    4    -10.13      0.00
    5   11    4      0.38      0.00
    6   11    4      3.27      0.00
    7   11    4     -1.94      0.00
    8   11    4     -2.53      0.00
    9   11    4      0.97      0.00
   10   11    4     -3.49      0.00
   11   11    4      1.22      0.00
   12   11    4      0.52      0.00
   13   11    4     -0.78      0.00
   14   11    4      0.45      0.00
   15   11    4      1.25      0.00
   16   11    4      0.08      0.00
   17   11    4      1.31      0.00
   18   11    4     -2.48      0.00
   19   11    4      3.33      0.00
   20   11    4      1.42      0.00
   21   11    4      0.94      0.00
   -8   12    4      1.53      0.00
   -7   12    4      3.37      0.00
   -6   12    4     -1.13      0.00
   -5   12    4     -1.57      0.00
   -4   12    4      4.04      0.00
   -3   12    4      5.88      0.00
   -2   12    4     -1.31      0.00
   -1   12    4      2.61      0.00
    0   12    4     -6.02      0.00
    1   12    4     -1.51      0.00
    2   12    4      4.26      0.00
    3   12    4      0.40      0.00
    4   12    4     -1.61      0.00
    5   12    4     -4.15      0.00
    6   12    4     -2.13      0.00
    7   12    4     -2.67      0.00
    8   12    4      2.36      0.00
    9   12    4      3.26      0.00
   10   12    4     -3.23      0.00
   11   12    4     -4.12      0.00
   12   12    4     -0.60      0.00
   13   12    4     -0.17      0.00
   14   12    4      0.25      0.00
   15   12    4      1.00      0.00
   16   12    4     -0.64      0.00
   17   12    4      0.25      0.00
   18   12    4      3.61      0.00
   19   12    4     -1.58      0.00
   20   12    4      0.48      0.00
   21   12    4      1.52      0.00
   -7   13    4      0.26      0.00
   -6   13    4      0.81      0.00
   -5   13    4      0.91      0.00
   -4   13    4      2.75      0.00
   -3   13    4      0.75      0.00
   -2   13    4     -0.72      0.00
   -1   13    4      4.61      0.00
    0   13    4     -0.59      0.00
    1   13    4     -4.71      0.00
    2   13    4      2.34      0.00
    3   13    4     -1.71      0.00
    4   13    4     -2.07      0.00
    5   13    4      5.54      0.00
    6   13    4     -6.70      0.00
    7   13    4     -6.65      0.00
    8   13    4      4.30      0.00
    9   13    4      4.26      0.00
   10   13    4     -3.16      0.00
   11   13    4     -1.11      0.00
   12   13    4     -0.09      0.00
   13   13    4     -2.72      0.00
   14   13    4      0.46      0.00
   15   13    4      0.23      0.00
   16   13    4     -0.41      0.00
   17   13    4      0.38      0.00
   18   13    4      0.09      0.00
   19   13    4      1.07      0.00
   20   13    4     -1.15      0.00
   21   13    4      0.06      0.00
   -6   14    4     -0.67      0.00
   -5   14    4      1.77      0.00
   -4   14    4      2.24      0.00
   -3   14    4     -1.95      0.00
   -2   14    4     -5.20      0.00
   -1   14    4      9.83      0.00
    0   14    4     -2.74      0.00
    1   14    4      2.23      0.00
    2   14    4     -2.78      0.00
    3   14    4     -5.14      0.00
    4   14    4      2.58      0.00
    5   14    4      1.85      0.00
    6   14    4      0.84      0.00
    7   14    4     -7.04      0.00
    8   14    4      0.75      0.00
    9   14    4      4.61      0.00
   10   14    4     -4.77      0.00
   11   14    4      1.24      0.00
   12   14    4      2.47      0.00
   13   14    4     -1.57      0.00
   14   14    4      0.79      0.00
   15   14    4      0.82      0.00
   16   14    4     -1.94      0.00
   17   14    4      1.97      0.00
   18   14    4      0.28      0.00
   19   14    4     -2.16      0.00
   20   14    4     -0.09      0.00
   21   14    4     -2.50      0.00
   -5   15    4      1.00      0.00
   -4   15    4     -0.99      0.00
   -3   15    4     -1.53      0.00
   -2   15    4     -2.34      0.00
   -1   15    4     -0.01      0.00
    0   15    4      3.09      0.00
    1   15    4      1.80      0.00
    2   15    4     -2.11      0.00
    3   15    4     -2.09      0.00
    4   15    4      1.77      0.00
    5   15    4     -0.88      0.00
    6   15    4     -0.35      0.00
    7   15    4     -0.75      0.00
    8   15    4      0.93      0.00
    9   15    4      1.01      0.00
   10   15    4     -1.51      0.00
   11   15    4      0.52      0.00
   12   15    4     -0.03      0.00
   13   15    4      0.95      0.00
   14   15    4      2.74      0.00
   15   15    4     -2.30      0.00
   16   15    4      2.07      0.00
   17   15    4      1.75      0.00
   18   15    4      0.41      0.00
   19   15    4     -1.16      0.00
   20   15    4     -1.64      0.00
   -4   16    4     -2.66      0.00
   -3   16    4     -3.36      0.00
   -2   16    4     -1.04      0.00
   -1   16    4      2.66      0.00
    0   16    4     -2.48      0.00
    1   16    4      5.11      0.00
    2   16    4     -7.37      0.00
    3   16    4      3.98      0.00
    4   16    4      5.02      0.00
    5   16    4     -5.17      0.00
    6   16    4      1.02      0.00
    7   16    4     -0.08      0.00
    8   16    4      0.81      0.00
    9   16    4     -0.12      0.00
   10   16    4      0.45      0.00
   11   16    4      2.89      0.00
   12   16    4     -1.62      0.00
   13   16    4      0.99      0.00
   14   16    4     -0.52      0.00
   15   16    4     -2.09      0.00
   16   16    4      3.01      0.00
   17   16    4      1.47      0.00
   18   16    4     -0.16      0.00
   19   16    4      0.42      0.00
   20   16    4     -0.01      0.00
   -2   17    4     -2.84      0.00
   -1   17    4     -2.01      0.00
    0   17    4      2.87      0.00
    1   17    4      1.07      0.00
    2   17    4     -1.53      0.00
    3   17    4     -0.01      0.00
    4   17    4      5.19      0.00
    5   17    4     -0.01      0.00
    6   17    4     -1.19      0.00
    7   17    4      1.32      0.00
    8   17    4     -0.47      0.00
    9   17    4      0.82      0.00
   10   17    4      0.29      0.00
   11   17    4      2.59      0.00
   12   17    4      1.13      0.00
   13   17    4     -0.64      0.00
   14   17    4     -0.88      0.00
   15   17    4     -2.66      0.00
   16   17    4      2.34      0.00
   17   17    4     -1.72      0.00
   18   17    4      0.31      0.00
   19   17    4      0.79      0.00
   20   17    4      1.33      0.00
   -1   18    4     -6.41      0.00
    0   18    4     -5.70      0.00
    1   18    4      7.95      0.00
    2   18    4     -0.48      0.00
    3   18    4      3.31      0.00
    4   18    4      2.93      0.00
    5   18    4     -0.90      0.00
    6   18    4      2.17      0.00
    7   18    4     -0.76      0.00
    8   18    4      0.59      0.00
    9   18    4      2.63      0.00
   10   18    4      0.04      0.00
   11   18    4      1.98      0.00
   12   18    4      0.13      0.00
   13   18    4      0.94      0.00
   14   18    4     -0.10      0.00
   15   18    4     -1.74      0.00
   16   18    4      0.29      0.00
   17   18    4     -0.96      0.00
   18   18    4     -0.94      0.00
   19   18    4      0.29      0.00
    1   19    4     -5.31      0.00
    2   19    4      2.49      0.00
    3   19    4      7.39      0.00
    4   19    4      3.96      0.00
    5   19    4     -2.43      0.00
    6   19    4      1.39      0.00
    7   19    4      1.90      0.00
    8   19    4      1.55      0.00
    9   19    4      1.07      0.00
   10   19    4     -1.41      0.00
   11   19    4      3.35      0.00
   12   19    4     -0.39      0.00
   13   19    4      0.95      0.00
   14   19    4      3.28      0.00
   15   19    4     -1.41      0.00
   16   19    4      0.18      0.00
   17   19    4     -1.18      0.00
   18   19    4      0.55      0.00
    2   20    4     -4.83      0.00
    3   20    4      5.44      0.00
    4   20    4      5.59      0.00
    5   20    4     -1.83      0.00
    6   20    4      2.40      0.00
    7   20    4      1.42      0.00
    8   20    4      1.38      0.00
    9   20    4      0.69      0.00
   10   20    4     -0.18      0.00
   11   20    4      0.84      0.00
   12   20    4     -1.34      0.00
   13   20    4      1.54      0.00
   14   20    4      2.94      0.00
   15   20    4      3.82      0.00
   16   20    4     -0.52      0.00
   17   20    4     -1.51      0.00
    5   21    4      2.42      0.00
    6   21    4      1.92      0.00
    7   21    4      2.79      0.00
    8   21    4     -0.58      0.00
    9   21    4     -2.52      0.00
   10   21    4      1.05      0.00
   11   21    4      3.75      0.00
   12   21    4     -2.62      0.00
   13   21    4     -0.71      0.00
   14   21    4      3.17      0.00
   15   21    4      1.93      0.00
   16   21    4      0.71      0.00
    8   22    4      4.76      0.00
    9   22    4     -2.37      0.00
   10   22    4     -4.84      0.00
   11   22    4      3.27      0.00
   12   22    4      1.72      0.00
   13   22    4      0.70      0.00
   14   22    4     -0.27      0.00
  -10  -22    5     -4.38      0.00
   -9  -22    5     -5.99      0.00
   -8  -22    5      2.49      0.00
   -7  -22    5      3.00      0.00
   -6  -22    5     -4.56      0.00
  -13  -21    5     -2.34      0.00
  -12  -21    5      1.24      0.00
  -11  -21    5     -1.46      0.00
  -10  -21    5     -2.38      0.00
   -9  -21    5     -2.86      0.00
   -8  -21    5     -0.99      0.00
   -7  -21    5      0.52      0.00
   -6  -21    5     -3.52      0.00
   -5  -21    5      2.79      0.00
   -4  -21    5     -4.44      0.00
   -3  -21    5     -1.29      0.00
  -14  -20    5     -0.23      0.00
  -13  -20    5     -0.89      0.00
  -12  -20    5      1.48      0.00
  -11  -20    5     -6.81      0.00
  -10  -20    5      1.95      0.00
   -9  -20    5      1.31      0.00
   -8  -20    5     -0.30      0.00
   -7  -20    5     -5.82      0.00
   -6  -20    5     -1.67      0.00
   -5  -20    5      4.02      0.00
   -4  -20    5     -3.11      0.00
   -3  -20    5     -6.20      0.00
   -2  -20    5     -1.39      0.00
   -1  -20    5      2.02      0.00
    0  -20    5      1.70      0.00
  -15  -19    5      2.63      0.00
  -14  -19    5     -1.57      0.00
  -13  -19    5     -2.74      0.00
  -12  -19    5     -0.81      0.00
  -11  -19    5     -5.30      0.00
  -10  -19    5      3.11      0.00
   -9  -19    5      1.09      0.00
   -8  -19    5      0.56      0.00
   -7  -19    5     -2.92      0.00
   -6  -19    5     -5.12      0.00
   -5  -19    5      1.53      0.00
   -4  -19    5     -0.24      0.00
   -3  -19    5     -2.19      0.00
   -2  -19    5     -5.05      0.00
   -1  -19    5     -1.65      0.00
    0  -19    5      0.20      0.00
    1  -19    5      3.11      0.00
    2  -19    5      3.62      0.00
  -16  -18    5     -0.31      0.00
  -15  -18    5     -0.11      0.00
  -14  -18    5      0.99      0.00
  -13  -18    5     -1.26      0.00
  -12  -18    5     -2.45      0.00
  -11  -18    5     -4.14      0.00
  -10  -18    5      3.67      0.00
   -9  -18    5     -1.16      0.00
   -8  -18    5      0.13      0.00
   -7  -18    5     -1.80      0.00
   -6  -18    5     -0.59      0.00
   -5  -18    5     -3.27      0.00
   -4  -18    5     -3.08      0.00
   -3  -18    5      3.13      0.00
   -2  -18    5      0.79      0.00
   -1  -18    5     -5.61      0.00
    0  -18    5     -3.56      0.00
    1  -18    5      3.43      0.00
    2  -18    5      1.20      0.00
    3  -18    5      2.25      0.00
  -17  -17    5     -0.23      0.00
  -16  -17    5     -0.80      0.00
  -15  -17    5     -3.00      0.00
  -14  -17    5     -2.74      0.00
  -13  -17    5      2.24      0.00
  -12  -17    5      1.29      0.00
  -11  -17    5     -2.41      0.00
  -10  -17    5      1.51      0.00
   -9  -17    5     -0.81      0.00
   -8  -17    5     -3.67      0.00
   -7  -17    5     -0.28      0.00
   -6  -17    5      1.40      0.00
   -5  -17    5     -0.63      0.00
   -4  -17    5      0.04      0.00
   -3  -17    5     -1.75      0.00
   -2  -17    5     -1.46      0.00
   -1  -17    5     -0.50      0.00
    0  -17    5     -0.18      0.00
    1  -17    5     -0.13      0.00
    2  -17    5      0.62      0.00
    3  -17    5     -0.69      0.00
    4  -17    5      1.30      0.00
    5  -17    5      0.83      0.00
  -17  -16    5      0.02      0.00
  -16  -16    5     -2.33      0.00
  -15  -16    5     -2.65      0.00
  -14  -16    5     -2.51      0.00
  -13  -16    5     -0.93      0.00
  -12  -16    5      2.36      0.00
  -11  -16    5      1.93      0.00
  -10  -16    5      1.32      0.00
   -9  -16    5     -3.67      0.00
   -8  -16    5     -2.21      0.00
   -7  -16    5      2.39      0.00
   -6  -16    5     -0.63      0.00
   -5  -16    5      1.67      0.00
   -4  -16    5      3.22      0.00
   -3  -16    5     -2.24      0.00
   -2  -16    5     -2.77      0.00
   -1  -16    5     -0.51      0.00
    0  -16    5     -1.33      0.00
    1  -16    5      4.32      0.00
    2  -16    5     -3.39      0.00
    3  -16    5     -0.31      0.00
    4  -16    5      2.42      0.00
    5  -16    5     -3.69      0.00
    6  -16    5     -2.06      0.00
  -18  -15    5      1.42      0.00
  -17  -15    5     -2.11      0.00
  -16  -15    5     -1.51      0.00
  -15  -15    5     -1.72      0.00
  -14  -15    5     -1.92      0.00
  -13  -15    5     -0.72      0.00
  -12  -15    5      0.20      0.00
  -11  -15    5      1.63      0.00
  -10  -15    5      0.96      0.00
   -9  -15    5     -2.64      0.00
   -8  -15    5     -0.98      0.00
   -7  -15    5      5.42      0.00
   -6  -15    5     -0.90      0.00
   -5  -15    5      2.23      0.00
   -4  -15    5     -1.62      0.00
   -3  -15    5     -0.70      0.00
   -2  -15    5      5.66      0.00
   -1  -15    5     -2.87      0.00
    0  -15    5     -3.93      0.00
    1  -15    5     -0.18      0.00
    2  -15    5     -1.89      0.00
    3  -15    5     -0.53      0.00
    4  -15    5      7.13      0.00
    5  -15    5     -5.17      0.00
    6  -15    5     -9.25      0.00
    7  -15    5     -2.81      0.00
  -18  -14    5     -1.62      0.00
  -17  -14    5      1.69      0.00
  -16  -14    5     -2.72      0.00
  -15  -14    5      0.48      0.00
  -14  -14    5     -1.07      0.00
  -13  -14    5     -2.71      0.00
  -12  -14    5      0.47      0.00
  -11  -14    5      1.90      0.00
  -10  -14    5     -0.01      0.00
   -9  -14    5     -1.78      0.00
   -8  -14    5      0.73      0.00
   -7  -14    5      2.05      0.00
   -6  -14    5      3.52      0.00
   -5  -14    5      3.73      0.00
   -4  -14    5     -4.73      0.00
   -3  -14    5     -1.70      0.00
   -2  -14    5      2.70      0.00
   -1  -14    5     -1.20      0.00
    0  -14    5     -0.62      0.00
    1  -14    5      0.18      0.00
    2  -14    5     -7.44      0.00
    3  -14    5      2.95      0.00
    4  -14    5      4.11      0.00
    5  -14    5     -6.31      0.00
    6  -14    5     -6.11      0.00
    7  -14    5     -1.50      0.00
    8  -14    5     -2.06      0.00
  -18  -13    5     -3.18      0.00
  -17  -13    5      1.38      0.00
  -16  -13    5     -1.89      0.00
  -15  -13    5     -0.57      0.00
  -14  -13    5      0.87      0.00
  -13  -13    5     -2.28      0.00
  -12  -13    5     -2.57      0.00
  -11  -13    5      2.27      0.00
  -10  -13    5      1.51      0.00
   -9  -13    5      0.46      0.00
   -8  -13    5      1.68      0.00
   -7  -13    5      0.41      0.00
   -6  -13    5      1.57      0.00
   -5  -13    5      6.41      0.00
   -4  -13    5     -3.49      0.00
   -3  -13    5     -3.52      0.00
   -2  -13    5     -1.54      0.00
   -1  -13    5     -3.98      0.00
    0  -13    5      2.04      0.00
    1  -13    5     -0.17      0.00
    2  -13    5     -0.54      0.00
    3  -13    5     -2.07      0.00
    4  -13    5      0.77      0.00
    5  -13    5     -8.29      0.00
    6  -13    5      0.21      0.00
    7  -13    5     -0.73      0.00
    8  -13    5     -1.24      0.00
    9  -13    5     -0.83      0.00
  -18  -12    5      0.57      0.00
  -17  -12    5      1.76      0.00
  -16  -12    5     -2.12      0.00
  -15  -12    5      0.83      0.00
  -14  -12    5     -3.38      0.00
  -13  -12    5      2.16      0.00
  -12  -12    5     -2.92      0.00
  -11  -12    5      1.46      0.00
  -10  -12    5     -1.43      0.00
   -9  -12    5      0.54      0.00
   -8  -12    5      7.69      0.00
   -7  -12    5      2.70      0.00
   -6  -12    5     -0.55      0.00
   -5  -12    5      0.03      0.00
   -4  -12    5     -0.08      0.00
   -3  -12    5     -1.12      0.00
   -2  -12    5     -0.69      0.00
   -1  -12    5     -4.18      0.00
    0  -12    5     -4.15      0.00
    1  -12    5     -0.98      0.00
    2  -12    5      0.06      0.00
    3  -12    5      4.15      0.00
    4  -12    5     -3.55      0.00
    5  -12    5     -6.39      0.00
    6  -12    5      0.23      0.00
    7  -12    5     -1.58      0.00
    8  -12    5      0.00      0.00
    9  -12    5      3.91      0.00
   10  -12    5     -1.70      0.00
  -18  -11    5     -3.25      0.00
  -17  -11    5      2.84      0.00
  -16  -11    5      1.24      0.00
  -15  -11    5      0.12      0.00
  -14  -11    5     -3.09      0.00
  -13  -11    5     -0.94      0.00
  -12  -11    5      0.65      0.00
  -11  -11    5      3.34      0.00
  -10  -11    5     -0.46      0.00
   -9  -11    5     -2.55      0.00
   -8  -11    5      4.57      0.00
   -7  -11    5      4.47      0.00
   -6  -11    5     -0.84      0.00
   -5  -11    5      5.52      0.00
   -4  -11    5     -0.70      0.00
   -3  -11    5     -0.52      0.00
   -2  -11    5     -0.65      0.00
   -1  -11    5     -4.78      0.00
    0  -11    5      0.30      0.00
    1  -11    5     -7.86      0.00
    2  -11    5      4.24      0.00
    3  -11    5      0.15      0.00
    4  -11    5     -3.72      0.00
    5  -11    5     -1.97      0.00
    6  -11    5      2.38      0.00
    7  -11    5     -5.05      0.00
    8  -11    5      3.69      0.00
    9  -11    5      1.03      0.00
   10  -11    5     -1.38      0.00
   11  -11    5     -0.38      0.00
  -18  -10    5     -0.38      0.00
  -17  -10    5      0.29      0.00
  -16  -10    5     -1.45      0.00
  -15  -10    5      0.59      0.00
  -14  -10    5     -0.70      0.00
  -13  -10    5     -0.65      0.00
  -12  -10    5     -3.57      0.00
  -11  -10    5      5.39      0.00
  -10  -10    5     -0.97      0.00
   -9  -10    5      5.54      0.00
   -8  -10    5      1.10      0.00
   -7  -10    5     -4.41      0.00
   -6  -10    5      0.14      0.00
   -5  -10    5      9.07      0.00
   -4  -10    5      6.62      0.00
   -3  -10    5     -0.04      0.00
   -2  -10    5     -2.87      0.00
   -1  -10    5     -5.50      0.00
    0  -10    5      2.26      0.00
    1  -10    5      2.02      0.00
    2  -10    5     -0.20      0.00
    3  -10    5     -8.74      0.00
    4  -10    5     -5.45      0.00
    5  -10    5      6.16      0.00
    6  -10    5      1.24      0.00
    7  -10    5     -1.24      0.00
    8  -10    5      4.33      0.00
    9  -10    5     -2.00      0.00
   10  -10    5     -4.83      0.00
   11  -10    5      4.34      0.00
   12  -10    5     -0.36      0.00
  -18   -9    5      0.56      0.00
  -17   -9    5      2.87      0.00
  -16   -9    5     -4.67      0.00
  -15   -9    5      0.19      0.00
  -14   -9    5     -0.89      0.00
  -13   -9    5      0.84      0.00
  -12   -9    5     -0.85      0.00
  -11   -9    5     -3.07      0.00
  -10   -9    5     -0.95      0.00
   -9   -9    5      3.45      0.00
   -8   -9    5      8.00      0.00
   -7   -9    5     -0.87      0.00
   -6   -9    5     -2.52      0.00
   -5   -9    5      6.94      0.00
   -4   -9    5     -4.10      0.00
   -3   -9    5     13.51      0.00
   -2   -9    5      1.87      0.00
   -1   -9    5     -3.05      0.00
    0   -9    5      2.18      0.00
    1   -9    5     -2.62      0.00
    2   -9    5      8.55      0.00
    3   -9    5    -17.68      0.00
    4   -9    5     -4.92      0.00
    5   -9    5      6.01      0.00
    6   -9    5      4.91      0.00
    7   -9    5     -0.80      0.00
    8   -9    5      2.61      0.00
    9   -9    5     -0.54      0.00
   10   -9    5     -2.54      0.00
   11   -9    5      1.56      0.00
   12   -9    5      0.19      0.00
   13   -9    5     -2.37      0.00
  -18   -8    5      1.20      0.00
  -17   -8    5     -0.88      0.00
  -16   -8    5     -0.05      0.00
  -15   -8    5      0.41      0.00
  -14   -8    5     -1.58      0.00
  -13   -8    5     -0.71      0.00
  -12   -8    5     -0.77      0.00
  -11   -8    5     -2.27      0.00
  -10   -8    5     -0.66      0.00
   -9   -8    5      3.41      0.00
   -8   -8    5     -5.90      0.00
   -7   -8    5      9.76      0.00
   -6   -8    5      2.89      0.00
   -5   -8    5      0.30      0.00
   -4   -8    5      2.19      0.00
   -3   -8    5      1.24      0.00
   -2   -8    5      7.64      0.00
   -1   -8    5      9.56      0.00
    0   -8    5      2.47      0.00
    1   -8    5     -6.72      0.00
    2   -8    5     -2.97      0.00
    3   -8    5     -1.41      0.00
    4   -8    5     -5.50      0.00
    5   -8    5      0.46      0.00
    6   -8    5      5.72      0.00
    7   -8    5     -3.07      0.00
    8   -8    5      1.96      0.00
    9   -8    5      1.44      0.00
   10   -8    5     -3.15      0.00
   11   -8    5      4.08      0.00
   12   -8    5      0.18      0.00
   13   -8    5      0.16      0.00
   14   -8    5     -0.98      0.00
  -18   -7    5      0.72      0.00
  -17   -7    5      0.11      0.00
  -16   -7    5     -1.00      0.00
  -15   -7    5      1.26      0.00
  -14   -7    5     -0.32      0.00
  -13   -7    5      0.08      0.00
  -12   -7    5     -4.77      0.00
  -11   -7    5     -3.64      0.00
  -10   -7    5      4.12      0.00
   -9   -7    5      4.50      0.00
   -8   -7    5     -4.60      0.00
   -7   -7    5     -5.44      0.00
   -6   -7    5      6.76      0.00
   -5   -7    5      3.81      0.00
   -4   -7    5     -0.41      0.00
   -3   -7    5     14.61      0.00
   -2   -7    5    -13.31      0.00
   -1   -7    5     16.40      0.00
    0   -7    5     15.62      0.00
    1   -7    5    -17.95      0.00
    2   -7    5     -1.45      0.00
    3   -7    5     -0.32      0.00
    4   -7    5      2.12      0.00
    5   -7    5     -2.17      0.00
    6   -7    5      6.80      0.00
    8   -7    5     -0.90      0.00
    9   -7    5      4.48      0.00
   10   -7    5     -3.46      0.00
   11   -7    5      4.83      0.00
   12   -7    5      4.79      0.00
   13   -7    5     -0.94      0.00
   14   -7    5      0.80      0.00
  -18   -6    5     -0.37      0.00
  -17   -6    5     -1.55      0.00
  -16   -6    5      1.24      0.00
  -15   -6    5     -0.10      0.00
  -14   -6    5      1.48      0.00
  -13   -6    5     -0.27      0.00
  -12   -6    5     -1.28      0.00
  -11   -6    5     -6.17      0.00
  -10   -6    5      0.35      0.00
   -9   -6    5      1.62      0.00
   -8   -6    5     -3.28      0.00
   -7   -6    5      4.66      0.00
   -6   -6    5     -7.39      0.00
   -5   -6    5      1.73      0.00
   -4   -6    5     -0.85      0.00
   -3   -6    5      5.49      0.00
   -2   -6    5      6.00      0.00
   -1   -6    5     11.21      0.00
    0   -6    5      5.88      0.00
    1   -6    5    -16.18      0.00
    2   -6    5      0.19      0.00
    3   -6    5     12.44      0.00
    4   -6    5     -5.72      0.00
    5   -6    5      1.18      0.00
    6   -6    5      2.36      0.00
    7   -6    5     -8.16      0.00
    8   -6    5     -8.32      0.00
    9   -6    5      0.23      0.00
   10   -6    5      4.77      0.00
   11   -6    5      4.16      0.00
   12   -6    5     -0.48      0.00
   13   -6    5      2.42      0.00
   14   -6    5     -1.12      0.00
   15   -6    5     -1.78      0.00
  -17   -5    5     -1.43      0.00
  -16   -5    5     -0.26      0.00
  -15   -5    5      1.24      0.00
  -14   -5    5      1.04      0.00
  -13   -5    5     -2.33      0.00
  -12   -5    5      2.13      0.00
  -11   -5    5     -0.99      0.00
  -10   -5    5     -3.60      0.00
   -9   -5    5     -0.92      0.00
   -8   -5    5     -8.34      0.00
   -7   -5    5     -0.27      0.00
   -6   -5    5      4.88      0.00
   -5   -5    5     -9.14      0.00
   -4   -5    5     -7.53      0.00
   -3   -5    5      1.37      0.00
   -2   -5    5      5.00      0.00
   -1   -5    5     28.99      0.00
    0   -5    5    -13.96      0.00
    1   -5    5    -10.65      0.00
    2   -5    5      9.28      0.00
    3   -5    5      2.92      0.00
    4   -5    5      8.19      0.00
    5   -5    5     -4.58      0.00
    6   -5    5      2.37      0.00
    7   -5    5    -12.62      0.00
    8   -5    5     -4.38      0.00
    9   -5    5      3.96      0.00
   10   -5    5     -1.26      0.00
   11   -5    5      1.93      0.00
   12   -5    5     -0.24      0.00
   13   -5    5     -0.74      0.00
   14   -5    5      1.53      0.00
   15   -5    5      0.30      0.00
   16   -5    5      0.83      0.00
  -17   -4    5      0.13      0.00
  -16   -4    5      0.57      0.00
  -15   -4    5     -0.80      0.00
  -14   -4    5     -0.36      0.00
  -13   -4    5     -2.12      0.00
  -12   -4    5      2.52      0.00
  -11   -4    5     -0.48      0.00
  -10   -4    5      0.86      0.00
   -9   -4    5     -1.72      0.00
   -8   -4    5     -7.26      0.00
   -7   -4    5     -7.48      0.00
   -6   -4    5     -5.21      0.00
   -5   -4    5      1.81      0.00
   -4   -4    5    -18.09      0.00
   -3   -4    5      5.57      0.00
   -2   -4    5      6.19      0.00
   -1   -4    5     -5.81      0.00
    0   -4    5      1.10      0.00
    1   -4    5     16.32      0.00
    2   -4    5     -2.58      0.00
    3   -4    5     -1.19      0.00
    4   -4    5     11.99      0.00
    5   -4    5      1.56      0.00
    6   -4    5     -4.21      0.00
    7   -4    5     -4.39      0.00
    8   -4    5     -6.21      0.00
    9   -4    5      3.98      0.00
   10   -4    5     -0.34      0.00
   11   -4    5     -0.46      0.00
   12   -4    5     -3.13      0.00
   13   -4    5     -0.54      0.00
   14   -4    5      2.52      0.00
   15   -4    5      0.86      0.00
   16   -4    5     -1.29      0.00
  -17   -3    5      0.98      0.00
  -16   -3    5     -0.98      0.00
  -15   -3    5      1.09      0.00
  -14   -3    5     -0.39      0.00
  -13   -3    5     -1.77      0.00
  -12   -3    5      2.36      0.00
  -11   -3    5     -2.88      0.00
  -10   -3    5      3.75      0.00
   -9   -3    5     -2.86      0.00
   -8   -3    5     -9.98      0.00
   -7   -3    5      5.68      0.00
   -6   -3    5    -10.28      0.00
   -5   -3    5    -18.25      0.00
   -4   -3    5     -5.33      0.00
   -3   -3    5     17.01      0.00
   -2   -3    5    -12.04      0.00
   -1   -3    5    -21.32      0.00
    0   -3    5     -7.55      0.00
    1   -3    5     28.84      0.00
    2   -3    5      4.61      0.00
    3   -3    5      8.59      0.00
    4   -3    5     11.35      0.00
    5   -3    5     -7.26      0.00
    6   -3    5      0.27      0.00
    7   -3    5     -4.94      0.00
    8   -3    5      4.43      0.00
    9   -3    5     -1.26      0.00
   10   -3    5      0.13      0.00
   11   -3    5      3.38      0.00
   12   -3    5     -6.16      0.00
   13   -3    5      0.12      0.00
   14   -3    5      0.44      0.00
   15   -3    5     -1.86      0.00
   16   -3    5      1.81      0.00
   17   -3    5      2.34      0.00
  -16   -2    5      1.74      0.00
  -15   -2    5     -1.56      0.00
  -14   -2    5      1.22      0.00
  -13   -2    5     -0.56      0.00
  -12   -2    5     -0.39      0.00
  -11   -2    5      0.86      0.00
  -10   -2    5      0.90      0.00
   -9   -2    5     -5.59      0.00
   -8   -2    5     -4.28      0.00
   -7   -2    5      1.69      0.00
   -6   -2    5     -2.19      0.00
   -5   -2    5    -14.98      0.00
   -4   -2    5     -8.36      0.00
   -3   -2    5     11.14      0.00
   -2   -2    5    -18.60      0.00
   -1   -2    5    -17.94      0.00
    0   -2    5    -19.88      0.00
    1   -2    5     23.52      0.00
    2   -2    5      0.31      0.00
    3   -2    5     13.91      0.00
    4   -2    5     26.81      0.00
    5   -2    5    -10.93      0.00
    6   -2    5     -8.55      0.00
    7   -2    5      4.97      0.00
    8   -2    5      0.71      0.00
    9   -2    5      5.60      0.00
   10   -2    5      2.55      0.00
   11   -2    5     -1.29      0.00
   12   -2    5     -5.92      0.00
   13   -2    5      2.30      0.00
   14   -2    5      0.14      0.00
   15   -2    5     -1.81      0.00
   16   -2    5      1.66      0.00
   17   -2    5      3.51      0.00
  -16   -1    5      2.38      0.00
  -15   -1    5     -1.56      0.00
  -14   -1    5     -2.07      0.00
  -13   -1    5     -1.20      0.00
  -12   -1    5      1.03      0.00
  -11   -1    5      0.76      0.00
  -10   -1    5     -0.76      0.00
   -9   -1    5     -7.27      0.00
   -8   -1    5      2.66      0.00
   -7   -1    5     -0.85      0.00
   -6   -1    5    -12.10      0.00
   -5   -1    5      8.97      0.00
   -4   -1    5     -2.09      0.00
   -3   -1    5     -9.57      0.00
   -2   -1    5    -22.56      0.00
   -1   -1    5    -11.70      0.00
    0   -1    5    -23.82      0.00
    1   -1    5     22.09      0.00
    2   -1    5     -2.50      0.00
    3   -1    5     -7.71      0.00
    4   -1    5     19.22      0.00
    5   -1    5      6.90      0.00
    6   -1    5     -3.18      0.00
    7   -1    5      1.74      0.00
    8   -1    5     10.18      0.00
    9   -1    5     -2.62      0.00
   10   -1    5      3.57      0.00
   11   -1    5     -1.32      0.00
   12   -1    5     -3.79      0.00
   13   -1    5      0.27      0.00
   14   -1    5      0.78      0.00
   15   -1    5      3.35      0.00
   16   -1    5      0.82      0.00
   17   -1    5     -0.55      0.00
   18   -1    5      0.60      0.00
  -16    0    5     -0.40      0.00
  -15    0    5     -2.07      0.00
  -14    0    5      0.16      0.00
  -13    0    5     -2.97      0.00
  -12    0    5      0.89      0.00
  -11    0    5     -0.33      0.00
  -10    0    5     -4.62      0.00
   -9    0    5     -4.61      0.00
   -8    0    5      0.79      0.00
   -7    0    5     -0.35      0.00
   -6    0    5     -4.61      0.00
   -5    0    5      3.82      0.00
   -4    0    5      2.64      0.00
   -3    0    5    -10.76      0.00
   -2    0    5    -11.85      0.00
   -1    0    5    -14.15      0.00
    0    0    5    -27.34      0.00
    1    0    5     21.08      0.00
    2    0    5    -16.20      0.00
    3    0    5     -1.56      0.00
    4    0    5     -6.84      0.00
    5    0    5     -3.13      0.00
    6    0    5     16.77      0.00
    7    0    5      4.90      0.00
    8    0    5      8.25      0.00
    9    0    5      4.52      0.00
   10    0    5     -5.11      0.00
   11    0    5     -1.20      0.00
   12    0    5     -3.38      0.00
   13    0    5      4.63      0.00
   14    0    5     -0.86      0.00
   15    0    5      1.24      0.00
   16    0    5      1.35      0.00
   17    0    5      2.04      0.00
   18    0    5     -2.06      0.00
  -15    1    5     -1.45      0.00
  -14    1    5      0.77      0.00
  -13    1    5      0.06      0.00
  -12    1    5     -1.53      0.00
  -11    1    5     -1.76      0.00
  -10    1    5     -3.07      0.00
   -9    1    5     -5.85      0.00
   -8    1    5      1.48      0.00
   -7    1    5     -6.36      0.00
   -6    1    5      3.82      0.00
   -5    1    5      7.81      0.00
   -4    1    5     -8.56      0.00
   -3    1    5     -9.75      0.00
   -2    1    5    -12.98      0.00
   -1    1    5     15.76      0.00
    0    1    5    -26.07      0.00
    1    1    5      4.48      0.00
    2    1    5     -9.66      0.00
    3    1    5    -29.22      0.00
    4    1    5      1.36      0.00
    5    1    5     -1.68      0.00
    6    1    5     -2.37      0.00
    7    1    5      8.55      0.00
    8    1    5     18.31      0.00
    9    1    5      0.74      0.00
   10    1    5     -0.23      0.00
   11    1    5     -7.10      0.00
   12    1    5      0.00      0.00
   13    1    5      3.04      0.00
   14    1    5      2.43      0.00
   15    1    5      0.24      0.00
   16    1    5     -1.44      0.00
   17    1    5      2.64      0.00
   18    1    5     -1.51      0.00
   19    1    5     -2.13      0.00
  -15    2    5     -0.89      0.00
  -14    2    5      0.73      0.00
  -13    2    5      0.41      0.00
  -12    2    5     -2.12      0.00
  -11    2    5     -1.22      0.00
  -10    2    5     -2.06      0.00
   -9    2    5     -1.32      0.00
   -8    2    5     -0.48      0.00
   -7    2    5     -5.41      0.00
   -6    2    5      2.67      0.00
   -5    2    5      5.84      0.00
   -4    2    5     -4.56      0.00
   -3    2    5    -13.01      0.00
   -2    2    5     -7.68      0.00
   -1    2    5     -2.90      0.00
    0    2    5     11.23      0.00
    1    2    5     16.33      0.00
    2    2    5    -38.04      0.00
    3    2    5    -25.11      0.00
    4    2    5     -5.10      0.00
    5    2    5      5.23      0.00
    6    2    5     -6.72      0.00
    7    2    5      0.99      0.00
    8    2    5     19.16      0.00
    9    2    5     -2.34      0.00
   10    2    5     -3.88      0.00
   11    2    5      3.24      0.00
   12    2    5      0.23      0.00
   13    2    5      2.26      0.00
   14    2    5     -2.11      0.00
   15    2    5      4.44      0.00
   16    2    5      0.30      0.00
   17    2    5     -0.26      0.00
   18    2    5     -3.94      0.00
   19    2    5     -0.16      0.00
  -14    3    5      1.97      0.00
  -13    3    5      0.37      0.00
  -12    3    5     -3.29      0.00
  -11    3    5      0.20      0.00
  -10    3    5     -1.25      0.00
   -9    3    5      1.07      0.00
   -8    3    5     -1.59      0.00
   -7    3    5      2.50      0.00
   -6    3    5      3.88      0.00
   -5    3    5    -11.45      0.00
   -4    3    5      1.28      0.00
   -3    3    5     -0.09      0.00
   -2    3    5     -9.08      0.00
   -1    3    5      2.37      0.00
    0    3    5      1.09      0.00
    1    3    5     16.73      0.00
    2    3    5    -33.29      0.00
    3    3    5    -11.78      0.00
    4    3    5      3.05      0.00
    5    3    5    -19.31      0.00
    6    3    5      5.85      0.00
    7    3    5      6.85      0.00
    8    3    5      3.01      0.00
    9    3    5     -6.83      0.00
   10    3    5     -0.38      0.00
   11    3    5      5.91      0.00
   12    3    5      7.01      0.00
   13    3    5     -1.46      0.00
   14    3    5     -0.98      0.00
   15    3    5     -0.23      0.00
   16    3    5      1.92      0.00
   17    3    5     -0.15      0.00
   18    3    5     -0.88      0.00
   19    3    5     -0.40      0.00
   20    3    5     -1.19      0.00
  -14    4    5      0.56      0.00
  -13    4    5     -0.54      0.00
  -12    4    5      0.45      0.00
  -11    4    5     -0.88      0.00
  -10    4    5     -0.11      0.00
   -9    4    5      0.51      0.00
   -8    4    5      1.30      0.00
   -7    4    5      2.79      0.00
   -6    4    5     -0.02      0.00
   -5    4    5     -9.87      0.00
   -4    4    5     -1.69      0.00
   -3    4    5      4.79      0.00
   -2    4    5     -6.68      0.00
   -1    4    5     10.70      0.00
    0    4    5     15.34      0.00
    1    4    5    -29.29      0.00
    2    4    5    -11.64      0.00
    3    4    5     15.47      0.00
    4    4    5    -10.56      0.00
    5    4    5    -12.85      0.00
    6    4    5     -0.01      0.00
    7    4    5      4.83      0.00
    8    4    5     -1.14      0.00
    9    4    5     -5.91      0.00
   10    4    5      3.95      0.00
   11    4    5      5.37      0.00
   12    4    5      1.07      0.00
   13    4    5      4.22      0.00
   14    4    5      0.46      0.00
   15    4    5     -0.30      0.00
   16    4    5     -4.46      0.00
   17    4    5      2.30      0.00
   18    4    5      2.38      0.00
   19    4    5      1.02      0.00
   20    4    5     -1.61      0.00
  -13    5    5     -0.35      0.00
  -12    5    5     -0.31      0.00
  -11    5    5      2.54      0.00
  -10    5    5     -0.17      0.00
   -9    5    5      1.31      0.00
   -8    5    5      1.44      0.00
   -7    5    5      1.44      0.00
   -6    5    5     -6.85      0.00
   -5    5    5     -3.84      0.00
   -4    5    5      3.40      0.00
   -3    5    5     -4.92      0.00
   -2    5    5     -2.02      0.00
   -1    5    5     12.51      0.00
    0    5    5      7.76      0.00
    1    5    5    -13.18      0.00
    2    5    5     -9.91      0.00
    3    5    5     14.15      0.00
    4    5    5    -11.77      0.00
    5    5    5     -6.83      0.00
    6    5    5     10.14      0.00
    7    5    5    -13.78      0.00
    8    5    5     -4.33      0.00
    9    5    5      5.16      0.00
   10    5    5      0.72      0.00
   11    5    5      3.53      0.00
   12    5    5      2.26      0.00
   13    5    5     -0.99      0.00
   14    5    5      4.95      0.00
   15    5    5      0.31      0.00
   16    5    5     -1.47      0.00
   17    5    5     -1.25      0.00
   18    5    5      2.88      0.00
   19    5    5      1.73      0.00
   20    5    5      1.63      0.00
  -12    6    5     -1.88      0.00
  -11    6    5      0.17      0.00
  -10    6    5      3.80      0.00
   -9    6    5      0.52      0.00
   -8    6    5      1.93      0.00
   -7    6    5     -2.95      0.00
   -6    6    5     -0.44      0.00
   -5    6    5     -5.69      0.00
   -4    6    5     -4.44      0.00
   -3    6    5      3.45      0.00
   -2    6    5     -1.73      0.00
   -1    6    5      8.62      0.00
    0    6    5     -1.68      0.00
    1    6    5     -9.29      0.00
    2    6    5      8.00      0.00
    3    6    5      7.95      0.00
    4    6    5    -10.26      0.00
    5    6    5     -1.22      0.00
    6    6    5      9.69      0.00
    7    6    5    -11.13      0.00
    8    6    5     -8.38      0.00
    9    6    5      3.05      0.00
   10    6    5     -1.14      0.00
   11    6    5      1.31      0.00
   12    6    5      3.47      0.00
   13    6    5      3.06      0.00
   14    6    5     -2.20      0.00
   15    6    5      3.66      0.00
   16    6    5      0.80      0.00
   17    6    5     -0.85      0.00
   18    6    5      1.14      0.00
   19    6    5      2.23      0.00
   20    6    5      1.52      0.00
  -12    7    5      0.38      0.00
  -11    7    5      1.66      0.00
  -10    7    5     -1.59      0.00
   -9    7    5      3.28      0.00
   -8    7    5      1.77      0.00
   -7    7    5     -1.81      0.00
   -6    7    5     -1.00      0.00
   -5    7    5     -4.41      0.00
   -4    7    5     -7.97      0.00
   -3    7    5      6.71      0.00
   -2    7    5      6.50      0.00
   -1    7    5     -5.65      0.00
    0    7    5     -1.27      0.00
    1    7    5     -7.35      0.00
    2    7    5      2.24      0.00
    3    7    5     15.96      0.00
    4    7    5     -4.15      0.00
    5    7    5      3.01      0.00
    6    7    5      0.79      0.00
    7    7    5    -10.24      0.00
    8    7    5      0.39      0.00
    9    7    5      0.15      0.00
   10    7    5     -2.40      0.00
   11    7    5     -0.93      0.00
   12    7    5     -0.67      0.00
   13    7    5      4.39      0.00
   14    7    5      2.74      0.00
   15    7    5     -1.18      0.00
   16    7    5      0.52      0.00
   17    7    5     -0.55      0.00
   18    7    5      2.33      0.00
   19    7    5      0.51      0.00
   20    7    5      1.84      0.00
   21    7    5      1.12      0.00
  -11    8    5      3.54      0.00
  -10    8    5     -0.81      0.00
   -9    8    5     -0.20      0.00
   -8    8    5      4.17      0.00
   -7    8    5     -2.98      0.00
   -6    8    5     -0.60      0.00
   -5    8    5     -5.15      0.00
   -4    8    5     -2.25      0.00
   -3    8    5      9.77      0.00
   -2    8    5     -1.22      0.00
   -1    8    5    -10.40      0.00
    0    8    5     -1.28      0.00
    1    8    5      4.23      0.00
    2    8    5     -2.73      0.00
    3    8    5      7.40      0.00
    4    8    5      6.22      0.00
    5    8    5      1.83      0.00
    6    8    5     -3.83      0.00
    7    8    5     -4.98      0.00
    8    8    5     -0.43      0.00
    9    8    5     -1.52      0.00
   10    8    5      2.60      0.00
   11    8    5     -0.94      0.00
   12    8    5     -2.62      0.00
   13    8    5      0.68      0.00
   14    8    5      1.57      0.00
   15    8    5      2.88      0.00
   16    8    5     -2.19      0.00
   17    8    5      0.16      0.00
   18    8    5      0.72      0.00
   19    8    5     -0.60      0.00
   20    8    5      2.22      0.00
   21    8    5     -1.28      0.00
  -10    9    5     -0.71      0.00
   -9    9    5      1.66      0.00
   -8    9    5      1.82      0.00
   -7    9    5     -1.31      0.00
   -6    9    5     -2.86      0.00
   -5    9    5      0.22      0.00
   -4    9    5      1.32      0.00
   -3    9    5      3.44      0.00
   -2    9    5     -6.04      0.00
   -1    9    5     -8.99      0.00
    0    9    5      7.33      0.00
    1    9    5     -1.11      0.00
    2    9    5     -3.31      0.00
    3    9    5     10.40      0.00
    4    9    5      2.31      0.00
    5    9    5     -0.67      0.00
    6    9    5     -1.04      0.00
    7    9    5     -0.17      0.00
    8    9    5     -1.42      0.00
    9    9    5     -1.31      0.00
   10    9    5     -1.60      0.00
   11    9    5      0.78      0.00
   12    9    5      0.28      0.00
   13    9    5     -0.60      0.00
   14    9    5     -1.60      0.00
   15    9    5     -0.57      0.00
   16    9    5      1.80      0.00
   17    9    5      1.23      0.00
   18    9    5      0.32      0.00
   19    9    5     -1.17      0.00
   20    9    5     -2.44      0.00
   21    9    5     -0.37      0.00
   -9   10    5      0.05      0.00
   -8   10    5      3.44      0.00
   -7   10    5     -2.21      0.00
   -6   10    5     -0.93      0.00
   -5   10    5      3.97      0.00
   -4   10    5      1.25      0.00
   -3   10    5     -4.76      0.00
   -2   10    5     -4.41      0.00
   -1   10    5     -1.74      0.00
    0   10    5      3.84      0.00
    1   10    5      0.87      0.00
    2   10    5     -5.22      0.00
    3   10    5      3.37      0.00
    4   10    5      8.93      0.00
    5   10    5     -2.12      0.00
    6   10    5     -1.91      0.00
    7   10    5      2.09      0.00
    8   10    5      1.33      0.00
    9   10    5     -1.71      0.00
   10   10    5      2.63      0.00
   11   10    5     -3.11      0.00
   12   10    5     -3.82      0.00
   13   10    5      2.04      0.00
   14   10    5     -0.63      0.00
   15   10    5     -1.73      0.00
   16   10    5     -2.29      0.00
   17   10    5      1.72      0.00
   18   10    5      4.51      0.00
   19   10    5     -1.57      0.00
   20   10    5     -3.90      0.00
   21   10    5     -1.03      0.00
   -9   11    5      2.64      0.00
   -8   11    5      0.71      0.00
   -7   11    5     -1.06      0.00
   -6   11    5     -0.44      0.00
   -5   11    5      5.50      0.00
   -4   11    5      0.65      0.00
   -3   11    5     -5.79      0.00
   -2   11    5     -1.54      0.00
   -1   11    5     -1.98      0.00
    0   11    5      1.98      0.00
    1   11    5      1.56      0.00
    2   11    5      1.70      0.00
    3   11    5     -4.36      0.00
    4   11    5      1.04      0.00
    5   11    5      6.01      0.00
    6   11    5     -0.66      0.00
    7   11    5      1.72      0.00
    8   11    5      1.45      0.00
    9   11    5     -0.04      0.00
   10   11    5      1.28      0.00
   11   11    5      0.59      0.00
   12   11    5     -3.00      0.00
   13   11    5     -0.79      0.00
   14   11    5      0.30      0.00
   15   11    5     -1.86      0.00
   16   11    5     -0.55      0.00
   17   11    5     -0.91      0.00
   18   11    5      0.21      0.00
   19   11    5      1.11      0.00
   20   11    5      0.32      0.00
   21   11    5     -1.00      0.00
   -8   12    5      3.30      0.00
   -7   12    5     -1.25      0.00
   -6   12    5      0.38      0.00
   -5   12    5      2.65      0.00
   -4   12    5      1.71      0.00
   -3   12    5     -4.14      0.00
   -2   12    5     -0.04      0.00
   -1   12    5     -0.89      0.00
    0   12    5     -0.80      0.00
    1   12    5      4.22      0.00
    2   12    5      0.72      0.00
    3   12    5     -3.05      0.00
    4   12    5     -0.09      0.00
    5   12    5     -2.84      0.00
    6   12    5      7.08      0.00
    7   12    5      3.25      0.00
    8   12    5      3.03      0.00
    9   12    5     -4.27      0.00
   10   12    5     -1.38      0.00
   11   12    5      2.50      0.00
   12   12    5      0.69      0.00
   13   12    5      1.09      0.00
   14   12    5     -1.81      0.00
   15   12    5      0.14      0.00
   16   12    5     -1.65      0.00
   17   12    5      1.87      0.00
   18   12    5     -2.54      0.00
   19   12    5     -1.83      0.00
   20   12    5      2.84      0.00
   21   12    5      0.22      0.00
   -7   13    5      2.09      0.00
   -6   13    5      1.98      0.00
   -5   13    5      1.08      0.00
   -4   13    5     -0.58      0.00
   -3   13    5     -2.79      0.00
   -2   13    5      4.75      0.00
   -1   13    5     -1.32      0.00
    0   13    5     -2.55      0.00
    1   13    5      1.96      0.00
    2   13    5      3.25      0.00
    3   13    5     -3.52      0.00
    4   13    5      1.76      0.00
    5   13    5     -0.94      0.00
    6   13    5     -4.12      0.00
    7   13    5      8.09      0.00
    8   13    5      5.00      0.00
    9   13    5     -5.84      0.00
   10   13    5     -0.77      0.00
   11   13    5      3.62      0.00
   12   13    5     -2.96      0.00
   13   13    5      1.45      0.00
   14   13    5      0.73      0.00
   15   13    5     -0.95      0.00
   16   13    5      1.06      0.00
   17   13    5     -1.09      0.00
   18   13    5     -0.04      0.00
   19   13    5     -0.61      0.00
   20   13    5     -0.45      0.00
   21   13    5      1.18      0.00
   -6   14    5      3.17      0.00
   -5   14    5      0.57      0.00
   -4   14    5     -0.43      0.00
   -3   14    5     -2.53      0.00
   -2   14    5      8.05      0.00
   -1   14    5     -1.37      0.00
    0   14    5     -3.39      0.00
    1   14    5      1.36      0.00
    2   14    5     -1.98      0.00
    3   14    5      3.17      0.00
    4   14    5      2.68      0.00
    5   14    5     -4.71      0.00
    6   14    5     -2.04      0.00
    7   14    5      1.40      0.00
    8   14    5      4.58      0.00
    9   14    5     -4.88      0.00
   10   14    5      4.37      0.00
   11   14    5      2.02      0.00
   12   14    5     -3.10      0.00
   13   14    5      0.62      0.00
   14   14    5     -2.07      0.00
   15   14    5      0.66      0.00
   16   14    5     -0.13      0.00
   17   14    5      1.17      0.00
   18   14    5     -2.55      0.00
   19   14    5      0.07      0.00
   20   14    5      0.47      0.00
   21   14    5      1.84      0.00
   -5   15    5     -0.14      0.00
   -4   15    5      0.69      0.00
   -3   15    5      1.50      0.00
   -2   15    5      2.79      0.00
   -1   15    5      0.31      0.00
    0   15    5      3.06      0.00
    1   15    5     -4.75      0.00
    2   15    5     -0.65      0.00
    3   15    5      2.58      0.00
    4   15    5     -1.85      0.00
    5   15    5     -1.42      0.00
    6   15    5     -1.49      0.00
    7   15    5      1.84      0.00
    8   15    5     -1.42      0.00
    9   15    5     -0.96      0.00
   10   15    5      1.09      0.00
   11   15    5      1.82      0.00
   12   15    5      0.42      0.00
   13   15    5      0.90      0.00
   14   15    5     -2.40      0.00
   15   15    5      0.03      0.00
   16   15    5      0.80      0.00
   17   15    5     -1.91      0.00
   18   15    5     -1.46      0.00
   19   15    5     -0.53      0.00
   20   15    5      1.19      0.00
   -3   16    5      2.43      0.00
   -2   16    5      5.29      0.00
   -1   16    5     -2.84      0.00
    0   16    5      2.14      0.00
    1   16    5     -1.51      0.00
    2   16    5     -0.52      0.00
    3   16    5      4.06      0.00
    4   16    5     -9.67      0.00
    5   16    5     -0.26      0.00
    6   16    5      2.31      0.00
    7   16    5     -2.39      0.00
    8   16    5     -0.37      0.00
    9   16    5     -1.38      0.00
   10   16    5      2.55      0.00
   11   16    5     -2.72      0.00
   12   16    5      0.35      0.00
   13   16    5      1.92      0.00
   14   16    5     -1.19      0.00
   15   16    5      3.62      0.00
   16   16    5     -1.56      0.00
   17   16    5     -2.07      0.00
   18   16    5     -1.38      0.00
   19   16    5      1.71      0.00
   20   16    5     -0.74      0.00
   -2   17    5      0.94      0.00
   -1   17    5      2.97      0.00
    0   17    5      1.97      0.00
    1   17    5     -4.37      0.00
    2   17    5      1.67      0.00
    3   17    5      1.52      0.00
    4   17    5     -5.35      0.00
    5   17    5     -3.33      0.00
    6   17    5     -1.44      0.00
    7   17    5     -0.07      0.00
    8   17    5     -1.62      0.00
    9   17    5     -1.27      0.00
   10   17    5      1.29      0.00
   11   17    5     -1.90      0.00
   12   17    5     -1.65      0.00
   13   17    5      0.43      0.00
   14   17    5     -0.18      0.00
   15   17    5      3.31      0.00
   16   17    5     -1.21      0.00
   17   17    5     -1.83      0.00
   18   17    5      3.11      0.00
   19   17    5      0.10      0.00
   20   17    5     -0.82      0.00
   -1   18    5      0.01      0.00
    0   18    5      8.31      0.00
    1   18    5     -0.51      0.00
    2   18    5     -3.61      0.00
    3   18    5      1.69      0.00
    4   18    5     -7.15      0.00
    5   18    5      1.01      0.00
    6   18    5     -3.28      0.00
    7   18    5     -3.85      0.00
    8   18    5      2.64      0.00
    9   18    5     -1.32      0.00
   10   18    5     -2.29      0.00
   11   18    5     -3.64      0.00
   12   18    5      0.88      0.00
   13   18    5     -0.71      0.00
   14   18    5     -1.99      0.00
   15   18    5      1.95      0.00
   16   18    5     -1.97      0.00
   17   18    5      1.82      0.00
   18   18    5      0.39      0.00
   19   18    5      2.09      0.00
    1   19    5      2.01      0.00
    2   19    5      5.62      0.00
    3   19    5     -4.01      0.00
    4   19    5     -8.31      0.00
    5   19    5      2.20      0.00
    6   19    5     -0.83      0.00
    7   19    5     -3.21      0.00
    8   19    5     -0.32      0.00
    9   19    5     -3.04      0.00
   10   19    5      2.21      0.00
   11   19    5     -3.47      0.00
   12   19    5     -1.73      0.00
   13   19    5      0.10      0.00
   14   19    5     -2.35      0.00
   15   19    5     -2.01      0.00
   16   19    5     -0.31      0.00
   17   19    5      1.97      0.00
   18   19    5     -0.55      0.00
    3   20    5      2.88      0.00
    4   20    5     -7.77      0.00
    5   20    5     -0.30      0.00
    6   20    5      1.14      0.00
    7   20    5     -1.77      0.00
    8   20    5     -1.48      0.00
    9   20    5     -3.45      0.00
   10   20    5      2.08      0.00
   11   20    5     -2.33      0.00
   12   20    5      1.26      0.00
   13   20    5     -0.57      0.00
   14   20    5     -2.07      0.00
   15   20    5     -2.00      0.00
   16   20    5     -3.15      0.00
   17   20    5      1.42      0.00
    5   21    5     -0.56      0.00
    6   21    5     -2.23      0.00
    7   21    5     -0.91      0.00
    8   21    5     -1.34      0.00
    9   21    5     -0.56      0.00
   10   21    5      2.83      0.00
   11   21    5     -3.73      0.00
   12   21    5     -0.84      0.00
   13   21    5      1.87      0.00
   14   21    5      0.35      0.00
   15   21    5     -3.01      0.00
   16   21    5     -0.86      0.00
    9   22    5     -4.73      0.00
   10   22    5      5.91      0.00
   11   22    5     -0.99      0.00
   12   22    5     -1.66      0.00
   13   22    5     -0.66      0.00
   -8  -22    6      5.42      0.00
  -12  -21    6      2.04      0.00
  -11  -21    6     -2.57      0.00
  -10  -21    6      1.82      0.00
   -9  -21    6     -0.79      0.00
   -8  -21    6      5.04      0.00
   -7  -21    6     -2.29      0.00
   -6  -21    6      5.57      0.00
   -5  -21    6     -0.63      0.00
   -4  -21    6      0.33      0.00
   -3  -21    6      4.18      0.00
  -14  -20    6      0.27      0.00
  -13  -20    6      1.08      0.00
  -12  -20    6     -2.42      0.00
  -11  -20    6      2.65      0.00
  -10  -20    6      1.90      0.00
   -9  -20    6     -2.01      0.00
   -8  -20    6     -1.83      0.00
   -7  -20    6     -0.16      0.00
   -6  -20    6      7.16      0.00
   -5  -20    6      0.01      0.00
   -4  -20    6     -2.99      0.00
   -3  -20    6      5.80      0.00
   -2  -20    6      4.00      0.00
   -1  -20    6      0.49      0.00
    0  -20    6     -0.09      0.00
  -15  -19    6     -2.35      0.00
  -14  -19    6     -1.75      0.00
  -13  -19    6      3.06      0.00
  -12  -19    6      0.56      0.00
  -11  -19    6      0.60      0.00
  -10  -19    6      4.82      0.00
   -9  -19    6     -4.95      0.00
   -8  -19    6     -0.74      0.00
   -7  -19    6     -3.01      0.00
   -6  -19    6      6.35      0.00
   -5  -19    6     -0.58      0.00
   -4  -19    6      0.84      0.00
   -3  -19    6      2.19      0.00
   -2  -19    6      1.04      0.00
   -1  -19    6      4.29      0.00
    0  -19    6      2.32      0.00
    1  -19    6     -0.44      0.00
    2  -19    6     -2.10      0.00
  -16  -18    6     -0.31      0.00
  -15  -18    6      0.53      0.00
  -14  -18    6     -0.56      0.00
  -13  -18    6      0.84      0.00
  -12  -18    6     -2.31      0.00
  -11  -18    6      5.95      0.00
  -10  -18    6     -1.91      0.00
   -9  -18    6     -1.77      0.00
   -8  -18    6     -0.59      0.00
   -7  -18    6      0.78      0.00
   -6  -18    6     -1.58      0.00
   -5  -18    6      0.71      0.00
   -4  -18    6      2.97      0.00
   -3  -18    6      3.40      0.00
   -2  -18    6     -4.13      0.00
   -1  -18    6      2.60      0.00
    0  -18    6      4.13      0.00
    1  -18    6     -0.88      0.00
    2  -18    6     -0.80      0.00
    3  -18    6      0.74      0.00
  -16  -17    6     -0.03      0.00
  -15  -17    6     -0.39      0.00
  -14  -17    6      4.31      0.00
  -13  -17    6     -0.09      0.00
  -12  -17    6     -2.69      0.00
  -11  -17    6      0.82      0.00
  -10  -17    6     -1.59      0.00
   -9  -17    6     -2.87      0.00
   -8  -17    6      3.26      0.00
   -7  -17    6     -0.56      0.00
   -6  -17    6     -0.80      0.00
   -5  -17    6      0.63      0.00
   -4  -17    6     -2.84      0.00
   -3  -17    6      0.35      0.00
   -2  -17    6      3.75      0.00
   -1  -17    6      0.68      0.00
    0  -17    6      0.04      0.00
    1  -17    6      0.01      0.00
    2  -17    6      0.46      0.00
    3  -17    6     -2.44      0.00
    4  -17    6      1.17      0.00
    5  -17    6     -0.70      0.00
  -17  -16    6     -0.25      0.00
  -16  -16    6      0.38      0.00
  -15  -16    6      1.85      0.00
  -14  -16    6      0.50      0.00
  -13  -16    6      2.46      0.00
  -12  -16    6     -1.74      0.00
  -11  -16    6     -0.80      0.00
  -10  -16    6     -5.11      0.00
   -9  -16    6      1.83      0.00
   -8  -16    6      0.90      0.00
   -7  -16    6      0.60      0.00
   -6  -16    6     -1.03      0.00
   -5  -16    6     -0.41      0.00
   -4  -16    6     -5.68      0.00
   -3  -16    6      1.01      0.00
   -2  -16    6     -0.75      0.00
   -1  -16    6      2.90      0.00
    0  -16    6      4.54      0.00
    1  -16    6     -3.13      0.00
    2  -16    6     -2.02      0.00
    3  -16    6      2.20      0.00
    4  -16    6     -2.70      0.00
    5  -16    6     -1.27      0.00
    6  -16    6      2.18      0.00
  -17  -15    6      0.31      0.00
  -16  -15    6      1.08      0.00
  -15  -15    6      1.39      0.00
  -14  -15    6      0.75      0.00
  -13  -15    6      0.67      0.00
  -12  -15    6     -1.02      0.00
  -11  -15    6     -1.66      0.00
  -10  -15    6     -1.44      0.00
   -9  -15    6     -0.35      0.00
   -8  -15    6      3.63      0.00
   -7  -15    6     -1.43      0.00
   -6  -15    6     -2.42      0.00
   -5  -15    6     -2.07      0.00
   -4  -15    6     -2.01      0.00
   -3  -15    6      3.95      0.00
   -2  -15    6     -4.43      0.00
   -1  -15    6     -2.76      0.00
    0  -15    6      4.94      0.00
    1  -15    6     -2.26      0.00
    2  -15    6      3.53      0.00
    3  -15    6      1.85      0.00
    4  -15    6     -3.77      0.00
    5  -15    6     -5.57      0.00
    6  -15    6      5.55      0.00
    7  -15    6      3.91      0.00
  -17  -14    6      0.47      0.00
  -16  -14    6      0.98      0.00
  -15  -14    6      1.48      0.00
  -14  -14    6     -1.68      0.00
  -13  -14    6      3.37      0.00
  -12  -14    6     -0.91      0.00
  -11  -14    6     -0.55      0.00
  -10  -14    6     -4.41      0.00
   -9  -14    6      2.33      0.00
   -8  -14    6      1.31      0.00
   -7  -14    6     -0.37      0.00
   -6  -14    6     -1.42      0.00
   -5  -14    6     -3.61      0.00
   -4  -14    6     -0.42      0.00
   -3  -14    6      3.83      0.00
   -2  -14    6     -1.79      0.00
   -1  -14    6     -0.54      0.00
    0  -14    6     -0.66      0.00
    1  -14    6     -2.39      0.00
    2  -14    6      4.89      0.00
    3  -14    6      1.06      0.00
    4  -14    6     -5.00      0.00
    5  -14    6     -1.49      0.00
    6  -14    6      5.46      0.00
    7  -14    6      3.52      0.00
    8  -14    6     -0.45      0.00
  -17  -13    6      1.10      0.00
  -16  -13    6      0.49      0.00
  -15  -13    6      2.20      0.00
  -14  -13    6     -0.75      0.00
  -13  -13    6      2.24      0.00
  -12  -13    6      2.79      0.00
  -11  -13    6     -1.11      0.00
  -10  -13    6     -1.81      0.00
   -9  -13    6     -1.33      0.00
   -8  -13    6     -0.70      0.00
   -7  -13    6     -2.36      0.00
   -6  -13    6      3.19      0.00
   -5  -13    6     -3.25      0.00
   -4  -13    6     -3.10      0.00
   -3  -13    6      3.81      0.00
   -2  -13    6     -0.48      0.00
   -1  -13    6      2.88      0.00
    0  -13    6      3.71      0.00
    1  -13    6     -3.10      0.00
    2  -13    6      0.44      0.00
    3  -13    6     -4.28      0.00
    4  -13    6     -1.14      0.00
    5  -13    6      1.44      0.00
    6  -13    6      6.07      0.00
    7  -13    6     -1.21      0.00
    8  -13    6      0.50      0.00
    9  -13    6     -0.68      0.00
   10  -13    6      0.46      0.00
  -18  -12    6      0.81      0.00
  -17  -12    6     -2.96      0.00
  -16  -12    6      0.03      0.00
  -15  -12    6     -0.32      0.00
  -14  -12    6      3.17      0.00
  -13  -12    6      3.21      0.00
  -12  -12    6     -1.35      0.00
  -11  -12    6      3.11      0.00
  -10  -12    6     -2.86      0.00
   -9  -12    6      4.96      0.00
   -8  -12    6     -4.92      0.00
   -7  -12    6     -4.66      0.00
   -6  -12    6     -1.83      0.00
   -5  -12    6      0.46      0.00
   -4  -12    6      1.80      0.00
   -3  -12    6     -0.43      0.00
   -2  -12    6      0.18      0.00
   -1  -12    6      1.77      0.00
    0  -12    6      4.46      0.00
    1  -12    6     -0.01      0.00
    2  -12    6      2.19      0.00
    3  -12    6     -3.45      0.00
    4  -12    6     -4.01      0.00
    5  -12    6      2.10      0.00
    6  -12    6      2.12      0.00
    7  -12    6     -2.67      0.00
    8  -12    6      3.67      0.00
    9  -12    6     -1.43      0.00
   10  -12    6     -3.62      0.00
   11  -12    6      0.44      0.00
  -18  -11    6      0.97      0.00
  -17  -11    6     -0.25      0.00
  -16  -11    6     -1.84      0.00
  -15  -11    6     -1.02      0.00
  -14  -11    6      0.95      0.00
  -13  -11    6      3.40      0.00
  -12  -11    6      2.24      0.00
  -11  -11    6     -1.19      0.00
  -10  -11    6     -0.79      0.00
   -9  -11    6      0.39      0.00
   -8  -11    6      3.20      0.00
   -7  -11    6     -7.23      0.00
   -6  -11    6      0.16      0.00
   -5  -11    6     -0.22      0.00
   -4  -11    6     -4.87      0.00
   -3  -11    6      3.52      0.00
   -2  -11    6     -0.57      0.00
   -1  -11    6      4.33      0.00
    0  -11    6     -2.35      0.00
    1  -11    6      1.61      0.00
    2  -11    6      6.27      0.00
    3  -11    6     -5.27      0.00
    4  -11    6      2.77      0.00
    5  -11    6      0.37      0.00
    6  -11    6     -6.02      0.00
    7  -11    6      0.69      0.00
    8  -11    6      1.83      0.00
    9  -11    6     -4.76      0.00
   10  -11    6      0.37      0.00
   11  -11    6     -0.07      0.00
  -18  -10    6     -0.44      0.00
  -17  -10    6     -3.24      0.00
  -16  -10    6      2.58      0.00
  -15  -10    6     -0.54      0.00
  -14  -10    6      0.27      0.00
  -13  -10    6      0.16      0.00
  -12  -10    6      3.62      0.00
  -11  -10    6      1.41      0.00
  -10  -10    6     -0.86      0.00
   -9  -10    6      0.99      0.00
   -8  -10    6    -10.37      0.00
   -7  -10    6      4.95      0.00
   -6  -10    6      3.87      0.00
   -5  -10    6     -0.28      0.00
   -4  -10    6     -8.81      0.00
   -3  -10    6     -2.47      0.00
   -2  -10    6      1.48      0.00
   -1  -10    6      4.77      0.00
    0  -10    6      3.03      0.00
    1  -10    6     -3.60      0.00
    2  -10    6     -1.38      0.00
    3  -10    6     -2.57      0.00
    4  -10    6     13.24      0.00
    5  -10    6     -1.93      0.00
    6  -10    6     -8.00      0.00
    7  -10    6      0.94      0.00
    8  -10    6     -3.22      0.00
    9  -10    6     -6.24      0.00
   10  -10    6      3.69      0.00
   11  -10    6      0.44      0.00
   12  -10    6     -2.45      0.00
  -18   -9    6      0.05      0.00
  -17   -9    6     -4.26      0.00
  -16   -9    6      0.16      0.00
  -15   -9    6      1.43      0.00
  -14   -9    6      0.75      0.00
  -13   -9    6      1.36      0.00
  -12   -9    6     -1.89      0.00
  -11   -9    6      2.37      0.00
  -10   -9    6      6.35      0.00
   -9   -9    6     -1.02      0.00
   -8   -9    6     -3.22      0.00
   -7   -9    6     -7.21      0.00
   -6   -9    6      7.28      0.00
   -5   -9    6     -6.22      0.00
   -4   -9    6      0.72      0.00
   -3   -9    6      1.91      0.00
   -2   -9    6     -9.40      0.00
   -1   -9    6      4.99      0.00
    0   -9    6     -2.78      0.00
    1   -9    6      6.54      0.00
    2   -9    6     -8.83      0.00
    3   -9    6     -2.59      0.00
    4   -9    6     17.20      0.00
    5   -9    6     -1.21      0.00
    6   -9    6     -5.44      0.00
    7   -9    6     -3.77      0.00
    8   -9    6     -3.16      0.00
    9   -9    6     -3.75      0.00
   10   -9    6      0.24      0.00
   11   -9    6      0.31      0.00
   12   -9    6     -1.97      0.00
   13   -9    6     -0.78      0.00
  -17   -8    6     -1.61      0.00
  -16   -8    6      1.57      0.00
  -15   -8    6     -2.69      0.00
  -14   -8    6      0.95      0.00
  -13   -8    6      0.44      0.00
  -12   -8    6      0.53      0.00
  -11   -8    6      2.32      0.00
  -10   -8    6      3.86      0.00
   -9   -8    6     -1.76      0.00
   -8   -8    6      2.80      0.00
   -7   -8    6      7.29      0.00
   -6   -8    6    -13.30      0.00
   -5   -8    6      3.21      0.00
   -4   -8    6     -4.30      0.00
   -3   -8    6      2.71      0.00
   -2   -8    6     -0.21      0.00
   -1   -8    6     -5.96      0.00
    0   -8    6     -6.77      0.00
    1   -8    6      1.40      0.00
    2   -8    6      6.27      0.00
    3   -8    6     -0.62      0.00
    4   -8    6      5.00      0.00
    5   -8    6      0.31      0.00
    6   -8    6     -2.30      0.00
    7   -8    6     -0.08      0.00
    8   -8    6     -0.87      0.00
    9   -8    6     -8.81      0.00
   10   -8    6      4.70      0.00
   11   -8    6     -0.78      0.00
   12   -8    6     -5.98      0.00
   13   -8    6      0.75      0.00
   14   -8    6     -0.37      0.00
  -17   -7    6     -1.05      0.00
  -16   -7    6      0.96      0.00
  -15   -7    6     -1.01      0.00
  -14   -7    6     -2.04      0.00
  -13   -7    6     -1.10      0.00
  -12   -7    6      1.89      0.00
  -11   -7    6      6.48      0.00
  -10   -7    6      2.05      0.00
   -9   -7    6     -4.68      0.00
   -8   -7    6      2.82      0.00
   -7   -7    6      6.54      0.00
   -6   -7    6      7.14      0.00
   -5   -7    6     -9.38      0.00
   -4   -7    6      9.17      0.00
   -3   -7    6    -12.33      0.00
   -2   -7    6     -1.83      0.00
   -1   -7    6      7.59      0.00
    0   -7    6    -20.73      0.00
    1   -7    6      1.97      0.00
    2   -7    6     10.60      0.00
    3   -7    6      3.32      0.00
    4   -7    6     -1.97      0.00
    5   -7    6      1.28      0.00
    6   -7    6     -4.86      0.00
    7   -7    6      1.77      0.00
    8   -7    6      7.47      0.00
    9   -7    6     -5.01      0.00
   10   -7    6      1.75      0.00
   11   -7    6     -2.00      0.00
   12   -7    6     -4.30      0.00
   13   -7    6     -2.23      0.00
   14   -7    6     -2.14      0.00
   15   -7    6     -0.16      0.00
  -17   -6    6      0.75      0.00
  -16   -6    6      0.42      0.00
  -15   -6    6     -1.85      0.00
  -14   -6    6     -0.75      0.00
  -13   -6    6     -1.15      0.00
  -12   -6    6     -0.98      0.00
  -11   -6    6      2.99      0.00
  -10   -6    6      5.79      0.00
   -9   -6    6     -0.81      0.00
   -8   -6    6      4.50      0.00
   -7   -6    6      4.28      0.00
   -6   -6    6     -0.91      0.00
   -5   -6    6     11.18      0.00
   -4   -6    6      0.68      0.00
   -3   -6    6      4.62      0.00
   -2   -6    6     -8.76      0.00
   -1   -6    6     -3.00      0.00
    0   -6    6    -17.41      0.00
    1   -6    6      5.53      0.00
    2   -6    6     13.21      0.00
    3   -6    6     -7.50      0.00
    4   -6    6     -0.38      0.00
    5   -6    6      1.23      0.00
    6   -6    6     -1.94      0.00
    7   -6    6     -0.02      0.00
    8   -6    6      6.97      0.00
    9   -6    6      6.51      0.00
   10   -6    6      2.47      0.00
   11   -6    6     -8.73      0.00
   12   -6    6     -0.57      0.00
   13   -6    6     -2.76      0.00
   14   -6    6     -2.34      0.00
   15   -6    6      1.89      0.00
  -17   -5    6      1.69      0.00
  -16   -5    6      0.86      0.00
  -15   -5    6     -0.06      0.00
  -14   -5    6     -3.04      0.00
  -13   -5    6      2.53      0.00
  -12   -5    6     -1.22      0.00
  -11   -5    6     -2.42      0.00
  -10   -5    6      2.71      0.00
   -9   -5    6      2.58      0.00
   -8   -5    6      6.57      0.00
   -7   -5    6      6.89      0.00
   -6   -5    6      1.46      0.00
   -5   -5    6     -1.23      0.00
   -4   -5    6     19.09      0.00
   -3   -5    6      0.79      0.00
   -2   -5    6      7.93      0.00
   -1   -5    6    -17.47      0.00
    0   -5    6    -15.09      0.00
    1   -5    6     12.10      0.00
    2   -5    6      0.90      0.00
    3   -5    6     -2.69      0.00
    4   -5    6     -7.90      0.00
    5   -5    6     -0.31      0.00
    6   -5    6     -0.72      0.00
    7   -5    6      2.77      0.00
    8   -5    6     11.93      0.00
    9   -5    6      1.82      0.00
   10   -5    6     -2.41      0.00
   11   -5    6      0.17      0.00
   12   -5    6     -1.05      0.00
   13   -5    6     -1.77      0.00
   14   -5    6     -0.68      0.00
   15   -5    6      0.38      0.00
   16   -5    6     -2.26      0.00
  -17   -4    6      0.57      0.00
  -16   -4    6      0.49      0.00
  -15   -4    6     -1.12      0.00
  -14   -4    6      0.01      0.00
  -13   -4    6      1.73      0.00
  -12   -4    6      0.42      0.00
  -11   -4    6     -0.27      0.00
  -10   -4    6     -0.86      0.00
   -9   -4    6     -1.34      0.00
   -8   -4    6      5.34      0.00
   -7   -4    6      4.22      0.00
   -6   -4    6      8.75      0.00
   -5   -4    6      4.73      0.00
   -4   -4    6      9.55      0.00
   -3   -4    6     11.88      0.00
   -2   -4    6    -10.98      0.00
   -1   -4    6      8.55      0.00
    0   -4    6     -1.27      0.00
    1   -4    6     -0.21      0.00
    2   -4    6    -16.06      0.00
    3   -4    6      3.86      0.00
    4   -4    6     -6.99      0.00
    5   -4    6     -8.89      0.00
    6   -4    6      3.51      0.00
    7   -4    6      0.41      0.00
    8   -4    6     10.61      0.00
    9   -4    6      1.07      0.00
   10   -4    6     -1.02      0.00
   11   -4    6     -4.49      0.00
   12   -4    6      2.69      0.00
   13   -4    6      3.24      0.00
   14   -4    6     -3.43      0.00
   15   -4    6     -2.86      0.00
   16   -4    6     -0.38      0.00
   17   -4    6      1.29      0.00
  -16   -3    6     -0.64      0.00
  -15   -3    6      1.25      0.00
  -14   -3    6     -2.13      0.00
  -13   -3    6      2.97      0.00
  -12   -3    6     -1.32      0.00
  -11   -3    6      2.20      0.00
  -10   -3    6     -0.77      0.00
   -9   -3    6     -2.68      0.00
   -8   -3    6      6.82      0.00
   -7   -3    6     -0.42      0.00
   -6   -3    6      1.49      0.00
   -5   -3    6     10.34      0.00
   -4   -3    6     22.19      0.00
   -3   -3    6     -7.50      0.00
   -2   -3    6     -8.21      0.00
   -1   -3    6     14.93      0.00
    0   -3    6     22.04      0.00
    1   -3    6     -6.73      0.00
    2   -3    6    -14.53      0.00
    3   -3    6     -5.95      0.00
    4   -3    6    -12.07      0.00
    5   -3    6     -7.92      0.00
    6   -3    6      0.89      0.00
    7   -3    6      4.70      0.00
    8   -3    6      2.83      0.00
    9   -3    6     -1.61      0.00
   10   -3    6      2.41      0.00
   11   -3    6     -4.05      0.00
   12   -3    6      0.17      0.00
   13   -3    6      1.79      0.00
   14   -3    6     -4.45      0.00
   15   -3    6      2.31      0.00
   16   -3    6     -1.48      0.00
   17   -3    6     -1.00      0.00
  -16   -2    6     -0.66      0.00
  -15   -2    6      1.37      0.00
  -14   -2    6      0.05      0.00
  -13   -2    6      0.23      0.00
  -12   -2    6      1.06      0.00
  -11   -2    6     -1.26      0.00
  -10   -2    6      0.31      0.00
   -9   -2    6     -0.26      0.00
   -8   -2    6      5.16      0.00
   -7   -2    6      0.86      0.00
   -6   -2    6     -0.70      0.00
   -5   -2    6      1.86      0.00
   -4   -2    6     16.84      0.00
   -3   -2    6     -0.80      0.00
   -2   -2    6     -2.90      0.00
   -1   -2    6     16.77      0.00
    0   -2    6     19.38      0.00
    1   -2    6      7.55      0.00
    2   -2    6    -21.91      0.00
    3   -2    6     19.27      0.00
    4   -2    6    -31.20      0.00
    5   -2    6    -18.52      0.00
    6   -2    6     11.26      0.00
    7   -2    6     -0.02      0.00
    8   -2    6     -0.46      0.00
    9   -2    6     -1.75      0.00
   10   -2    6     -1.01      0.00
   11   -2    6     -4.92      0.00
   12   -2    6      4.79      0.00
   13   -2    6      0.23      0.00
   14   -2    6     -5.13      0.00
   15   -2    6      2.72      0.00
   16   -2    6     -1.51      0.00
   17   -2    6     -2.84      0.00
   18   -2    6     -2.41      0.00
  -16   -1    6     -0.10      0.00
  -15   -1    6     -0.77      0.00
  -14   -1    6      0.96      0.00
  -13   -1    6      4.29      0.00
  -12   -1    6     -0.96      0.00
  -11   -1    6      0.55      0.00
  -10   -1    6     -1.83      0.00
   -9   -1    6      3.01      0.00
   -8   -1    6      4.75      0.00
   -7   -1    6     -7.18      0.00
   -6   -1    6      9.22      0.00
   -5   -1    6     -0.43      0.00
   -4   -1    6     -2.94      0.00
   -3   -1    6     -4.31      0.00
   -2   -1    6     15.12      0.00
   -1   -1    6     22.01      0.00
    0   -1    6     13.98      0.00
    1   -1    6      0.99      0.00
    2   -1    6     -4.49      0.00
    3   -1    6      6.58      0.00
    4   -1    6     -3.67      0.00
    5   -1    6    -17.92      0.00
    6   -1    6      0.62      0.00
    7   -1    6     -0.88      0.00
    8   -1    6     -9.61      0.00
    9   -1    6     -2.67      0.00
   10   -1    6      0.35      0.00
   11   -1    6     -1.60      0.00
   12   -1    6      2.29      0.00
   13   -1    6      2.47      0.00
   14   -1    6      0.22      0.00
   15   -1    6     -0.72      0.00
   16   -1    6     -6.68      0.00
   17   -1    6     -0.40      0.00
   18   -1    6     -0.09      0.00
  -15    0    6      0.48      0.00
  -14    0    6      0.39      0.00
  -13    0    6      2.24      0.00
  -12    0    6      1.36      0.00
  -11    0    6     -0.89      0.00
  -10    0    6      0.82      0.00
   -9    0    6      3.90      0.00
   -8    0    6      5.60      0.00
   -7    0    6     -7.97      0.00
   -6    0    6      5.32      0.00
   -5    0    6      0.97      0.00
   -4    0    6     -8.47      0.00
   -3    0    6     -3.99      0.00
   -2    0    6     15.11      0.00
   -1    0    6     11.03      0.00
    0    0    6     19.18      0.00
    1    0    6      5.49      0.00
    2    0    6     -6.16      0.00
    3    0    6     10.89      0.00
    4    0    6     -7.58      0.00
    5    0    6     16.96      0.00
    6    0    6     -8.20      0.00
    7    0    6     -9.93      0.00
    8    0    6    -10.07      0.00
    9    0    6    -10.10      0.00
   10    0    6      2.01      0.00
   11    0    6      0.75      0.00
   12    0    6      5.66      0.00
   13    0    6      0.38      0.00
   14    0    6     -2.11      0.00
   15    0    6      1.80      0.00
   16    0    6     -1.94      0.00
   17    0    6     -3.79      0.00
   18    0    6      0.07      0.00
   19    0    6      2.81      0.00
  -15    1    6      1.07      0.00
  -14    1    6     -0.11      0.00
  -13    1    6     -1.00      0.00
  -12    1    6     -0.23      0.00
  -11    1    6     -0.03      0.00
  -10    1    6      0.33      0.00
   -9    1    6      6.37      0.00
   -8    1    6     -0.75      0.00
   -7    1    6      0.48      0.00
   -6    1    6      7.33      0.00
   -5    1    6    -14.74      0.00
   -4    1    6     -3.30      0.00
   -3    1    6      3.49      0.00
   -2    1    6     19.55      0.00
   -1    1    6     -5.24      0.00
    0    1    6     -0.09      0.00
    1    1    6     21.91      0.00
    2    1    6    -11.29      0.00
    3    1    6     12.89      0.00
    4    1    6     17.79      0.00
    5    1    6     -8.13      0.00
    6    1    6      7.88      0.00
    7    1    6     -0.64      0.00
    8    1    6    -16.89      0.00
    9    1    6     -9.52      0.00
   10    1    6     -3.39      0.00
   11    1    6      4.04      0.00
   12    1    6      4.86      0.00
   13    1    6      0.80      0.00
   14    1    6     -3.30      0.00
   15    1    6      0.43      0.00
   16    1    6      0.32      0.00
   17    1    6     -0.77      0.00
   18    1    6     -0.16      0.00
   19    1    6      2.35      0.00
  -14    2    6     -1.02      0.00
  -13    2    6     -1.60      0.00
  -12    2    6     -0.70      0.00
  -11    2    6     -0.40      0.00
  -10    2    6      1.41      0.00
   -9    2    6     -0.17      0.00
   -8    2    6      0.67      0.00
   -7    2    6     -0.07      0.00
   -6    2    6      6.58      0.00
   -5    2    6    -12.14      0.00
   -4    2    6     -5.77      0.00
   -3    2    6      6.39      0.00
   -2    2    6      9.39      0.00
   -1    2    6      5.04      0.00
    0    2    6      3.86      0.00
    1    2    6    -15.88      0.00
    2    2    6      1.95      0.00
    3    2    6     26.94      0.00
    4    2    6     10.81      0.00
    5    2    6      2.86      0.00
    6    2    6     -6.19      0.00
    7    2    6      9.92      0.00
    8    2    6    -12.65      0.00
    9    2    6    -11.02      0.00
   10    2    6      2.08      0.00
   11    2    6     -0.08      0.00
   12    2    6      3.01      0.00
   13    2    6     -2.50      0.00
   14    2    6      2.27      0.00
   15    2    6     -0.19      0.00
   16    2    6     -3.32      0.00
   17    2    6     -0.75      0.00
   18    2    6      3.13      0.00
   19    2    6      1.05      0.00
  -14    3    6     -0.10      0.00
  -13    3    6     -2.42      0.00
  -12    3    6      0.17      0.00
  -11    3    6      0.05      0.00
  -10    3    6     -0.96      0.00
   -9    3    6     -0.82      0.00
   -8    3    6      0.21      0.00
   -7    3    6      1.84      0.00
   -6    3    6     -8.11      0.00
   -5    3    6     -0.65      0.00
   -4    3    6      5.60      0.00
   -3    3    6     -6.21      0.00
   -2    3    6      6.20      0.00
   -1    3    6     -0.95      0.00
    0    3    6      2.07      0.00
    1    3    6    -10.68      0.00
    2    3    6      1.14      0.00
    3    3    6     24.14      0.00
    4    3    6      2.13      0.00
    5    3    6     11.04      0.00
    6    3    6      6.70      0.00
    7    3    6     -7.22      0.00
    8    3    6     -7.73      0.00
    9    3    6     -0.79      0.00
   10    3    6      3.94      0.00
   11    3    6     -0.24      0.00
   12    3    6     -5.27      0.00
   13    3    6     -1.24      0.00
   14    3    6      2.22      0.00
   15    3    6     -0.66      0.00
   16    3    6      0.60      0.00
   17    3    6     -0.86      0.00
   18    3    6     -0.17      0.00
   19    3    6     -0.62      0.00
   20    3    6      2.17      0.00
  -13    4    6      1.04      0.00
  -12    4    6     -0.08      0.00
  -11    4    6     -2.05      0.00
  -10    4    6     -0.53      0.00
   -9    4    6     -1.32      0.00
   -8    4    6      0.89      0.00
   -7    4    6     -2.54      0.00
   -6    4    6     -3.18      0.00
   -5    4    6     -2.49      0.00
   -4    4    6      9.78      0.00
   -3    4    6     -2.61      0.00
   -2    4    6     -2.06      0.00
   -1    4    6      3.13      0.00
    0    4    6    -24.14      0.00
    1    4    6      0.31      0.00
    2    4    6     23.47      0.00
    3    4    6     -0.37      0.00
    4    4    6     -2.13      0.00
    5    4    6     14.99      0.00
    6    4    6      6.25      0.00
    7    4    6      3.91      0.00
    8    4    6     -9.30      0.00
    9    4    6      5.43      0.00
   10    4    6      3.36      0.00
   11    4    6     -5.65      0.00
   12    4    6     -1.87      0.00
   13    4    6     -2.20      0.00
   14    4    6     -0.72      0.00
   15    4    6     -3.20      0.00
   16    4    6      4.76      0.00
   17    4    6      0.18      0.00
   18    4    6     -0.31      0.00
   19    4    6     -2.75      0.00
   20    4    6     -1.06      0.00
  -13    5    6      1.19      0.00
  -12    5    6      2.53      0.00
  -11    5    6     -1.09      0.00
  -10    5    6     -1.84      0.00
   -9    5    6     -2.23      0.00
   -8    5    6     -1.56      0.00
   -7    5    6     -1.95      0.00
   -6    5    6     -1.02      0.00
   -5    5    6      7.36      0.00
   -4    5    6      0.35      0.00
   -3    5    6     -3.03      0.00
   -2    5    6      4.36      0.00
   -1    5    6     -2.43      0.00
    0    5    6    -14.84      0.00
    1    5    6     -7.04      0.00
    2    5    6     16.10      0.00
    3    5    6     -2.59      0.00
    4    5    6     -5.60      0.00
    5    5    6     16.03      0.00
    6    5    6     -0.95      0.00
    7    5    6      1.62      0.00
    8    5    6     14.20      0.00
    9    5    6      1.75      0.00
   10    5    6     -1.82      0.00
   11    5    6     -2.72      0.00
   12    5    6     -3.21      0.00
   13    5    6     -0.10      0.00
   14    5    6     -0.20      0.00
   15    5    6     -4.55      0.00
   16    5    6      1.07      0.00
   17    5    6      0.01      0.00
   18    5    6      1.24      0.00
   19    5    6     -2.66      0.00
   20    5    6     -1.52      0.00
  -12    6    6     -0.34      0.00
  -11    6    6      4.21      0.00
  -10    6    6     -1.90      0.00
   -9    6    6     -2.82      0.00
   -8    6    6     -2.57      0.00
   -7    6    6     -3.36      0.00
   -6    6    6      3.94      0.00
   -5    6    6      2.85      0.00
   -4    6    6      5.23      0.00
   -3    6    6     -2.97      0.00
   -2    6    6      0.38      0.00
   -1    6    6      0.11      0.00
    0    6    6    -12.87      0.00
    1    6    6     11.24      0.00
    2    6    6      1.38      0.00
    3    6    6    -13.75      0.00
    4    6    6     -1.99      0.00
    5    6    6     15.23      0.00
    6    6    6     -9.84      0.00
    7    6    6      1.92      0.00
    8    6    6     13.35      0.00
    9    6    6      5.42      0.00
   10    6    6      1.29      0.00
   11    6    6     -0.12      0.00
   12    6    6     -0.93      0.00
   13    6    6     -4.90      0.00
   14    6    6      1.70      0.00
   15    6    6     -1.73      0.00
   16    6    6     -1.44      0.00
   17    6    6     -1.14      0.00
   18    6    6     -0.08      0.00
   19    6    6     -2.43      0.00
   20    6    6      0.50      0.00
   21    6    6     -2.26      0.00
  -11    7    6     -1.68      0.00
  -10    7    6      2.55      0.00
   -9    7    6      0.82      0.00
   -8    7    6     -5.36      0.00
   -7    7    6     -1.14      0.00
   -6    7    6      1.76      0.00
   -5    7    6      0.96      0.00
   -4    7    6      6.28      0.00
   -3    7    6      4.82      0.00
   -2    7    6    -10.00      0.00
   -1    7    6     -2.30      0.00
    0    7    6      2.82      0.00
    1    7    6      3.61      0.00
    2    7    6     10.65      0.00
    3    7    6    -12.19      0.00
    4    7    6     -7.09      0.00
    5    7    6      3.39      0.00
    6    7    6     -6.84      0.00
    7    7    6      4.71      0.00
    8    7    6      8.91      0.00
    9    7    6      0.15      0.00
   10    7    6      3.25      0.00
   11    7    6      0.80      0.00
   12    7    6      3.78      0.00
   13    7    6     -3.60      0.00
   14    7    6     -3.19      0.00
   15    7    6     -2.00      0.00
   16    7    6      3.04      0.00
   17    7    6     -1.50      0.00
   18    7    6     -1.35      0.00
   19    7    6     -0.16      0.00
   20    7    6     -2.56      0.00
   21    7    6     -0.27      0.00
  -11    8    6     -1.16      0.00
  -10    8    6     -1.06      0.00
   -9    8    6      2.37      0.00
   -8    8    6     -2.34      0.00
   -7    8    6     -2.31      0.00
   -6    8    6      2.11      0.00
   -5    8    6     -0.96      0.00
   -4    8    6      8.91      0.00
   -3    8    6     -1.82      0.00
   -2    8    6    -10.57      0.00
   -1    8    6      5.82      0.00
    0    8    6      5.91      0.00
    1    8    6      0.66      0.00
    2    8    6      1.28      0.00
    3    8    6      2.71      0.00
    4    8    6     -6.65      0.00
    5    8    6     -6.42      0.00
    6    8    6     -4.85      0.00
    7    8    6      8.34      0.00
    8    8    6      2.70      0.00
    9    8    6      2.55      0.00
   10    8    6      0.58      0.00
   11    8    6     -0.13      0.00
   12    8    6      2.22      0.00
   13    8    6     -1.88      0.00
   14    8    6     -0.23      0.00
   15    8    6     -2.80      0.00
   16    8    6      0.11      0.00
   17    8    6      0.04      0.00
   18    8    6      0.03      0.00
   19    8    6      0.08      0.00
   20    8    6     -2.06      0.00
   21    8    6     -0.14      0.00
  -10    9    6     -0.01      0.00
   -9    9    6     -0.23      0.00
   -8    9    6     -2.37      0.00
   -7    9    6     -0.67      0.00
   -6    9    6      1.37      0.00
   -5    9    6      1.37      0.00
   -4    9    6     -0.47      0.00
   -3    9    6     -3.12      0.00
   -2    9    6     -2.70      0.00
   -1    9    6     10.92      0.00
    0    9    6      1.32      0.00
    1    9    6     -6.81      0.00
    2    9    6      8.81      0.00
    3    9    6     -1.80      0.00
    4    9    6     -4.90      0.00
    5    9    6     -3.49      0.00
    6    9    6      0.11      0.00
    7    9    6     -0.01      0.00
    8    9    6      1.63      0.00
    9    9    6      0.32      0.00
   10    9    6      3.09      0.00
   11    9    6      1.99      0.00
   12    9    6      0.81      0.00
   13    9    6     -4.09      0.00
   14    9    6      2.08      0.00
   15    9    6     -1.10      0.00
   16    9    6      1.34      0.00
   17    9    6     -2.89      0.00
   18    9    6     -1.87      0.00
   19    9    6     -0.69      0.00
   20    9    6      0.65      0.00
   21    9    6      1.42      0.00
   -9   10    6      1.47      0.00
   -8   10    6     -2.78      0.00
   -7   10    6     -2.09      0.00
   -6   10    6      3.66      0.00
   -5   10    6     -4.16      0.00
   -4   10    6     -4.22      0.00
   -3   10    6     -1.33      0.00
   -2   10    6      5.36      0.00
   -1   10    6      5.11      0.00
    0   10    6     -2.05      0.00
    1   10    6     -3.72      0.00
    2   10    6      1.68      0.00
    3   10    6      7.03      0.00
    4   10    6     -6.18      0.00
    5   10    6     -5.95      0.00
    6   10    6      4.23      0.00
    7   10    6     -0.44      0.00
    8   10    6     -5.41      0.00
    9   10    6      3.40      0.00
   10   10    6     -0.72      0.00
   11   10    6     -0.36      0.00
   12   10    6      4.10      0.00
   13   10    6      1.58      0.00
   14   10    6     -2.04      0.00
   15   10    6     -0.57      0.00
   16   10    6      1.35      0.00
   17   10    6      0.93      0.00
   18   10    6     -3.86      0.00
   19   10    6     -3.27      0.00
   20   10    6     -0.64      0.00
   21   10    6      1.74      0.00
   -8   11    6     -1.92      0.00
   -7   11    6     -0.42      0.00
   -6   11    6     -0.69      0.00
   -5   11    6     -3.06      0.00
   -4   11    6     -6.38      0.00
   -3   11    6      1.69      0.00
   -2   11    6      1.70      0.00
   -1   11    6      1.60      0.00
    0   11    6      0.38      0.00
    1   11    6     -1.74      0.00
    2   11    6      0.09      0.00
    3   11    6     -0.83      0.00
    4   11    6      2.19      0.00
    5   11    6     -0.96      0.00
    6   11    6     -1.21      0.00
    7   11    6     -3.39      0.00
    8   11    6     -0.97      0.00
    9   11    6     -0.73      0.00
   10   11    6     -0.72      0.00
   11   11    6     -1.18      0.00
   12   11    6      1.23      0.00
   13   11    6      2.38      0.00
   14   11    6      1.17      0.00
   15   11    6     -2.35      0.00
   16   11    6      2.86      0.00
   17   11    6     -3.53      0.00
   18   11    6      1.27      0.00
   19   11    6      0.19      0.00
   20   11    6     -4.31      0.00
   21   11    6     -1.17      0.00
   -7   12    6     -1.98      0.00
   -6   12    6     -0.34      0.00
   -5   12    6     -3.98      0.00
   -4   12    6     -2.33      0.00
   -3   12    6     -1.10      0.00
   -2   12    6      1.59      0.00
   -1   12    6     -4.09      0.00
    0   12    6      2.63      0.00
    1   12    6      0.44      0.00
    2   12    6     -2.83      0.00
    3   12    6     -0.29      0.00
    4   12    6     -0.08      0.00
    5   12    6      4.54      0.00
    6   12    6      0.34      0.00
    7   12    6     -4.40      0.00
    8   12    6     -6.16      0.00
    9   12    6     -0.61      0.00
   10   12    6      3.42      0.00
   11   12    6     -1.13      0.00
   12   12    6     -0.66      0.00
   13   12    6     -0.25      0.00
   14   12    6     -0.31      0.00
   15   12    6      0.58      0.00
   16   12    6      0.07      0.00
   17   12    6     -1.02      0.00
   18   12    6     -2.40      0.00
   19   12    6      2.74      0.00
   20   12    6     -0.22      0.00
   21   12    6     -2.49      0.00
   -6   13    6     -2.81      0.00
   -5   13    6     -3.16      0.00
   -4   13    6     -2.74      0.00
   -3   13    6      2.86      0.00
   -2   13    6     -2.25      0.00
   -1   13    6     -4.14      0.00
    0   13    6      0.25      0.00
    1   13    6      2.04      0.00
    2   13    6     -3.41      0.00
    3   13    6      0.14      0.00
    4   13    6      3.25      0.00
    5   13    6     -1.78      0.00
    6   13    6      3.24      0.00
    7   13    6      1.78      0.00
    8   13    6     -9.66      0.00
    9   13    6     -0.26      0.00
   10   13    6      3.15      0.00
   11   13    6     -3.65      0.00
   12   13    6      0.28      0.00
   13   13    6      0.66      0.00
   14   13    6     -0.69      0.00
   15   13    6     -0.71      0.00
   16   13    6     -0.42      0.00
   17   13    6     -1.58      0.00
   18   13    6      0.60      0.00
   19   13    6     -0.54      0.00
   20   13    6      0.01      0.00
   21   13    6      0.47      0.00
   -5   14    6     -2.57      0.00
   -4   14    6     -1.75      0.00
   -3   14    6     -0.15      0.00
   -2   14    6      0.98      0.00
   -1   14    6     -7.87      0.00
    0   14    6      2.57      0.00
    1   14    6     -1.09      0.00
    2   14    6      0.77      0.00
    3   14    6      1.22      0.00
    4   14    6     -2.17      0.00
    5   14    6      0.35      0.00
    6   14    6      3.91      0.00
    7   14    6      0.48      0.00
    8   14    6     -3.18      0.00
    9   14    6      2.27      0.00
   10   14    6     -2.02      0.00
   11   14    6     -6.21      0.00
   12   14    6      0.78      0.00
   13   14    6     -1.14      0.00
   14   14    6      2.14      0.00
   15   14    6     -0.29      0.00
   16   14    6     -1.29      0.00
   17   14    6     -1.18      0.00
   18   14    6     -0.56      0.00
   19   14    6      2.27      0.00
   20   14    6     -0.85      0.00
   21   14    6     -0.39      0.00
   -4   15    6     -0.35      0.00
   -3   15    6     -0.77      0.00
   -2   15    6     -3.96      0.00
   -1   15    6      0.44      0.00
    0   15    6     -2.83      0.00
    1   15    6     -1.94      0.00
    2   15    6      2.33      0.00
    3   15    6     -0.34      0.00
    4   15    6     -0.32      0.00
    5   15    6      1.95      0.00
    6   15    6      2.36      0.00
    7   15    6      0.56      0.00
    8   15    6     -0.87      0.00
    9   15    6      0.70      0.00
   10   15    6     -0.38      0.00
   11   15    6     -3.65      0.00
   12   15    6     -2.11      0.00
   13   15    6     -1.56      0.00
   14   15    6     -0.45      0.00
   15   15    6      0.99      0.00
   16   15    6     -0.80      0.00
   17   15    6     -0.82      0.00
   18   15    6      1.44      0.00
   19   15    6      1.30      0.00
   20   15    6     -0.32      0.00
   -3   16    6     -0.14      0.00
   -2   16    6     -3.79      0.00
   -1   16    6     -2.63      0.00
    0   16    6      2.13      0.00
    1   16    6     -4.08      0.00
    2   16    6      2.42      0.00
    3   16    6     -6.37      0.00
    4   16    6      2.66      0.00
    5   16    6      7.35      0.00
    6   16    6     -0.90      0.00
    7   16    6     -0.59      0.00
    8   16    6      1.45      0.00
    9   16    6      2.03      0.00
   10   16    6     -3.20      0.00
   11   16    6     -1.62      0.00
   12   16    6      1.87      0.00
   13   16    6     -3.98      0.00
   14   16    6      0.62      0.00
   15   16    6     -1.59      0.00
   16   16    6     -2.43      0.00
   17   16    6      2.96      0.00
   18   16    6      2.12      0.00
   19   16    6      0.10      0.00
   20   16    6     -1.45      0.00
   -2   17    6      0.09      0.00
   -1   17    6      0.10      0.00
    0   17    6     -5.40      0.00
    1   17    6      1.69      0.00
    2   17    6      1.15      0.00
    3   17    6     -6.81      0.00
    4   17    6      0.87      0.00
    5   17    6      3.59      0.00
    6   17    6      2.05      0.00
    7   17    6      0.83      0.00
    8   17    6      0.80      0.00
    9   17    6      1.68      0.00
   10   17    6      0.20      0.00
   11   17    6     -2.54      0.00
   12   17    6      1.87      0.00
   13   17    6     -1.95      0.00
   14   17    6      0.64      0.00
   15   17    6     -1.02      0.00
   16   17    6     -2.57      0.00
   17   17    6      5.77      0.00
   18   17    6     -0.35      0.00
   19   17    6     -2.25      0.00
   20   17    6      0.21      0.00
    0   18    6     -1.69      0.00
    1   18    6     -5.13      0.00
    2   18    6      1.37      0.00
    3   18    6     -4.09      0.00
    4   18    6      3.06      0.00
    5   18    6     -1.74      0.00
    6   18    6     -1.81      0.00
    7   18    6      5.19      0.00
    8   18    6      1.94      0.00
    9   18    6     -3.14      0.00
   10   18    6     -0.79      0.00
   11   18    6      4.75      0.00
   12   18    6      0.23      0.00
   13   18    6     -2.29      0.00
   14   18    6      1.32      0.00
   15   18    6     -0.79      0.00
   16   18    6      1.86      0.00
   17   18    6      2.04      0.00
   18   18    6     -0.48      0.00
   19   18    6     -0.89      0.00
    2   19    6     -3.37      0.00
    3   19    6     -5.85      0.00
    4   19    6      6.02      0.00
    5   19    6      0.35      0.00
    6   19    6     -5.29      0.00
    7   19    6      1.04      0.00
    8   19    6      1.10      0.00
    9   19    6      0.51      0.00
   10   19    6     -0.38      0.00
   11   19    6     -1.62      0.00
   12   19    6      3.55      0.00
   13   19    6     -1.14      0.00
   14   19    6      0.03      0.00
   15   19    6      1.29      0.00
   16   19    6      2.31      0.00
   17   19    6      0.08      0.00
   18   19    6     -1.53      0.00
    3   20    6     -5.57      0.00
    4   20    6      2.66      0.00
    5   20    6      1.80      0.00
    6   20    6     -1.94      0.00
    7   20    6     -3.24      0.00
    8   20    6     -2.90      0.00
    9   20    6      3.45      0.00
   10   20    6      0.45      0.00
   11   20    6     -1.00      0.00
   12   20    6     -0.25      0.00
   13   20    6     -1.32      0.00
   14   20    6     -0.48      0.00
   15   20    6      0.70      0.00
   16   20    6      1.91      0.00
   17   20    6      0.65      0.00
    6   21    6      1.43      0.00
    7   21    6     -0.55      0.00
    8   21    6     -3.02      0.00
    9   21    6      1.17      0.00
   10   21    6     -2.23      0.00
   11   21    6     -1.01      0.00
   12   21    6      3.94      0.00
   13   21    6     -2.07      0.00
   14   21    6     -2.34      0.00
   15   21    6     -0.87      0.00
   16   21    6      2.05      0.00
   10   22    6     -3.29      0.00
   11   22    6     -1.65      0.00
   12   22    6      1.53      0.00
   13   22    6     -0.73      0.00
  -11  -21    7      1.22      0.00
  -10  -21    7      1.08      0.00
   -9  -21    7      2.69      0.00
   -8  -21    7     -3.17      0.00
   -7  -21    7      2.55      0.00
   -6  -21    7     -2.03      0.00
   -5  -21    7     -4.84      0.00
   -4  -21    7      3.14      0.00
   -3  -21    7     -1.40      0.00
  -13  -20    7     -0.13      0.00
  -12  -20    7      0.58      0.00
  -11  -20    7      3.88      0.00
  -10  -20    7     -4.27      0.00
   -9  -20    7      2.95      0.00
   -8  -20    7     -0.78      0.00
   -7  -20    7      6.81      0.00
   -6  -20    7     -5.50      0.00
   -5  -20    7     -2.32      0.00
   -4  -20    7      2.36      0.00
   -3  -20    7     -2.43      0.00
   -2  -20    7     -2.67      0.00
   -1  -20    7     -0.47      0.00
    0  -20    7      0.58      0.00
  -14  -19    7      4.54      0.00
  -13  -19    7     -1.29      0.00
  -12  -19    7     -0.53      0.00
  -11  -19    7      2.58      0.00
  -10  -19    7     -3.48      0.00
   -9  -19    7      0.67      0.00
   -8  -19    7      1.53      0.00
   -7  -19    7      4.04      0.00
   -6  -19    7     -2.30      0.00
   -5  -19    7      0.02      0.00
   -4  -19    7     -0.59      0.00
   -3  -19    7     -4.19      0.00
   -2  -19    7      1.42      0.00
   -1  -19    7     -1.55      0.00
    0  -19    7     -2.49      0.00
    1  -19    7      1.14      0.00
    2  -19    7     -0.23      0.00
  -15  -18    7      1.23      0.00
  -14  -18    7      0.79      0.00
  -13  -18    7     -0.91      0.00
  -12  -18    7      1.81      0.00
  -11  -18    7      0.89      0.00
  -10  -18    7     -3.75      0.00
   -9  -18    7      5.96      0.00
   -8  -18    7     -2.66      0.00
   -7  -18    7      2.23      0.00
   -6  -18    7     -1.00      0.00
   -5  -18    7      1.45      0.00
   -4  -18    7     -1.64      0.00
   -3  -18    7     -3.33      0.00
   -2  -18    7     -1.34      0.00
   -1  -18    7     -0.87      0.00
    0  -18    7      0.68      0.00
    1  -18    7     -2.02      0.00
    2  -18    7      2.86      0.00
    3  -18    7     -0.95      0.00
  -16  -17    7      0.04      0.00
  -15  -17    7      2.25      0.00
  -14  -17    7      0.01      0.00
  -13  -17    7     -3.54      0.00
  -12  -17    7      3.43      0.00
  -11  -17    7     -0.92      0.00
  -10  -17    7      0.99      0.00
   -9  -17    7      3.85      0.00
   -8  -17    7     -0.33      0.00
   -7  -17    7     -0.66      0.00
   -6  -17    7     -0.31      0.00
   -5  -17    7     -2.33      0.00
   -4  -17    7      1.53      0.00
   -3  -17    7      1.36      0.00
   -2  -17    7     -4.26      0.00
   -1  -17    7     -3.08      0.00
    0  -17    7     -0.81      0.00
    1  -17    7      1.34      0.00
    2  -17    7     -1.07      0.00
    3  -17    7      1.94      0.00
    4  -17    7      0.66      0.00
    5  -17    7     -0.84      0.00
  -16  -16    7      0.85      0.00
  -15  -16    7     -1.45      0.00
  -14  -16    7      0.17      0.00
  -13  -16    7     -0.44      0.00
  -12  -16    7      1.04      0.00
  -11  -16    7     -0.27      0.00
  -10  -16    7      1.60      0.00
   -9  -16    7      2.73      0.00
   -8  -16    7     -2.30      0.00
   -7  -16    7      1.04      0.00
   -6  -16    7     -3.78      0.00
   -5  -16    7     -0.07      0.00
   -4  -16    7      3.22      0.00
   -3  -16    7     -1.94      0.00
   -2  -16    7      2.07      0.00
   -1  -16    7     -1.50      0.00
    0  -16    7     -6.50      0.00
    1  -16    7     -1.85      0.00
    2  -16    7      3.53      0.00
    3  -16    7     -1.80      0.00
    4  -16    7      1.65      0.00
    5  -16    7      2.06      0.00
    6  -16    7      0.87      0.00
  -17  -15    7     -0.40      0.00
  -16  -15    7     -0.25      0.00
  -15  -15    7     -1.52      0.00
  -14  -15    7     -0.87      0.00
  -13  -15    7     -0.57      0.00
  -12  -15    7      1.47      0.00
  -11  -15    7      0.38      0.00
  -10  -15    7      3.02      0.00
   -9  -15    7     -1.14      0.00
   -8  -15    7     -1.62      0.00
   -7  -15    7     -4.14      0.00
   -6  -15    7      0.88      0.00
   -5  -15    7      0.23      0.00
   -4  -15    7      2.12      0.00
   -3  -15    7     -2.12      0.00
   -2  -15    7     -1.52      0.00
   -1  -15    7      1.73      0.00
    0  -15    7     -2.83      0.00
    1  -15    7      0.25      0.00
    2  -15    7     -0.97      0.00
    3  -15    7     -1.11      0.00
    4  -15    7     -1.97      0.00
    5  -15    7      5.21      0.00
    6  -15    7      0.35      0.00
    7  -15    7     -1.17      0.00
  -17  -14    7     -2.21      0.00
  -16  -14    7     -0.90      0.00
  -15  -14    7     -2.23      0.00
  -14  -14    7      0.89      0.00
  -13  -14    7     -2.49      0.00
  -12  -14    7     -0.88      0.00
  -11  -14    7     -0.38      0.00
  -10  -14    7      3.22      0.00
   -9  -14    7      1.15      0.00
   -8  -14    7     -3.82      0.00
   -7  -14    7     -0.82      0.00
   -6  -14    7     -2.56      0.00
   -5  -14    7      0.29      0.00
   -4  -14    7      3.04      0.00
   -3  -14    7     -4.31      0.00
   -2  -14    7     -0.63      0.00
   -1  -14    7     -1.34      0.00
    0  -14    7     -1.10      0.00
    1  -14    7      2.44      0.00
    2  -14    7     -0.04      0.00
    3  -14    7     -2.12      0.00
    4  -14    7      1.14      0.00
    5  -14    7      3.39      0.00
    6  -14    7      1.59      0.00
    7  -14    7     -6.85      0.00
    8  -14    7     -0.69      0.00
    9  -14    7      2.05      0.00
  -17  -13    7     -1.59      0.00
  -16  -13    7      0.32      0.00
  -15  -13    7     -1.07      0.00
  -14  -13    7     -1.69      0.00
  -13  -13    7     -2.18      0.00
  -12  -13    7     -2.82      0.00
  -11  -13    7     -3.73      0.00
  -10  -13    7      2.38      0.00
   -9  -13    7     -0.63      0.00
   -8  -13    7      0.06      0.00
   -7  -13    7      1.97      0.00
   -6  -13    7     -1.59      0.00
   -5  -13    7     -4.05      0.00
   -4  -13    7      1.60      0.00
   -3  -13    7     -1.11      0.00
   -2  -13    7     -1.13      0.00
   -1  -13    7      2.29      0.00
    0  -13    7     -6.97      0.00
    1  -13    7     -0.19      0.00
    2  -13    7     -1.57      0.00
    3  -13    7      3.56      0.00
    4  -13    7      4.15      0.00
    5  -13    7      4.69      0.00
    6  -13    7     -4.61      0.00
    7  -13    7     -1.85      0.00
    8  -13    7     -1.82      0.00
    9  -13    7      0.88      0.00
   10  -13    7      0.33      0.00
  -17  -12    7     -0.65      0.00
  -16  -12    7      2.79      0.00
  -15  -12    7      0.46      0.00
  -14  -12    7      0.23      0.00
  -13  -12    7     -6.44      0.00
  -12  -12    7     -1.21      0.00
  -11  -12    7     -4.56      0.00
  -10  -12    7      1.78      0.00
   -9  -12    7     -3.32      0.00
   -8  -12    7     -4.46      0.00
   -7  -12    7      5.18      0.00
   -6  -12    7      1.14      0.00
   -5  -12    7      0.02      0.00
   -4  -12    7     -2.08      0.00
   -3  -12    7     -4.49      0.00
   -2  -12    7      2.99      0.00
   -1  -12    7     -1.04      0.00
    0  -12    7     -2.46      0.00
    1  -12    7     -1.29      0.00
    2  -12    7     -2.32      0.00
    3  -12    7      1.17      0.00
    4  -12    7      3.04      0.00
    5  -12    7      3.04      0.00
    6  -12    7     -0.60      0.00
    7  -12    7      0.73      0.00
    8  -12    7      2.34      0.00
    9  -12    7     -5.02      0.00
   10  -12    7      2.51      0.00
   11  -12    7      2.65      0.00
  -17  -11    7     -0.41      0.00
  -16  -11    7      0.67      0.00
  -15  -11    7     -0.22      0.00
  -14  -11    7      1.89      0.00
  -13  -11    7     -3.10      0.00
  -12  -11    7     -3.05      0.00
  -11  -11    7     -3.19      0.00
  -10  -11    7      0.01      0.00
   -9  -11    7     -2.12      0.00
   -8  -11    7     -3.03      0.00
   -7  -11    7     -0.43      0.00
   -6  -11    7      2.17      0.00
   -5  -11    7     -2.64      0.00
   -4  -11    7      2.69      0.00
   -3  -11    7     -0.29      0.00
   -2  -11    7     -3.89      0.00
   -1  -11    7     -2.36      0.00
    0  -11    7     -2.73      0.00
    1  -11    7      7.98      0.00
    2  -11    7     -5.52      0.00
    3  -11    7      2.53      0.00
    4  -11    7     -1.90      0.00
    5  -11    7     -1.98      0.00
    6  -11    7      3.65      0.00
    7  -11    7      5.17      0.00
    8  -11    7     -2.51      0.00
    9  -11    7      2.55      0.00
   10  -11    7      1.41      0.00
   11  -11    7      0.11      0.00
   12  -11    7      0.45      0.00
  -17  -10    7      3.06      0.00
  -16  -10    7     -0.12      0.00
  -15  -10    7     -1.77      0.00
  -14  -10    7      0.51      0.00
  -13  -10    7     -1.83      0.00
  -12  -10    7      1.49      0.00
  -11  -10    7     -5.14      0.00
  -10  -10    7     -1.80      0.00
   -9  -10    7     -6.13      0.00
   -8  -10    7      5.60      0.00
   -7  -10    7      3.86      0.00
   -6  -10    7     -7.22      0.00
   -5  -10    7     -4.52      0.00
   -4  -10    7      2.48      0.00
   -3  -10    7      3.07      0.00
   -2  -10    7      1.30      0.00
   -1  -10    7     -7.01      0.00
    0  -10    7     -2.67      0.00
    1  -10    7      0.89      0.00
    2  -10    7      0.45      0.00
    3  -10    7      9.10      0.00
    4  -10    7     -3.58      0.00
    5  -10    7     -8.97      0.00
    6  -10    7      6.28      0.00
    7  -10    7      4.07      0.00
    8  -10    7     -2.28      0.00
    9  -10    7      3.57      0.00
   10  -10    7      6.42      0.00
   11  -10    7     -3.60      0.00
   12  -10    7     -1.54      0.00
  -17   -9    7      1.33      0.00
  -16   -9    7      1.26      0.00
  -15   -9    7      0.06      0.00
  -14   -9    7     -0.17      0.00
  -13   -9    7     -2.71      0.00
  -12   -9    7      1.51      0.00
  -11   -9    7     -0.50      0.00
  -10   -9    7     -4.57      0.00
   -9   -9    7     -5.15      0.00
   -8   -9    7     -1.19      0.00
   -7   -9    7      2.93      0.00
   -6   -9    7      0.31      0.00
   -5   -9    7     -6.57      0.00
   -4   -9    7      7.94      0.00
   -3   -9    7     -6.54      0.00
   -2   -9    7      1.09      0.00
   -1   -9    7     -0.50      0.00
    0   -9    7     -1.48      0.00
    1   -9    7     -1.91      0.00
    2   -9    7     -6.31      0.00
    3   -9    7     17.91      0.00
    4   -9    7     -7.78      0.00
    5   -9    7     -6.47      0.00
    6   -9    7      2.04      0.00
    7   -9    7      3.27      0.00
    8   -9    7      1.98      0.00
    9   -9    7      4.08      0.00
   10   -9    7      2.47      0.00
   11   -9    7     -3.43      0.00
   12   -9    7      1.25      0.00
   13   -9    7      1.84      0.00
  -17   -8    7      1.66      0.00
  -16   -8    7     -1.36      0.00
  -15   -8    7      0.09      0.00
  -14   -8    7      1.51      0.00
  -13   -8    7     -0.32      0.00
  -12   -8    7     -0.39      0.00
  -11   -8    7     -1.30      0.00
  -10   -8    7     -3.82      0.00
   -9   -8    7     -1.74      0.00
   -8   -8    7      1.40      0.00
   -7   -8    7    -12.60      0.00
   -6   -8    7     -1.01      0.00
   -5   -8    7      4.73      0.00
   -4   -8    7      0.48      0.00
   -3   -8    7     -1.78      0.00
   -2   -8    7     -1.11      0.00
   -1   -8    7     -4.66      0.00
    0   -8    7      5.73      0.00
    1   -8    7      2.79      0.00
    3   -8    7      0.02      0.00
    4   -8    7     -3.99      0.00
    5   -8    7     -0.63      0.00
    6   -8    7      3.12      0.00
    7   -8    7     -0.79      0.00
    8   -8    7     -2.01      0.00
    9   -8    7      8.00      0.00
   10   -8    7      2.84      0.00
   11   -8    7     -8.59      0.00
   12   -8    7      5.04      0.00
   13   -8    7      2.59      0.00
   14   -8    7     -2.50      0.00
  -17   -7    7      2.39      0.00
  -16   -7    7     -0.95      0.00
  -15   -7    7     -0.26      0.00
  -14   -7    7      0.64      0.00
  -13   -7    7      2.11      0.00
  -12   -7    7      2.44      0.00
  -11   -7    7     -4.80      0.00
  -10   -7    7     -5.97      0.00
   -9   -7    7      0.09      0.00
   -8   -7    7      3.31      0.00
   -7   -7    7     -6.72      0.00
   -6   -7    7     -9.94      0.00
   -5   -7    7     -2.68      0.00
   -4   -7    7     -0.15      0.00
   -3   -7    7     -8.76      0.00
   -2   -7    7     13.22      0.00
   -1   -7    7     -8.28      0.00
    0   -7    7      4.27      0.00
    1   -7    7     11.37      0.00
    2   -7    7     -8.26      0.00
    3   -7    7     -4.33      0.00
    4   -7    7     -7.53      0.00
    5   -7    7      5.62      0.00
    6   -7    7     -2.24      0.00
    7   -7    7      6.15      0.00
    8   -7    7     -5.07      0.00
    9   -7    7     -1.80      0.00
   10   -7    7      1.87      0.00
   11   -7    7     -0.82      0.00
   12   -7    7      1.15      0.00
   13   -7    7      1.01      0.00
   14   -7    7      1.96      0.00
   15   -7    7      0.99      0.00
  -17   -6    7     -0.09      0.00
  -16   -6    7     -1.06      0.00
  -15   -6    7      0.76      0.00
  -14   -6    7      1.75      0.00
  -13   -6    7      0.15      0.00
  -12   -6    7      1.04      0.00
  -11   -6    7      2.24      0.00
  -10   -6    7     -5.85      0.00
   -9   -6    7     -1.60      0.00
   -8   -6    7      0.30      0.00
   -7   -6    7     -8.18      0.00
   -6   -6    7      0.57      0.00
   -5   -6    7     -5.92      0.00
   -4   -6    7     -9.29      0.00
   -3   -6    7     -9.28      0.00
   -2   -6    7      3.26      0.00
   -1   -6    7     -0.53      0.00
    0   -6    7     10.12      0.00
    1   -6    7      9.40      0.00
    2   -6    7     -8.93      0.00
    3   -6    7     -4.96      0.00
    4   -6    7      1.46      0.00
    5   -6    7      0.04      0.00
    6   -6    7     -0.99      0.00
    7   -6    7      2.45      0.00
    8   -6    7     -0.41      0.00
    9   -6    7     -5.46      0.00
   10   -6    7     -5.77      0.00
   11   -6    7     -0.30      0.00
   12   -6    7      5.24      0.00
   13   -6    7      1.76      0.00
   14   -6    7      0.72      0.00
   15   -6    7      1.39      0.00
  -16   -5    7     -3.18      0.00
  -15   -5    7      0.68      0.00
  -14   -5    7      1.87      0.00
  -13   -5    7      0.23      0.00
  -12   -5    7     -2.72      0.00
  -11   -5    7      2.93      0.00
  -10   -5    7      1.61      0.00
   -9   -5    7     -0.39      0.00
   -8   -5    7     -2.44      0.00
   -7   -5    7     -8.44      0.00
   -6   -5    7     -0.35      0.00
   -5   -5    7      0.56      0.00
   -4   -5    7     -7.50      0.00
   -3   -5    7    -14.19      0.00
   -2   -5    7     -0.99      0.00
   -1   -5    7     -6.76      0.00
    0   -5    7     15.83      0.00
    1   -5    7      6.81      0.00
    2   -5    7     -7.65      0.00
    3   -5    7     -0.01      0.00
    4   -5    7      2.97      0.00
    5   -5    7      7.81      0.00
    6   -5    7     -5.66      0.00
    7   -5    7      5.59      0.00
    8   -5    7     -6.05      0.00
    9   -5    7     -9.56      0.00
   10   -5    7     -0.55      0.00
   11   -5    7      2.42      0.00
   12   -5    7      1.03      0.00
   13   -5    7      0.36      0.00
   14   -5    7      2.53      0.00
   15   -5    7      0.76      0.00
   16   -5    7     -1.62      0.00
  -16   -4    7     -1.59      0.00
  -15   -4    7      0.29      0.00
  -14   -4    7      1.11      0.00
  -13   -4    7     -0.98      0.00
  -12   -4    7     -0.22      0.00
  -11   -4    7     -1.19      0.00
  -10   -4    7     -0.20      0.00
   -9   -4    7      3.52      0.00
   -8   -4    7     -1.56      0.00
   -7   -4    7     -0.53      0.00
   -6   -4    7     -0.71      0.00
   -5   -4    7     -5.44      0.00
   -4   -4    7     -6.11      0.00
   -3   -4    7    -10.73      0.00
   -2   -4    7      3.44      0.00
   -1   -4    7     -3.36      0.00
    0   -4    7      4.10      0.00
    1   -4    7     -8.82      0.00
    2   -4    7      4.49      0.00
    3   -4    7      9.97      0.00
    4   -4    7     -0.51      0.00
    5   -4    7     11.51      0.00
    6   -4    7      1.08      0.00
    7   -4    7     -0.58      0.00
    8   -4    7     -3.84      0.00
    9   -4    7    -10.51      0.00
   10   -4    7     -0.43      0.00
   11   -4    7      4.42      0.00
   12   -4    7      4.08      0.00
   13   -4    7     -4.25      0.00
   14   -4    7      0.44      0.00
   15   -4    7      3.95      0.00
   16   -4    7     -0.24      0.00
   17   -4    7      0.29      0.00
  -16   -3    7      0.99      0.00
  -15   -3    7     -1.13      0.00
  -14   -3    7      0.05      0.00
  -13   -3    7      0.55      0.00
  -12   -3    7     -1.61      0.00
  -11   -3    7      1.32      0.00
  -10   -3    7     -1.74      0.00
   -9   -3    7      1.14      0.00
   -8   -3    7      1.19      0.00
   -7   -3    7     -1.68      0.00
   -6   -3    7      5.09      0.00
   -5   -3    7     -3.31      0.00
   -4   -3    7     -8.63      0.00
   -3   -3    7    -15.07      0.00
   -2   -3    7     12.60      0.00
   -1   -3    7      7.33      0.00
    0   -3    7    -13.59      0.00
    1   -3    7    -16.79      0.00
    2   -3    7     10.78      0.00
    3   -3    7      6.66      0.00
    4   -3    7      1.56      0.00
    5   -3    7     19.62      0.00
    6   -3    7      2.23      0.00
    7   -3    7     -0.95      0.00
    8   -3    7     -6.68      0.00
    9   -3    7     -2.77      0.00
   10   -3    7     -0.61      0.00
   11   -3    7      0.01      0.00
   12   -3    7      2.16      0.00
   13   -3    7     -0.84      0.00
   14   -3    7      4.67      0.00
   15   -3    7     -0.69      0.00
   16   -3    7     -0.03      0.00
   17   -3    7      1.22      0.00
  -16   -2    7      1.09      0.00
  -15   -2    7     -2.03      0.00
  -14   -2    7      0.02      0.00
  -13   -2    7     -0.68      0.00
  -12   -2    7     -2.17      0.00
  -11   -2    7      2.16      0.00
  -10   -2    7      0.56      0.00
   -9   -2    7      1.58      0.00
   -8   -2    7      1.10      0.00
   -7   -2    7     -4.06      0.00
   -6   -2    7      0.84      0.00
   -5   -2    7      6.99      0.00
   -4   -2    7     -7.27      0.00
   -3   -2    7     -8.27      0.00
   -2   -2    7      8.87      0.00
   -1   -2    7     -4.08      0.00
    0   -2    7     -9.24      0.00
    1   -2    7    -19.47      0.00
    2   -2    7     22.08      0.00
    3   -2    7    -12.39      0.00
    4   -2    7     -5.40      0.00
    5   -2    7     34.45      0.00
    6   -2    7      2.94      0.00
    7   -2    7     -5.02      0.00
    8   -2    7      0.64      0.00
    9   -2    7     -2.49      0.00
   10   -2    7     -1.27      0.00
   11   -2    7      0.18      0.00
   12   -2    7      3.22      0.00
   13   -2    7     -4.61      0.00
   14   -2    7      3.75      0.00
   15   -2    7      1.27      0.00
   16   -2    7     -1.19      0.00
   17   -2    7      1.01      0.00
   18   -2    7      2.81      0.00
  -15   -1    7      0.56      0.00
  -14   -1    7      2.02      0.00
  -13   -1    7     -4.11      0.00
  -12   -1    7     -1.33      0.00
  -11   -1    7      0.27      0.00
  -10   -1    7      0.54      0.00
   -9   -1    7      4.26      0.00
   -8   -1    7     -5.15      0.00
   -7   -1    7      3.22      0.00
   -6   -1    7      3.73      0.00
   -5   -1    7     -6.72      0.00
   -4   -1    7      3.75      0.00
   -3   -1    7      6.69      0.00
   -2   -1    7      9.98      0.00
   -1   -1    7    -24.17      0.00
    0   -1    7    -12.40      0.00
    1   -1    7     -4.00      0.00
    2   -1    7      4.51      0.00
    3   -1    7      0.79      0.00
    4   -1    7     -6.93      0.00
    5   -1    7     14.66      0.00
    6   -1    7      4.14      0.00
    7   -1    7     -0.04      0.00
    8   -1    7      2.19      0.00
    9   -1    7      7.15      0.00
   10   -1    7     -2.95      0.00
   11   -1    7      1.11      0.00
   12   -1    7     -0.53      0.00
   13   -1    7     -3.00      0.00
   14   -1    7     -0.62      0.00
   15   -1    7     -3.80      0.00
   16   -1    7      2.37      0.00
   17   -1    7      4.59      0.00
   18   -1    7      1.40      0.00
  -15    0    7      1.62      0.00
  -14    0    7      1.35      0.00
  -13    0    7     -0.92      0.00
  -12    0    7     -1.54      0.00
  -11    0    7     -0.07      0.00
  -10    0    7      1.56      0.00
   -9    0    7      0.03      0.00
   -8    0    7     -5.39      0.00
   -7    0    7      3.20      0.00
   -6    0    7      6.20      0.00
   -5    0    7     -6.67      0.00
   -4    0    7      3.22      0.00
   -3    0    7     17.76      0.00
   -2    0    7     -4.42      0.00
   -1    0    7    -10.40      0.00
    0    0    7     -4.95      0.00
    1    0    7    -23.27      0.00
    2    0    7     11.35      0.00
    3    0    7     -3.71      0.00
    4    0    7      5.35      0.00
    5    0    7     -0.19      0.00
    6    0    7     -9.54      0.00
    7    0    7      1.43      0.00
    8    0    7      8.26      0.00
    9    0    7     10.51      0.00
   10    0    7      3.62      0.00
   11    0    7     -2.56      0.00
   12    0    7     -1.84      0.00
   13    0    7     -6.48      0.00
   14    0    7      3.00      0.00
   15    0    7     -3.23      0.00
   16    0    7     -1.43      0.00
   17    0    7      3.23      0.00
   18    0    7      3.07      0.00
   19    0    7     -4.04      0.00
  -14    1    7      0.22      0.00
  -13    1    7      1.17      0.00
  -12    1    7      1.01      0.00
  -11    1    7      0.96      0.00
  -10    1    7      2.38      0.00
   -9    1    7     -2.77      0.00
   -8    1    7     -2.41      0.00
   -7    1    7      4.24      0.00
   -6    1    7     -7.31      0.00
   -5    1    7      3.93      0.00
   -4    1    7     13.85      0.00
   -3    1    7      6.02      0.00
   -2    1    7     -7.87      0.00
   -1    1    7    -13.24      0.00
    0    1    7     13.85      0.00
    1    1    7    -17.39      0.00
    2    1    7      0.39      0.00
    3    1    7      5.04      0.00
    4    1    7    -16.45      0.00
    5    1    7      4.50      0.00
    6    1    7     -5.37      0.00
    7    1    7     -4.48      0.00
    8    1    7      3.14      0.00
    9    1    7     13.32      0.00
   10    1    7      3.15      0.00
   11    1    7      1.34      0.00
   12    1    7     -6.37      0.00
   13    1    7     -3.45      0.00
   14    1    7      1.67      0.00
   15    1    7      0.19      0.00
   16    1    7      0.52      0.00
   17    1    7      0.11      0.00
   18    1    7     -1.38      0.00
   19    1    7     -1.16      0.00
  -14    2    7      1.41      0.00
  -13    2    7      0.59      0.00
  -12    2    7      1.97      0.00
  -11    2    7      2.49      0.00
  -10    2    7     -1.19      0.00
   -9    2    7      1.26      0.00
   -8    2    7     -0.92      0.00
   -7    2    7      2.21      0.00
   -6    2    7     -3.95      0.00
   -5    2    7     -1.09      0.00
   -4    2    7     16.06      0.00
   -3    2    7      5.30      0.00
   -2    2    7     -7.88      0.00
   -1    2    7     -6.25      0.00
    0    2    7     -3.87      0.00
    1    2    7      4.18      0.00
    2    2    7     10.03      0.00
    3    2    7     -8.42      0.00
    4    2    7    -13.52      0.00
    5    2    7    -14.05      0.00
    6    2    7      3.54      0.00
    7    2    7     -0.03      0.00
    8    2    7     -2.89      0.00
    9    2    7      7.80      0.00
   10    2    7      4.71      0.00
   11    2    7     -1.27      0.00
   12    2    7     -2.44      0.00
   13    2    7     -3.04      0.00
   14    2    7      2.15      0.00
   15    2    7     -1.96      0.00
   16    2    7      2.89      0.00
   17    2    7      1.03      0.00
   18    2    7     -0.19      0.00
   19    2    7     -2.02      0.00
  -13    3    7     -0.29      0.00
  -12    3    7      2.36      0.00
  -11    3    7     -0.56      0.00
  -10    3    7      1.65      0.00
   -9    3    7      0.04      0.00
   -8    3    7      1.26      0.00
   -7    3    7     -2.18      0.00
   -6    3    7     -0.23      0.00
   -5    3    7      9.72      0.00
   -4    3    7     -1.98      0.00
   -3    3    7      3.48      0.00
   -2    3    7     -0.42      0.00
   -1    3    7     -4.29      0.00
    0    3    7      7.43      0.00
    1    3    7     -4.75      0.00
    2    3    7     13.71      0.00
    3    3    7     -7.69      0.00
    4    3    7    -12.50      0.00
    5    3    7     -7.98      0.00
    6    3    7    -13.84      0.00
    7    3    7     -1.79      0.00
    8    3    7      2.54      0.00
    9    3    7      8.40      0.00
   10    3    7     -4.36      0.00
   11    3    7     -1.79      0.00
   12    3    7     -0.33      0.00
   13    3    7      3.63      0.00
   14    3    7     -1.78      0.00
   15    3    7      0.96      0.00
   16    3    7      0.62      0.00
   17    3    7      0.70      0.00
   18    3    7     -0.11      0.00
   19    3    7      1.09      0.00
   20    3    7     -0.25      0.00
  -13    4    7     -1.02      0.00
  -12    4    7     -1.75      0.00
  -11    4    7     -0.01      0.00
  -10    4    7      1.21      0.00
   -9    4    7      2.78      0.00
   -8    4    7     -0.89      0.00
   -7    4    7     -1.66      0.00
   -6    4    7      0.18      0.00
   -5    4    7      9.26      0.00
   -4    4    7     -1.99      0.00
   -3    4    7     -7.86      0.00
   -2    4    7      6.20      0.00
   -1    4    7     -5.60      0.00
    0    4    7      8.93      0.00
    1    4    7     19.42      0.00
    2    4    7     -7.51      0.00
    3    4    7    -10.06      0.00
    4    4    7      0.74      0.00
    5    4    7     -3.86      0.00
    6    4    7    -12.99      0.00
    7    4    7    -12.43      0.00
    8    4    7      1.28      0.00
    9    4    7      2.18      0.00
   10    4    7     -4.77      0.00
   11    4    7     -3.46      0.00
   12    4    7      4.92      0.00
   13    4    7      1.17      0.00
   14    4    7      0.83      0.00
   15    4    7      3.39      0.00
   16    4    7      1.07      0.00
   17    4    7     -0.41      0.00
   18    4    7     -1.43      0.00
   19    4    7     -0.67      0.00
   20    4    7      4.35      0.00
  -12    5    7     -2.25      0.00
  -11    5    7     -3.28      0.00
  -10    5    7      0.73      0.00
   -9    5    7      0.90      0.00
   -8    5    7      2.38      0.00
   -7    5    7     -0.22      0.00
   -6    5    7      3.98      0.00
   -5    5    7     -0.95      0.00
   -4    5    7     -7.79      0.00
   -3    5    7      3.03      0.00
   -2    5    7      1.11      0.00
   -1    5    7     -5.19      0.00
    0    5    7      6.97      0.00
    1    5    7     13.70      0.00
    2    5    7      1.14      0.00
    3    5    7    -12.73      0.00
    4    5    7     11.34      0.00
    5    5    7     -6.10      0.00
    6    5    7     -9.08      0.00
    7    5    7      1.55      0.00
    8    5    7     -8.58      0.00
    9    5    7    -10.57      0.00
   10    5    7     -5.54      0.00
   11    5    7      2.33      0.00
   12    5    7      2.26      0.00
   13    5    7      3.03      0.00
   14    5    7     -1.93      0.00
   15    5    7      4.81      0.00
   16    5    7      2.22      0.00
   17    5    7      0.78      0.00
   18    5    7     -1.12      0.00
   19    5    7      2.61      0.00
   20    5    7     -1.36      0.00
  -11    6    7     -2.63      0.00
  -10    6    7     -4.22      0.00
   -9    6    7      0.84      0.00
   -8    6    7      0.05      0.00
   -7    6    7      5.89      0.00
   -6    6    7      1.56      0.00
   -5    6    7     -4.28      0.00
   -4    6    7     -5.56      0.00
   -3    6    7     -1.57      0.00
   -2    6    7      5.62      0.00
   -1    6    7     -5.90      0.00
    0    6    7     10.08      0.00
    1    6    7      3.51      0.00
    2    6    7    -14.65      0.00
    3    6    7      6.31      0.00
    4    6    7     13.77      0.00
    5    6    7     -8.84      0.00
    6    6    7     -5.07      0.00
    7    6    7      9.80      0.00
    8    6    7     -7.34      0.00
    9    6    7    -10.79      0.00
   10    6    7     -3.68      0.00
   11    6    7     -3.06      0.00
   12    6    7      0.64      0.00
   13    6    7      1.89      0.00
   14    6    7      3.31      0.00
   15    6    7      0.40      0.00
   16    6    7      0.44      0.00
   17    6    7      2.33      0.00
   18    6    7      1.63      0.00
   19    6    7      1.97      0.00
   20    6    7     -0.01      0.00
   21    6    7     -0.02      0.00
  -11    7    7      0.90      0.00
  -10    7    7     -1.11      0.00
   -9    7    7     -4.40      0.00
   -8    7    7      0.17      0.00
   -7    7    7      4.44      0.00
   -6    7    7     -1.33      0.00
   -5    7    7      0.07      0.00
   -4    7    7     -2.14      0.00
   -3    7    7     -7.87      0.00
   -2    7    7      2.68      0.00
   -1    7    7      6.25      0.00
    0    7    7      3.01      0.00
    1    7    7     -0.66      0.00
    2    7    7     -8.92      0.00
    3    7    7     -7.80      0.00
    4    7    7     13.88      0.00
    5    7    7     -1.76      0.00
    6    7    7      3.37      0.00
    7    7    7      3.69      0.00
    8    7    7     -5.83      0.00
    9    7    7     -4.73      0.00
   10    7    7     -0.77      0.00
   11    7    7     -0.41      0.00
   12    7    7     -4.27      0.00
   13    7    7      0.52      0.00
   14    7    7      3.41      0.00
   15    7    7      4.31      0.00
   16    7    7     -1.63      0.00
   17    7    7      0.52      0.00
   18    7    7      1.91      0.00
   19    7    7     -0.21      0.00
   20    7    7      2.29      0.00
   21    7    7      2.86      0.00
  -10    8    7      1.06      0.00
   -9    8    7     -1.86      0.00
   -8    8    7     -2.42      0.00
   -7    8    7      2.20      0.00
   -6    8    7     -1.25      0.00
   -5    8    7      0.73      0.00
   -4    8    7     -1.60      0.00
   -3    8    7     -7.44      0.00
   -2    8    7      7.42      0.00
   -1    8    7      4.53      0.00
    0    8    7     -2.48      0.00
    1    8    7     -1.61      0.00
    2    8    7     -2.88      0.00
    3    8    7     -1.49      0.00
    4    8    7     -4.11      0.00
    5    8    7      3.99      0.00
    6    8    7     10.44      0.00
    7    8    7      1.30      0.00
    8    8    7     -8.15      0.00
    9    8    7     -0.13      0.00
   10    8    7     -1.83      0.00
   11    8    7      0.34      0.00
   12    8    7     -0.76      0.00
   13    8    7      0.29      0.00
   14    8    7      2.66      0.00
   15    8    7      1.68      0.00
   16    8    7      1.29      0.00
   17    8    7      1.84      0.00
   18    8    7     -1.48      0.00
   19    8    7      1.69      0.00
   20    8    7      1.48      0.00
   21    8    7      1.03      0.00
   -9    9    7     -1.32      0.00
   -8    9    7      0.13      0.00
   -7    9    7      2.50      0.00
   -6    9    7     -2.97      0.00
   -5    9    7      0.54      0.00
   -4    9    7     -1.59      0.00
   -3    9    7      0.59      0.00
   -2    9    7      7.08      0.00
   -1    9    7     -0.86      0.00
    0    9    7     -7.41      0.00
    1    9    7      3.76      0.00
    2    9    7      3.79      0.00
    3    9    7     -7.18      0.00
    4    9    7      2.11      0.00
    5    9    7      4.08      0.00
    6    9    7      3.43      0.00
    7    9    7     -1.18      0.00
    8    9    7      2.24      0.00
    9    9    7     -1.73      0.00
   10    9    7     -0.22      0.00
   11    9    7     -1.14      0.00
   12    9    7     -3.60      0.00
   13    9    7      2.92      0.00
   14    9    7      2.72      0.00
   15    9    7      0.55      0.00
   16    9    7      0.03      0.00
   17    9    7     -0.38      0.00
   18    9    7      3.14      0.00
   19    9    7      2.70      0.00
   20    9    7      0.40      0.00
   21    9    7     -0.26      0.00
   -9   10    7     -2.11      0.00
   -8   10    7     -0.79      0.00
   -7   10    7      2.89      0.00
   -6   10    7     -1.30      0.00
   -5   10    7     -0.92      0.00
   -4   10    7      4.21      0.00
   -3   10    7      4.19      0.00
   -2   10    7      2.44      0.00
   -1   10    7     -5.66      0.00
    0   10    7     -2.70      0.00
    1   10    7      6.36      0.00
    2   10    7      2.53      0.00
    3   10    7     -1.68      0.00
    4   10    7     -4.21      0.00
    5   10    7     10.74      0.00
    6   10    7     -1.62      0.00
    7   10    7     -1.45      0.00
    8   10    7      3.62      0.00
    9   10    7      2.98      0.00
   10   10    7     -1.46      0.00
   11   10    7      1.15      0.00
   12   10    7     -0.67      0.00
   13   10    7     -2.74      0.00
   14   10    7      0.40      0.00
   15   10    7      1.76      0.00
   16   10    7     -0.11      0.00
   17   10    7      0.37      0.00
   18   10    7     -0.03      0.00
   19   10    7      2.29      0.00
   20   10    7      3.20      0.00
   21   10    7      1.55      0.00
   -8   11    7     -0.61      0.00
   -7   11    7      0.56      0.00
   -6   11    7     -0.94      0.00
   -5   11    7      3.64      0.00
   -4   11    7      3.37      0.00
   -3   11    7      5.81      0.00
   -2   11    7     -2.40      0.00
   -1   11    7      0.31      0.00
    0   11    7     -0.35      0.00
    1   11    7      1.88      0.00
    2   11    7      0.35      0.00
    3   11    7      1.37      0.00
    4   11    7      3.71      0.00
    5   11    7     -0.53      0.00
    6   11    7      0.06      0.00
    7   11    7      2.54      0.00
    8   11    7      3.49      0.00
    9   11    7      0.99      0.00
   10   11    7      1.04      0.00
   11   11    7      1.20      0.00
   12   11    7      3.02      0.00
   13   11    7     -1.99      0.00
   14   11    7     -3.24      0.00
   15   11    7      1.91      0.00
   16   11    7     -1.71      0.00
   17   11    7      1.68      0.00
   18   11    7      2.51      0.00
   19   11    7     -3.00      0.00
   20   11    7      1.11      0.00
   21   11    7      3.26      0.00
   -7   12    7      0.86      0.00
   -6   12    7      0.53      0.00
   -5   12    7      3.26      0.00
   -4   12    7      4.44      0.00
   -3   12    7      0.87      0.00
   -2   12    7     -0.45      0.00
   -1   12    7      3.12      0.00
    0   12    7      2.93      0.00
    1   12    7     -2.27      0.00
    2   12    7     -1.59      0.00
    3   12    7      4.86      0.00
    4   12    7      0.18      0.00
    5   12    7      3.10      0.00
    6   12    7     -4.21      0.00
    7   12    7      0.56      0.00
    8   12    7      5.10      0.00
    9   12    7      6.51      0.00
   10   12    7     -2.52      0.00
   11   12    7      1.02      0.00
   12   12    7      2.65      0.00
   13   12    7     -0.93      0.00
   14   12    7      1.53      0.00
   15   12    7     -0.87      0.00
   16   12    7     -0.48      0.00
   17   12    7     -0.22      0.00
   18   12    7      1.68      0.00
   19   12    7      1.97      0.00
   20   12    7     -3.08      0.00
   21   12    7     -0.93      0.00
   -6   13    7      0.59      0.00
   -5   13    7      4.23      0.00
   -4   13    7      2.20      0.00
   -3   13    7      3.27      0.00
   -2   13    7     -4.26      0.00
   -1   13    7      4.49      0.00
    0   13    7      2.29      0.00
    1   13    7      0.65      0.00
    2   13    7     -1.25      0.00
    3   13    7      3.19      0.00
    4   13    7     -0.88      0.00
    5   13    7     -1.26      0.00
    6   13    7      2.54      0.00
    7   13    7     -4.49      0.00
    8   13    7      4.36      0.00
    9   13    7      5.43      0.00
   10   13    7      0.01      0.00
   11   13    7      1.18      0.00
   12   13    7      2.44      0.00
   13   13    7      0.69      0.00
   14   13    7     -0.06      0.00
   15   13    7      0.91      0.00
   16   13    7      0.44      0.00
   17   13    7      1.36      0.00
   18   13    7     -0.25      0.00
   19   13    7     -0.40      0.00
   20   13    7      0.04      0.00
   21   13    7     -0.55      0.00
   -5   14    7      2.01      0.00
   -4   14    7      1.87      0.00
   -3   14    7      4.01      0.00
   -2   14    7     -1.60      0.00
   -1   14    7      0.28      0.00
    0   14    7      4.52      0.00
    1   14    7     -0.59      0.00
    2   14    7      0.93      0.00
    3   14    7      1.13      0.00
    4   14    7     -2.06      0.00
    5   14    7      2.18      0.00
    6   14    7     -0.60      0.00
    7   14    7     -1.46      0.00
    8   14    7      2.05      0.00
    9   14    7      0.53      0.00
   10   14    7     -2.38      0.00
   11   14    7      6.95      0.00
   12   14    7      3.15      0.00
   13   14    7      1.33      0.00
   14   14    7      0.29      0.00
   15   14    7     -1.90      0.00
   16   14    7      1.85      0.00
   17   14    7      1.82      0.00
   18   14    7      1.16      0.00
   19   14    7     -2.40      0.00
   20   14    7     -0.88      0.00
   21   14    7     -0.22      0.00
   -4   15    7     -0.01      0.00
   -3   15    7      1.19      0.00
   -2   15    7      1.19      0.00
   -1   15    7      4.77      0.00
    0   15    7     -3.96      0.00
    1   15    7      3.92      0.00
    2   15    7      1.41      0.00
    3   15    7      0.21      0.00
    4   15    7      0.91      0.00
    5   15    7     -0.29      0.00
    6   15    7      1.02      0.00
    7   15    7     -3.43      0.00
    8   15    7      2.02      0.00
    9   15    7     -1.29      0.00
   10   15    7     -0.11      0.00
   11   15    7      2.90      0.00
   12   15    7      3.57      0.00
   13   15    7      2.04      0.00
   14   15    7      0.61      0.00
   15   15    7      0.59      0.00
   16   15    7     -1.05      0.00
   17   15    7      1.73      0.00
   18   15    7     -0.23      0.00
   19   15    7     -1.80      0.00
   20   15    7     -0.92      0.00
   21   15    7     -1.13      0.00
   -2   16    7      1.02      0.00
   -1   16    7      2.71      0.00
    0   16    7      0.61      0.00
    1   16    7      0.31      0.00
    2   16    7      0.70      0.00
    3   16    7      2.68      0.00
    4   16    7      7.37      0.00
    5   16    7     -4.41      0.00
    6   16    7     -2.66      0.00
    7   16    7      1.33      0.00
    8   16    7      0.87      0.00
    9   16    7     -3.18      0.00
   10   16    7     -0.44      0.00
   11   16    7      5.95      0.00
   12   16    7     -3.36      0.00
   13   16    7      3.43      0.00
   14   16    7      1.17      0.00
   15   16    7     -1.56      0.00
   16   16    7      3.55      0.00
   17   16    7     -1.89      0.00
   18   16    7     -2.52      0.00
   19   16    7     -2.66      0.00
   20   16    7      0.42      0.00
   -1   17    7     -0.68      0.00
    0   17    7      0.65      0.00
    1   17    7      4.38      0.00
    2   17    7     -4.16      0.00
    3   17    7      4.52      0.00
    4   17    7      6.83      0.00
    5   17    7     -1.32      0.00
    6   17    7      1.28      0.00
    7   17    7     -1.08      0.00
    8   17    7      0.60      0.00
    9   17    7     -1.12      0.00
   10   17    7     -2.11      0.00
   11   17    7      1.47      0.00
   12   17    7      0.04      0.00
   13   17    7      0.93      0.00
   14   17    7      1.24      0.00
   15   17    7     -0.82      0.00
   16   17    7      1.76      0.00
   17   17    7     -2.26      0.00
   18   17    7     -5.95      0.00
   19   17    7     -0.27      0.00
   20   17    7      1.35      0.00
    0   18    7     -0.18      0.00
    1   18    7      0.16      0.00
    2   18    7      2.11      0.00
    3   18    7      2.99      0.00
    4   18    7      1.75      0.00
    5   18    7     -1.07      0.00
    6   18    7      8.19      0.00
    7   18    7      1.50      0.00
    8   18    7     -4.07      0.00
    9   18    7      0.00      0.00
   10   18    7      3.58      0.00
   11   18    7      0.19      0.00
   12   18    7     -5.73      0.00
   13   18    7      4.24      0.00
   14   18    7     -0.70      0.00
   15   18    7      0.72      0.00
   16   18    7      0.46      0.00
   17   18    7     -5.36      0.00
   18   18    7     -1.71      0.00
   19   18    7     -2.09      0.00
    2   19    7     -2.58      0.00
    3   19    7      4.61      0.00
    4   19    7      2.64      0.00
    5   19    7     -5.05      0.00
    6   19    7      5.54      0.00
    7   19    7      5.61      0.00
    8   19    7      0.56      0.00
    9   19    7      0.19      0.00
   10   19    7      0.04      0.00
   11   19    7      3.10      0.00
   12   19    7     -0.80      0.00
   13   19    7     -0.70      0.00
   14   19    7      1.02      0.00
   15   19    7      0.47      0.00
   16   19    7     -1.40      0.00
   17   19    7     -4.02      0.00
   18   19    7      1.24      0.00
    4   20    7      1.65      0.00
    5   20    7     -2.35      0.00
    6   20    7      0.48      0.00
    7   20    7      1.39      0.00
    8   20    7      7.30      0.00
    9   20    7      4.31      0.00
   10   20    7     -4.45      0.00
   11   20    7      2.73      0.00
   12   20    7     -0.68      0.00
   13   20    7      1.87      0.00
   14   20    7      1.36      0.00
   15   20    7      2.19      0.00
   16   20    7     -2.18      0.00
   17   20    7     -1.37      0.00
    7   21    7     -1.68      0.00
    8   21    7      3.86      0.00
    9   21    7      2.47      0.00
   10   21    7      2.18      0.00
   11   21    7      2.99      0.00
   12   21    7     -3.31      0.00
   13   21    7      0.00      0.00
   14   21    7      2.44      0.00
   15   21    7      1.98      0.00
   16   21    7      1.01      0.00
  -10  -21    8     -1.91      0.00
   -9  -21    8     -1.00      0.00
   -8  -21    8     -0.54      0.00
   -7  -21    8     -0.12      0.00
   -6  -21    8     -4.33      0.00
   -5  -21    8      5.88      0.00
   -4  -21    8     -0.76      0.00
  -12  -20    8      1.20      0.00
  -11  -20    8     -4.46      0.00
  -10  -20    8      1.60      0.00
   -9  -20    8      0.50      0.00
   -8  -20    8      0.09      0.00
   -7  -20    8     -3.91      0.00
   -6  -20    8     -0.29      0.00
   -5  -20    8      2.72      0.00
   -4  -20    8     -2.36      0.00
   -3  -20    8      1.17      0.00
   -2  -20    8      3.28      0.00
   -1  -20    8     -2.14      0.00
  -13  -19    8     -0.53      0.00
  -12  -19    8      0.50      0.00
  -11  -19    8     -1.53      0.00
  -10  -19    8      0.04      0.00
   -9  -19    8      1.56      0.00
   -8  -19    8      0.22      0.00
   -7  -19    8     -1.03      0.00
   -6  -19    8     -0.74      0.00
   -5  -19    8      0.39      0.00
   -4  -19    8     -1.16      0.00
   -3  -19    8      3.98      0.00
   -2  -19    8      1.35      0.00
   -1  -19    8      0.34      0.00
    0  -19    8      0.40      0.00
    1  -19    8     -2.24      0.00
  -14  -18    8     -1.61      0.00
  -13  -18    8     -1.02      0.00
  -12  -18    8      2.38      0.00
  -11  -18    8     -2.56      0.00
  -10  -18    8      2.60      0.00
   -9  -18    8     -2.42      0.00
   -8  -18    8      0.61      0.00
   -7  -18    8      0.61      0.00
   -6  -18    8      0.30      0.00
   -5  -18    8      0.37      0.00
   -4  -18    8      1.73      0.00
   -3  -18    8      0.56      0.00
   -2  -18    8      4.74      0.00
   -1  -18    8      2.56      0.00
    0  -18    8     -0.15      0.00
    1  -18    8     -2.19      0.00
    2  -18    8      0.42      0.00
    3  -18    8     -3.38      0.00
  -15  -17    8      0.01      0.00
  -14  -17    8     -4.13      0.00
  -13  -17    8      2.53      0.00
  -12  -17    8      0.55      0.00
  -11  -17    8     -1.30      0.00
  -10  -17    8      2.98      0.00
   -9  -17    8     -1.34      0.00
   -8  -17    8     -1.19      0.00
   -7  -17    8     -0.65      0.00
   -6  -17    8      2.66      0.00
   -5  -17    8      1.80      0.00
   -4  -17    8      2.39      0.00
   -3  -17    8     -0.49      0.00
   -2  -17    8      2.02      0.00
   -1  -17    8      5.38      0.00
    0  -17    8      3.03      0.00
    1  -17    8      0.75      0.00
    2  -17    8     -3.91      0.00
    3  -17    8      2.01      0.00
    4  -17    8     -3.25      0.00
    5  -17    8      1.29      0.00
  -16  -16    8     -1.30      0.00
  -15  -16    8      0.19      0.00
  -14  -16    8      1.10      0.00
  -13  -16    8     -0.03      0.00
  -12  -16    8     -0.65      0.00
  -11  -16    8     -1.81      0.00
  -10  -16    8      3.36      0.00
   -9  -16    8     -1.20      0.00
   -8  -16    8      1.65      0.00
   -7  -16    8      0.46      0.00
   -6  -16    8      2.13      0.00
   -5  -16    8      3.16      0.00
   -4  -16    8      0.01      0.00
   -3  -16    8      0.63      0.00
   -2  -16    8      1.84      0.00
   -1  -16    8     -0.10      0.00
    0  -16    8      6.30      0.00
    1  -16    8      2.92      0.00
    2  -16    8      0.55      0.00
    3  -16    8      0.10      0.00
    4  -16    8     -0.20      0.00
    5  -16    8     -2.32      0.00
    6  -16    8     -0.15      0.00
  -16  -15    8     -0.75      0.00
  -15  -15    8      0.91      0.00
  -14  -15    8      1.06      0.00
  -13  -15    8      1.10      0.00
  -12  -15    8     -0.81      0.00
  -11  -15    8      0.12      0.00
  -10  -15    8     -2.20      0.00
   -9  -15    8      0.04      0.00
   -8  -15    8      2.82      0.00
   -7  -15    8      3.69      0.00
   -6  -15    8      3.86      0.00
   -5  -15    8      0.12      0.00
   -4  -15    8      0.61      0.00
   -3  -15    8     -1.39      0.00
   -2  -15    8      2.51      0.00
   -1  -15    8      3.67      0.00
    0  -15    8      0.33      0.00
    1  -15    8      5.01      0.00
    2  -15    8      0.26      0.00
    3  -15    8      0.35      0.00
    4  -15    8     -0.64      0.00
    5  -15    8      1.79      0.00
    6  -15    8     -3.68      0.00
    7  -15    8      1.31      0.00
  -16  -14    8      0.74      0.00
  -15  -14    8      1.15      0.00
  -14  -14    8      0.47      0.00
  -13  -14    8      0.17      0.00
  -12  -14    8      2.96      0.00
  -11  -14    8      0.41      0.00
  -10  -14    8     -0.16      0.00
   -9  -14    8     -2.38      0.00
   -8  -14    8      2.12      0.00
   -7  -14    8      2.16      0.00
   -6  -14    8      2.66      0.00
   -5  -14    8      4.35      0.00
   -4  -14    8     -2.59      0.00
   -3  -14    8      0.42      0.00
   -2  -14    8      3.53      0.00
   -1  -14    8     -0.76      0.00
    0  -14    8      5.53      0.00
    1  -14    8      3.22      0.00
    2  -14    8     -1.26      0.00
    3  -14    8     -1.01      0.00
    4  -14    8      1.73      0.00
    5  -14    8     -1.01      0.00
    6  -14    8     -3.35      0.00
    7  -14    8      0.48      0.00
    8  -14    8      6.24      0.00
    9  -14    8     -1.94      0.00
  -16  -13    8      0.84      0.00
  -15  -13    8     -1.17      0.00
  -14  -13    8      0.46      0.00
  -13  -13    8      2.71      0.00
  -12  -13    8      0.97      0.00
  -11  -13    8      5.23      0.00
  -10  -13    8      0.26      0.00
   -9  -13    8      0.41      0.00
   -8  -13    8      1.11      0.00
   -7  -13    8      0.32      0.00
   -6  -13    8     -2.47      0.00
   -5  -13    8      2.83      0.00
   -4  -13    8      4.77      0.00
   -3  -13    8      0.43      0.00
   -2  -13    8      1.11      0.00
   -1  -13    8     -2.12      0.00
    0  -13    8      1.01      0.00
    1  -13    8      6.24      0.00
    2  -13    8      1.11      0.00
    3  -13    8      3.82      0.00
    4  -13    8     -3.02      0.00
    5  -13    8     -3.99      0.00
    6  -13    8     -2.65      0.00
    7  -13    8      2.54      0.00
    8  -13    8      1.65      0.00
    9  -13    8      3.31      0.00
   10  -13    8     -1.56      0.00
  -17  -12    8      2.98      0.00
  -16  -12    8     -0.58      0.00
  -15  -12    8     -0.35      0.00
  -14  -12    8     -1.34      0.00
  -13  -12    8      0.63      0.00
  -12  -12    8      5.04      0.00
  -11  -12    8      2.95      0.00
  -10  -12    8      1.81      0.00
   -9  -12    8     -1.40      0.00
   -8  -12    8      7.24      0.00
   -7  -12    8     -0.49      0.00
   -6  -12    8     -2.54      0.00
   -5  -12    8      0.58      0.00
   -4  -12    8     -0.37      0.00
   -3  -12    8      5.00      0.00
   -2  -12    8      2.65      0.00
   -1  -12    8     -2.55      0.00
    0  -12    8      0.70      0.00
    1  -12    8      0.37      0.00
    2  -12    8      3.70      0.00
    3  -12    8      1.24      0.00
    4  -12    8     -0.36      0.00
    5  -12    8      0.15      0.00
    6  -12    8     -2.47      0.00
    7  -12    8      1.93      0.00
    8  -12    8     -1.57      0.00
    9  -12    8     -0.75      0.00
   10  -12    8      4.13      0.00
   11  -12    8     -2.07      0.00
  -17  -11    8      0.48      0.00
  -16  -11    8     -0.48      0.00
  -15  -11    8      2.76      0.00
  -14  -11    8     -1.25      0.00
  -13  -11    8      1.17      0.00
  -12  -11    8      1.18      0.00
  -11  -11    8      2.92      0.00
  -10  -11    8     -0.16      0.00
   -9  -11    8      3.94      0.00
   -8  -11    8      0.37      0.00
   -7  -11    8      2.41      0.00
   -6  -11    8      0.93      0.00
   -5  -11    8      1.16      0.00
   -4  -11    8      0.45      0.00
   -3  -11    8     -3.34      0.00
   -2  -11    8      3.35      0.00
   -1  -11    8      3.20      0.00
    0  -11    8      5.71      0.00
    1  -11    8     -3.07      0.00
    2  -11    8     -3.22      0.00
    3  -11    8     -1.18      0.00
    4  -11    8     -0.52      0.00
    5  -11    8      5.58      0.00
    6  -11    8      0.56      0.00
    7  -11    8     -1.34      0.00
    8  -11    8     -0.49      0.00
    9  -11    8      1.97      0.00
   10  -11    8     -2.91      0.00
   11  -11    8     -0.48      0.00
   12  -11    8      0.81      0.00
  -17  -10    8      0.39      0.00
  -16  -10    8     -1.65      0.00
  -15  -10    8      2.72      0.00
  -14  -10    8      0.08      0.00
  -13  -10    8      3.21      0.00
  -12  -10    8     -1.75      0.00
  -11  -10    8     -0.81      0.00
  -10  -10    8      2.84      0.00
   -9  -10    8      4.35      0.00
   -8  -10    8      4.04      0.00
   -7  -10    8     -8.20      0.00
   -6  -10    8      3.43      0.00
   -5  -10    8      3.52      0.00
   -4  -10    8      4.36      0.00
   -3  -10    8     -3.46      0.00
   -2  -10    8     -3.04      0.00
   -1  -10    8      4.49      0.00
    0  -10    8      6.56      0.00
    1  -10    8      0.31      0.00
    2  -10    8      0.12      0.00
    3  -10    8     -2.30      0.00
    4  -10    8     -9.29      0.00
    5  -10    8      7.27      0.00
    6  -10    8      4.69      0.00
    7  -10    8     -6.48      0.00
    8  -10    8      1.58      0.00
    9  -10    8      7.65      0.00
   10  -10    8     -6.41      0.00
   11  -10    8     -3.15      0.00
   12  -10    8      5.70      0.00
  -17   -9    8      1.19      0.00
  -16   -9    8      0.33      0.00
  -15   -9    8      1.83      0.00
  -14   -9    8     -0.62      0.00
  -13   -9    8      1.47      0.00
  -12   -9    8     -0.44      0.00
  -11   -9    8      0.55      0.00
  -10   -9    8     -0.77      0.00
   -9   -9    8      4.88      0.00
   -8   -9    8      1.39      0.00
   -7   -9    8      3.07      0.00
   -6   -9    8     -4.65      0.00
   -5   -9    8      6.87      0.00
   -4   -9    8     -1.00      0.00
   -3   -9    8     -4.34      0.00
   -2   -9    8      5.31      0.00
   -1   -9    8      0.90      0.00
    0   -9    8      3.07      0.00
    1   -9    8     -2.27      0.00
    2   -9    8     11.41      0.00
    3   -9    8     -4.49      0.00
    4   -9    8     -9.80      0.00
    5   -9    8      7.64      0.00
    6   -9    8      0.91      0.00
    7   -9    8     -1.59      0.00
    8   -9    8      1.75      0.00
    9   -9    8     -0.94      0.00
   10   -9    8     -4.41      0.00
   11   -9    8      6.40      0.00
   12   -9    8      1.73      0.00
   13   -9    8     -2.14      0.00
  -16   -8    8     -0.42      0.00
  -15   -8    8      2.96      0.00
  -14   -8    8      0.01      0.00
  -13   -8    8     -0.60      0.00
  -12   -8    8     -0.36      0.00
  -11   -8    8      0.84      0.00
  -10   -8    8      1.86      0.00
   -9   -8    8      2.44      0.00
   -8   -8    8     -3.04      0.00
   -7   -8    8      0.38      0.00
   -6   -8    8     15.24      0.00
   -5   -8    8     -3.13      0.00
   -4   -8    8     -2.92      0.00
   -3   -8    8     -0.03      0.00
   -2   -8    8      2.07      0.00
   -1   -8    8      2.16      0.00
    0   -8    8      4.83      0.00
    1   -8    8     -4.42      0.00
    2   -8    8      1.97      0.00
    3   -8    8      3.65      0.00
    4   -8    8     -1.35      0.00
    5   -8    8      8.45      0.00
    6   -8    8     -4.42      0.00
    7   -8    8     -0.34      0.00
    8   -8    8      4.31      0.00
    9   -8    8     -1.61      0.00
   10   -8    8     -8.32      0.00
   11   -8    8      7.10      0.00
   12   -8    8      4.91      0.00
   13   -8    8     -2.89      0.00
   14   -8    8      1.06      0.00
  -16   -7    8     -1.42      0.00
  -15   -7    8      1.08      0.00
  -14   -7    8      0.30      0.00
  -13   -7    8      1.41      0.00
  -12   -7    8     -3.68      0.00
  -11   -7    8     -1.18      0.00
  -10   -7    8      5.12      0.00
   -9   -7    8      4.95      0.00
   -8   -7    8     -5.87      0.00
   -7   -7    8     -0.61      0.00
   -6   -7    8      5.70      0.00
   -5   -7    8      8.70      0.00
   -4   -7    8     -4.48      0.00
   -3   -7    8     12.03      0.00
   -2   -7    8     -3.25      0.00
   -1   -7    8     -1.88      0.00
    0   -7    8      4.44      0.00
    1   -7    8     -6.43      0.00
    2   -7    8     -0.69      0.00
    3   -7    8      1.18      0.00
    4   -7    8     12.90      0.00
    5   -7    8      0.37      0.00
    6   -7    8      0.50      0.00
    7   -7    8     -0.28      0.00
    8   -7    8     -3.04      0.00
    9   -7    8      5.38      0.00
   10   -7    8     -1.37      0.00
   11   -7    8      0.94      0.00
   12   -7    8      0.42      0.00
   13   -7    8      1.26      0.00
   14   -7    8      0.03      0.00
   15   -7    8     -0.90      0.00
  -16   -6    8      0.59      0.00
  -15   -6    8      0.57      0.00
  -14   -6    8     -1.11      0.00
  -13   -6    8     -0.70      0.00
  -12   -6    8      0.77      0.00
  -11   -6    8     -2.38      0.00
  -10   -6    8      0.39      0.00
   -9   -6    8      2.97      0.00
   -8   -6    8     -1.90      0.00
   -7   -6    8      1.38      0.00
   -6   -6    8      3.15      0.00
   -5   -6    8     -5.38      0.00
   -4   -6    8      7.06      0.00
   -3   -6    8     11.66      0.00
   -2   -6    8      3.33      0.00
   -1   -6    8     -3.43      0.00
    0   -6    8      4.04      0.00
    1   -6    8    -11.47      0.00
    2   -6    8     -2.24      0.00
    3   -6    8      8.60      0.00
    4   -6    8      2.64      0.00
    5   -6    8      1.66      0.00
    6   -6    8      1.16      0.00
    7   -6    8      2.27      0.00
    8   -6    8     -3.88      0.00
    9   -6    8      3.75      0.00
   10   -6    8      0.91      0.00
   11   -6    8      7.88      0.00
   12   -6    8     -3.07      0.00
   13   -6    8     -2.92      0.00
   14   -6    8      0.12      0.00
   15   -6    8     -0.63      0.00
  -16   -5    8      3.18      0.00
  -15   -5    8      1.22      0.00
  -14   -5    8     -1.12      0.00
  -13   -5    8     -2.18      0.00
  -12   -5    8      2.42      0.00
  -11   -5    8      1.59      0.00
  -10   -5    8     -1.36      0.00
   -9   -5    8     -3.52      0.00
   -8   -5    8     -2.30      0.00
   -7   -5    8      5.71      0.00
   -6   -5    8     -1.05      0.00
   -5   -5    8     -1.59      0.00
   -4   -5    8     -4.88      0.00
   -3   -5    8     14.31      0.00
   -2   -5    8     -0.18      0.00
   -1   -5    8      6.32      0.00
    0   -5    8      0.04      0.00
    1   -5    8     -8.91      0.00
    2   -5    8     -1.49      0.00
    3   -5    8      6.64      0.00
    4   -5    8      1.26      0.00
    5   -5    8     -8.76      0.00
    6   -5    8      4.87      0.00
    7   -5    8     -0.29      0.00
    8   -5    8     -2.43      0.00
    9   -5    8      4.54      0.00
   10   -5    8      8.39      0.00
   11   -5    8      1.35      0.00
   12   -5    8     -5.82      0.00
   13   -5    8      2.09      0.00
   14   -5    8      0.15      0.00
   15   -5    8     -6.45      0.00
   16   -5    8      3.14      0.00
  -16   -4    8      1.26      0.00
  -15   -4    8      1.10      0.00
  -14   -4    8     -0.56      0.00
  -13   -4    8     -0.07      0.00
  -12   -4    8      0.70      0.00
  -11   -4    8      0.27      0.00
  -10   -4    8      1.45      0.00
   -9   -4    8     -1.14      0.00
   -8   -4    8     -0.95      0.00
   -7   -4    8     -0.69      0.00
   -6   -4    8     -4.26      0.00
   -5   -4    8     -0.40      0.00
   -4   -4    8      0.12      0.00
   -3   -4    8      7.97      0.00
   -2   -4    8      0.74      0.00
   -1   -4    8     -2.35      0.00
    0   -4    8     -0.71      0.00
    1   -4    8     -4.22      0.00
    2   -4    8     14.93      0.00
    3   -4    8     -8.60      0.00
    4   -4    8      1.04      0.00
    5   -4    8     -5.56      0.00
    6   -4    8     -9.40      0.00
    7   -4    8      4.37      0.00
    8   -4    8     -3.89      0.00
    9   -4    8     10.21      0.00
   10   -4    8      6.28      0.00
   11   -4    8      0.49      0.00
   12   -4    8     -6.70      0.00
   13   -4    8      1.52      0.00
   14   -4    8      0.75      0.00
   15   -4    8     -2.65      0.00
   16   -4    8      0.42      0.00
   17   -4    8     -0.42      0.00
  -15   -3    8     -0.18      0.00
  -14   -3    8      1.82      0.00
  -13   -3    8     -1.39      0.00
  -12   -3    8      2.93      0.00
  -11   -3    8     -2.40      0.00
  -10   -3    8      0.00      0.00
   -9   -3    8      1.19      0.00
   -8   -3    8     -0.98      0.00
   -7   -3    8      1.49      0.00
   -6   -3    8     -7.29      0.00
   -5   -3    8     -0.04      0.00
   -4   -3    8     -3.74      0.00
   -3   -3    8     14.38      0.00
   -2   -3    8      2.37      0.00
   -1   -3    8    -12.98      0.00
    0   -3    8     -8.46      0.00
    1   -3    8     16.82      0.00
    2   -3    8      2.77      0.00
    3   -3    8     -3.72      0.00
    4   -3    8      5.32      0.00
    5   -3    8    -10.82      0.00
    6   -3    8    -13.22      0.00
    7   -3    8      0.06      0.00
    8   -3    8      2.86      0.00
    9   -3    8      6.89      0.00
   10   -3    8      3.74      0.00
   11   -3    8     -0.09      0.00
   12   -3    8     -0.41      0.00
   13   -3    8      0.75      0.00
   14   -3    8     -1.57      0.00
   15   -3    8     -3.17      0.00
   16   -3    8      4.16      0.00
   17   -3    8     -3.00      0.00
  -15   -2    8      0.28      0.00
  -14   -2    8      1.34      0.00
  -13   -2    8     -0.55      0.00
  -12   -2    8      2.55      0.00
  -11   -2    8      0.87      0.00
  -10   -2    8     -1.52      0.00
   -9   -2    8     -1.25      0.00
   -8   -2    8     -4.92      0.00
   -7   -2    8      2.55      0.00
   -6   -2    8      0.94      0.00
   -5   -2    8     -3.35      0.00
   -4   -2    8     -4.83      0.00
   -3   -2    8      9.77      0.00
   -2   -2    8     -4.14      0.00
   -1   -2    8     -5.66      0.00
    0   -2    8      4.50      0.00
    1   -2    8      9.94      0.00
    2   -2    8      1.09      0.00
    3   -2    8    -15.31      0.00
    4   -2    8     25.74      0.00
    5   -2    8    -13.63      0.00
    6   -2    8    -18.10      0.00
    7   -2    8      2.09      0.00
    8   -2    8      0.60      0.00
    9   -2    8      4.03      0.00
   10   -2    8      0.03      0.00
   11   -2    8      6.81      0.00
   12   -2    8     -3.58      0.00
   13   -2    8      0.77      0.00
   14   -2    8      2.53      0.00
   15   -2    8     -2.85      0.00
   16   -2    8      1.95      0.00
   17   -2    8      0.53      0.00
   18   -2    8     -1.69      0.00
  -15   -1    8      0.76      0.00
  -14   -1    8     -2.38      0.00
  -13   -1    8     -0.35      0.00
  -12   -1    8      3.36      0.00
  -11   -1    8      0.22      0.00
  -10   -1    8      2.37      0.00
   -9   -1    8     -4.66      0.00
   -8   -1    8     -0.85      0.00
   -7   -1    8      2.55      0.00
   -6   -1    8     -9.65      0.00
   -5   -1    8      7.85      0.00
   -4   -1    8     -2.43      0.00
   -3   -1    8     -0.08      0.00
   -2   -1    8    -16.71      0.00
   -1   -1    8      2.21      0.00
    0   -1    8     15.81      0.00
    1   -1    8     10.31      0.00
    2   -1    8     -1.63      0.00
    3   -1    8     -8.07      0.00
    4   -1    8      7.51      0.00
    5   -1    8      0.45      0.00
    6   -1    8    -12.94      0.00
    7   -1    8      3.81      0.00
    8   -1    8      2.13      0.00
    9   -1    8     -5.35      0.00
   10   -1    8      0.87      0.00
   11   -1    8      1.82      0.00
   12   -1    8     -1.22      0.00
   13   -1    8      2.19      0.00
   14   -1    8      1.03      0.00
   15   -1    8      1.12      0.00
   16   -1    8      6.88      0.00
   17   -1    8     -3.39      0.00
   18   -1    8     -3.40      0.00
  -14    0    8     -1.73      0.00
  -13    0    8     -1.81      0.00
  -12    0    8      1.42      0.00
  -11    0    8      1.18      0.00
  -10    0    8     -1.34      0.00
   -9    0    8      0.31      0.00
   -8    0    8      0.46      0.00
   -7    0    8      5.03      0.00
   -6    0    8     -9.59      0.00
   -5    0    8      1.21      0.00
   -4    0    8      5.94      0.00
   -3    0    8    -11.14      0.00
   -2    0    8    -12.13      0.00
   -1    0    8      5.93      0.00
    0    0    8      1.33      0.00
    1    0    8     14.60      0.00
    2    0    8      7.31      0.00
    3    0    8     -8.29      0.00
    4    0    8      8.87      0.00
    5    0    8    -13.96      0.00
    6    0    8      5.07      0.00
    7    0    8      9.58      0.00
    8    0    8      2.88      0.00
    9    0    8     -7.59      0.00
   10    0    8     -6.80      0.00
   11    0    8      1.08      0.00
   12    0    8     -1.62      0.00
   13    0    8      5.40      0.00
   14    0    8     -0.15      0.00
   15    0    8      0.45      0.00
   16    0    8      5.22      0.00
   17    0    8     -0.82      0.00
   18    0    8     -3.12      0.00
   19    0    8      1.52      0.00
  -14    1    8     -1.57      0.00
  -13    1    8      0.12      0.00
  -12    1    8     -0.74      0.00
  -11    1    8     -0.81      0.00
  -10    1    8     -0.51      0.00
   -9    1    8     -1.47      0.00
   -8    1    8      3.33      0.00
   -7    1    8      0.43      0.00
   -6    1    8     -1.66      0.00
   -5    1    8      8.84      0.00
   -4    1    8     -9.76      0.00
   -3    1    8    -10.36      0.00
   -2    1    8     -8.88      0.00
   -1    1    8     17.00      0.00
    0    1    8     -2.26      0.00
    1    1    8     -1.50      0.00
    2    1    8      8.17      0.00
    3    1    8     -5.04      0.00
    4    1    8      4.18      0.00
    5    1    8      4.33      0.00
    6    1    8      2.48      0.00
    7    1    8      6.52      0.00
    8    1    8      4.05      0.00
    9    1    8     -4.27      0.00
   10    1    8     -6.20      0.00
   11    1    8     -3.12      0.00
   12    1    8      2.00      0.00
   13    1    8      4.12      0.00
   14    1    8      0.40      0.00
   15    1    8     -1.45      0.00
   16    1    8     -0.40      0.00
   17    1    8     -1.41      0.00
   18    1    8      1.84      0.00
   19    1    8      1.94      0.00
  -13    2    8     -0.44      0.00
  -12    2    8      0.33      0.00
  -11    2    8     -2.63      0.00
  -10    2    8     -0.20      0.00
   -9    2    8      1.76      0.00
   -8    2    8     -0.78      0.00
   -7    2    8      2.33      0.00
   -6    2    8     -4.29      0.00
   -5    2    8     12.51      0.00
   -4    2    8     -6.60      0.00
   -3    2    8    -18.64      0.00
   -2    2    8      1.78      0.00
   -1    2    8      7.44      0.00
    0    2    8      6.32      0.00
    1    2    8     -2.02      0.00
    2    2    8     -2.88      0.00
    3    2    8     -8.62      0.00
    4    2    8      1.44      0.00
    5    2    8     16.02      0.00
    6    2    8     13.83      0.00
    7    2    8     -5.07      0.00
    8    2    8      3.74      0.00
    9    2    8     -1.68      0.00
   10    2    8     -2.28      0.00
   11    2    8     -1.70      0.00
   12    2    8     -0.60      0.00
   13    2    8      4.21      0.00
   14    2    8     -1.22      0.00
   15    2    8     -0.75      0.00
   16    2    8     -2.48      0.00
   17    2    8     -0.01      0.00
   18    2    8     -1.10      0.00
   19    2    8      1.40      0.00
   20    2    8      1.33      0.00
  -13    3    8      2.72      0.00
  -12    3    8     -0.84      0.00
  -11    3    8     -0.04      0.00
  -10    3    8     -0.03      0.00
   -9    3    8     -0.63      0.00
   -8    3    8      1.62      0.00
   -7    3    8     -0.10      0.00
   -6    3    8      4.50      0.00
   -5    3    8     -1.50      0.00
   -4    3    8     -8.01      0.00
   -3    3    8      1.59      0.00
   -2    3    8     -4.99      0.00
   -1    3    8      8.10      0.00
    0    3    8     -6.72      0.00
    1    3    8      3.31      0.00
    2    3    8     -3.60      0.00
    3    3    8    -10.33      0.00
    4    3    8      4.76      0.00
    5    3    8      5.93      0.00
    6    3    8     11.68      0.00
    7    3    8      8.72      0.00
    8    3    8      4.93      0.00
    9    3    8     -4.95      0.00
   10    3    8     -3.55      0.00
   11    3    8      4.13      0.00
   12    3    8      0.93      0.00
   13    3    8     -2.22      0.00
   14    3    8     -2.35      0.00
   15    3    8      0.41      0.00
   16    3    8     -1.62      0.00
   17    3    8     -1.30      0.00
   18    3    8     -0.69      0.00
   19    3    8      2.64      0.00
   20    3    8     -1.76      0.00
  -12    4    8      1.58      0.00
  -11    4    8      2.36      0.00
  -10    4    8      1.21      0.00
   -9    4    8     -1.88      0.00
   -8    4    8     -2.87      0.00
   -7    4    8      4.28      0.00
   -6    4    8      3.65      0.00
   -5    4    8     -3.56      0.00
   -4    4    8     -8.90      0.00
   -3    4    8      7.36      0.00
   -2    4    8      2.41      0.00
   -1    4    8     -2.80      0.00
    0    4    8      6.72      0.00
    1    4    8    -16.71      0.00
    2    4    8     -7.18      0.00
    3    4    8      4.96      0.00
    4    4    8      3.72      0.00
    5    4    8     -5.14      0.00
    6    4    8      5.46      0.00
    7    4    8      9.58      0.00
    8    4    8      9.56      0.00
    9    4    8     -2.44      0.00
   10    4    8     -0.05      0.00
   11    4    8      5.14      0.00
   12    4    8      0.42      0.00
   13    4    8     -3.73      0.00
   14    4    8     -2.07      0.00
   15    4    8     -0.35      0.00
   16    4    8     -5.16      0.00
   17    4    8     -0.57      0.00
   18    4    8     -0.33      0.00
   19    4    8      3.79      0.00
   20    4    8     -0.65      0.00
  -12    5    8     -2.20      0.00
  -11    5    8      3.99      0.00
  -10    5    8      1.43      0.00
   -9    5    8      0.56      0.00
   -8    5    8     -0.53      0.00
   -7    5    8     -0.46      0.00
   -6    5    8     -0.78      0.00
   -5    5    8     -4.06      0.00
   -4    5    8      3.09      0.00
   -3    5    8      5.46      0.00
   -2    5    8     -3.67      0.00
   -1    5    8      3.60      0.00
    0    5    8     -0.41      0.00
    1    5    8     -6.87      0.00
    2    5    8    -12.25      0.00
    3    5    8      8.12      0.00
    4    5    8     -1.42      0.00
    5    5    8     -5.17      0.00
    6    5    8      6.11      0.00
    7    5    8     -0.36      0.00
    8    5    8      0.19      0.00
    9    5    8      3.42      0.00
   10    5    8      8.89      0.00
   11    5    8      5.32      0.00
   12    5    8     -3.29      0.00
   13    5    8     -1.60      0.00
   14    5    8     -0.93      0.00
   15    5    8     -0.57      0.00
   16    5    8     -6.25      0.00
   17    5    8     -0.33      0.00
   18    5    8      0.92      0.00
   19    5    8     -2.70      0.00
   20    5    8      1.93      0.00
   21    5    8      2.27      0.00
  -11    6    8     -2.39      0.00
  -10    6    8      3.80      0.00
   -9    6    8      2.47      0.00
   -8    6    8      1.51      0.00
   -7    6    8      0.39      0.00
   -6    6    8     -6.64      0.00
   -5    6    8     -1.06      0.00
   -4    6    8      4.12      0.00
   -3    6    8      7.28      0.00
   -2    6    8     -3.01      0.00
   -1    6    8     -2.83      0.00
    0    6    8      3.69      0.00
    1    6    8    -14.94      0.00
    2    6    8      4.65      0.00
    3    6    8     10.90      0.00
    4    6    8    -10.37      0.00
    5    6    8     -8.45      0.00
    6    6    8     11.97      0.00
    7    6    8     -5.30      0.00
    8    6    8     -7.64      0.00
    9    6    8      6.42      0.00
   10    6    8      4.65      0.00
   11    6    8      2.00      0.00
   12    6    8      2.47      0.00
   13    6    8      1.03      0.00
   14    6    8     -3.57      0.00
   15    6    8     -1.53      0.00
   16    6    8     -1.38      0.00
   17    6    8      1.57      0.00
   18    6    8     -4.22      0.00
   19    6    8     -0.43      0.00
   20    6    8     -0.29      0.00
   21    6    8     -0.47      0.00
  -10    7    8     -0.18      0.00
   -9    7    8      2.24      0.00
   -8    7    8      4.13      0.00
   -7    7    8     -1.26      0.00
   -6    7    8     -1.89      0.00
   -5    7    8      0.91      0.00
   -4    7    8     -0.38      0.00
   -3    7    8      4.43      0.00
   -2    7    8      1.91      0.00
   -1    7    8     -2.18      0.00
    0    7    8     -5.20      0.00
    1    7    8     -6.36      0.00
    2    7    8     -0.93      0.00
    3    7    8     12.42      0.00
    4    7    8     -2.10      0.00
    5    7    8     -5.87      0.00
    6    7    8      0.36      0.00
    7    7    8     -5.89      0.00
    8    7    8     -0.90      0.00
    9    7    8      4.00      0.00
   10    7    8      0.42      0.00
   11    7    8     -1.29      0.00
   12    7    8      0.76      0.00
   13    7    8      4.33      0.00
   14    7    8     -2.25      0.00
   15    7    8     -1.80      0.00
   16    7    8     -1.75      0.00
   17    7    8      1.02      0.00
   18    7    8     -1.12      0.00
   19    7    8     -1.29      0.00
   20    7    8      1.12      0.00
   21    7    8     -4.41      0.00
  -10    8    8      1.20      0.00
   -9    8    8      0.29      0.00
   -8    8    8      2.67      0.00
   -7    8    8      0.77      0.00
   -6    8    8     -0.58      0.00
   -5    8    8      3.33      0.00
   -4    8    8     -2.12      0.00
   -3    8    8      3.08      0.00
   -2    8    8      1.83      0.00
   -1    8    8     -6.57      0.00
    0    8    8     -3.07      0.00
    1    8    8     -2.33      0.00
    2    8    8      1.34      0.00
    3    8    8     -1.54      0.00
    4    8    8      1.19      0.00
    5    8    8      4.98      0.00
    6    8    8     -6.27      0.00
    7    8    8    -10.89      0.00
    8    8    8      3.89      0.00
    9    8    8      2.85      0.00
   10    8    8      0.28      0.00
   11    8    8     -0.11      0.00
   12    8    8     -0.78      0.00
   13    8    8      2.05      0.00
   14    8    8     -1.66      0.00
   15    8    8     -0.11      0.00
   16    8    8     -1.19      0.00
   17    8    8     -0.52      0.00
   18    8    8      0.05      0.00
   19    8    8      0.21      0.00
   20    8    8     -1.69      0.00
   21    8    8     -1.28      0.00
   -9    9    8      3.08      0.00
   -8    9    8      1.68      0.00
   -7    9    8     -1.47      0.00
   -6    9    8      1.38      0.00
   -5    9    8      1.47      0.00
   -4    9    8     -0.48      0.00
   -3    9    8      2.82      0.00
   -2    9    8     -2.47      0.00
   -1    9    8     -8.98      0.00
    0    9    8      1.74      0.00
    1    9    8      4.18      0.00
    2    9    8     -7.94      0.00
    3    9    8     -1.89      0.00
    4    9    8      4.02      0.00
    5    9    8     -5.28      0.00
    6    9    8     -5.20      0.00
    7    9    8      0.51      0.00
    8    9    8     -2.60      0.00
    9    9    8     -0.78      0.00
   10    9    8      1.61      0.00
   11    9    8     -2.09      0.00
   12    9    8      2.46      0.00
   13    9    8      3.57      0.00
   14    9    8     -4.32      0.00
   15    9    8      1.05      0.00
   16    9    8     -0.99      0.00
   17    9    8      2.92      0.00
   18    9    8      0.80      0.00
   19    9    8     -3.59      0.00
   20    9    8      0.61      0.00
   21    9    8     -2.08      0.00
   -8   10    8      2.61      0.00
   -7   10    8      0.99      0.00
   -6   10    8     -1.77      0.00
   -5   10    8      1.80      0.00
   -4   10    8     -0.34      0.00
   -3   10    8     -2.17      0.00
   -2   10    8     -5.47      0.00
   -1   10    8     -1.19      0.00
    0   10    8      4.95      0.00
    1   10    8     -2.74      0.00
    2   10    8     -5.38      0.00
    3   10    8     -2.69      0.00
    4   10    8      1.34      0.00
    5   10    8     -5.11      0.00
    6   10    8     -5.99      0.00
    7   10    8      0.75      0.00
    8   10    8      0.18      0.00
    9   10    8     -3.61      0.00
   10   10    8     -1.80      0.00
   11   10    8     -0.41      0.00
   12   10    8      0.19      0.00
   13   10    8      1.22      0.00
   14   10    8      1.58      0.00
   15   10    8      1.07      0.00
   16   10    8      0.76      0.00
   17   10    8      1.20      0.00
   18   10    8      0.43      0.00
   19   10    8      1.54      0.00
   20   10    8     -0.14      0.00
   21   10    8     -2.83      0.00
   -7   11    8      0.67      0.00
   -6   11    8      1.96      0.00
   -5   11    8     -0.21      0.00
   -4   11    8     -2.65      0.00
   -3   11    8     -4.88      0.00
   -2   11    8     -1.68      0.00
   -1   11    8      0.41      0.00
    0   11    8      0.70      0.00
    1   11    8     -2.65      0.00
    2   11    8      0.31      0.00
    3   11    8     -1.93      0.00
    4   11    8     -2.99      0.00
    5   11    8     -5.20      0.00
    6   11    8     -0.96      0.00
    7   11    8     -0.97      0.00
    8   11    8     -2.96      0.00
    9   11    8     -3.86      0.00
   10   11    8      0.02      0.00
   11   11    8      0.86      0.00
   12   11    8     -4.91      0.00
   13   11    8     -1.18      0.00
   14   11    8      2.92      0.00
   15   11    8      3.26      0.00
   16   11    8      0.77      0.00
   17   11    8      3.38      0.00
   18   11    8     -1.99      0.00
   19   11    8      0.34      0.00
   20   11    8      4.76      0.00
   21   11    8     -1.24      0.00
   -6   12    8      0.85      0.00
   -5   12    8     -1.03      0.00
   -4   12    8     -3.89      0.00
   -3   12    8     -2.25      0.00
   -2   12    8      0.56      0.00
   -1   12    8      0.35      0.00
    0   12    8     -4.43      0.00
    1   12    8     -1.33      0.00
    2   12    8      3.96      0.00
    3   12    8     -1.36      0.00
    4   12    8     -2.21      0.00
    5   12    8     -3.93      0.00
    6   12    8     -2.69      0.00
    7   12    8      2.61      0.00
    8   12    8     -1.97      0.00
    9   12    8     -6.87      0.00
   10   12    8     -0.76      0.00
   11   12    8      0.65      0.00
   12   12    8     -3.43      0.00
   13   12    8     -0.89      0.00
   14   12    8     -1.08      0.00
   15   12    8      1.59      0.00
   16   12    8      1.08      0.00
   17   12    8      2.49      0.00
   18   12    8      2.72      0.00
   19   12    8     -2.21      0.00
   20   12    8      1.06      0.00
   21   12    8      3.79      0.00
   -5   13    8     -1.82      0.00
   -4   13    8     -1.58      0.00
   -3   13    8     -3.90      0.00
   -2   13    8      0.34      0.00
   -1   13    8      3.29      0.00
    0   13    8     -2.26      0.00
    1   13    8     -3.62      0.00
    2   13    8      2.55      0.00
    3   13    8     -2.04      0.00
    4   13    8     -1.32      0.00
    5   13    8      0.12      0.00
    6   13    8     -1.25      0.00
    7   13    8     -0.93      0.00
    8   13    8      1.49      0.00
    9   13    8     -3.96      0.00
   10   13    8     -3.64      0.00
   11   13    8     -0.33      0.00
   12   13    8     -2.20      0.00
   13   13    8     -1.50      0.00
   14   13    8     -1.20      0.00
   15   13    8      0.91      0.00
   16   13    8     -0.92      0.00
   17   13    8     -0.19      0.00
   18   13    8      1.09      0.00
   19   13    8      1.70      0.00
   20   13    8      2.23      0.00
   21   13    8     -0.08      0.00
   -4   14    8      0.24      0.00
   -3   14    8     -2.65      0.00
   -2   14    8     -3.28      0.00
   -1   14    8      3.04      0.00
    0   14    8      0.11      0.00
    1   14    8     -1.67      0.00
    2   14    8      0.67      0.00
    3   14    8     -3.16      0.00
    4   14    8     -0.88      0.00
    5   14    8      2.50      0.00
    6   14    8     -4.16      0.00
    7   14    8      0.84      0.00
    8   14    8     -0.11      0.00
    9   14    8     -3.02      0.00
   10   14    8      3.55      0.00
   11   14    8     -0.64      0.00
   12   14    8     -6.50      0.00
   13   14    8     -0.58      0.00
   14   14    8     -2.52      0.00
   15   14    8      1.86      0.00
   16   14    8      1.26      0.00
   17   14    8     -2.76      0.00
   18   14    8     -1.93      0.00
   19   14    8      1.54      0.00
   20   14    8      4.02      0.00
   21   14    8      0.75      0.00
   -3   15    8      0.81      0.00
   -2   15    8     -0.10      0.00
   -1   15    8     -3.38      0.00
    0   15    8     -0.83      0.00
    1   15    8      3.52      0.00
    2   15    8     -1.49      0.00
    3   15    8     -2.13      0.00
    4   15    8     -1.04      0.00
    5   15    8     -0.33      0.00
    6   15    8     -3.67      0.00
    7   15    8      1.35      0.00
    8   15    8     -1.57      0.00
    9   15    8      0.67      0.00
   10   15    8      2.89      0.00
   11   15    8     -0.42      0.00
   12   15    8     -2.63      0.00
   13   15    8     -2.29      0.00
   14   15    8     -1.17      0.00
   15   15    8      0.20      0.00
   16   15    8      0.51      0.00
   17   15    8     -0.43      0.00
   18   15    8     -0.50      0.00
   19   15    8      0.57      0.00
   20   15    8      1.83      0.00
   21   15    8      1.90      0.00
   -2   16    8      0.61      0.00
   -1   16    8      0.27      0.00
    0   16    8     -1.11      0.00
    1   16    8     -1.21      0.00
    2   16    8      1.93      0.00
    3   16    8      0.98      0.00
    4   16    8     -6.89      0.00
    5   16    8     -2.38      0.00
    6   16    8      0.23      0.00
    7   16    8      1.01      0.00
    8   16    8     -3.42      0.00
    9   16    8      1.79      0.00
   10   16    8      4.36      0.00
   11   16    8     -3.97      0.00
   12   16    8      0.53      0.00
   13   16    8      1.70      0.00
   14   16    8     -3.18      0.00
   15   16    8      1.86      0.00
   16   16    8     -1.29      0.00
   17   16    8     -1.44      0.00
   18   16    8      3.41      0.00
   19   16    8      1.95      0.00
   20   16    8      1.80      0.00
    0   17    8      1.56      0.00
    1   17    8     -0.47      0.00
    2   17    8     -1.31      0.00
    3   17    8      3.08      0.00
    4   17    8     -5.95      0.00
    5   17    8     -1.75      0.00
    6   17    8     -2.08      0.00
    7   17    8     -1.04      0.00
    8   17    8     -1.98      0.00
    9   17    8      0.67      0.00
   10   17    8      0.43      0.00
   11   17    8      2.36      0.00
   12   17    8     -0.67      0.00
   13   17    8      0.97      0.00
   14   17    8      0.09      0.00
   15   17    8     -1.90      0.00
   16   17    8      1.11      0.00
   17   17    8     -1.88      0.00
   18   17    8      4.40      0.00
   19   17    8      5.04      0.00
   20   17    8     -0.03      0.00
    1   18    8      0.54      0.00
    2   18    8      2.58      0.00
    3   18    8     -1.74      0.00
    4   18    8     -4.20      0.00
    5   18    8      4.64      0.00
    6   18    8     -3.53      0.00
    7   18    8     -6.40      0.00
    8   18    8     -1.68      0.00
    9   18    8      2.85      0.00
   10   18    8     -0.77      0.00
   11   18    8     -4.12      0.00
   12   18    8      4.41      0.00
   13   18    8      0.46      0.00
   14   18    8     -1.40      0.00
   15   18    8      0.82      0.00
   16   18    8     -1.92      0.00
   17   18    8      1.50      0.00
   18   18    8      4.20      0.00
   19   18    8      3.06      0.00
    3   19    8      3.69      0.00
    4   19    8     -4.98      0.00
    5   19    8      3.06      0.00
    6   19    8      1.91      0.00
    7   19    8     -3.95      0.00
    8   19    8     -5.13      0.00
    9   19    8     -0.23      0.00
   10   19    8      0.68      0.00
   11   19    8     -1.75      0.00
   12   19    8     -2.68      0.00
   13   19    8      1.43      0.00
   14   19    8      0.06      0.00
   15   19    8     -1.74      0.00
   16   19    8      0.53      0.00
   17   19    8      3.20      0.00
   18   19    8      2.28      0.00
    5   20    8      2.48      0.00
    6   20    8      0.08      0.00
    7   20    8      3.03      0.00
    8   20    8     -1.68      0.00
    9   20    8     -8.16      0.00
   10   20    8     -0.10      0.00
   11   20    8      0.54      0.00
   12   20    8     -0.24      0.00
   13   20    8     -0.25      0.00
   14   20    8     -0.54      0.00
   15   20    8     -3.51      0.00
   16   20    8      0.26      0.00
   17   20    8      2.80      0.00
    8   21    8      0.66      0.00
    9   21    8     -1.43      0.00
   10   21    8     -4.02      0.00
   11   21    8     -3.56      0.00
   12   21    8      2.07      0.00
   13   21    8      1.98      0.00
   14   21    8     -1.63      0.00
   15   21    8     -0.40      0.00
   -8  -21    9      1.95      0.00
   -7  -21    9     -1.57      0.00
   -6  -21    9      5.14      0.00
   -5  -21    9     -1.12      0.00
  -11  -20    9      0.79      0.00
  -10  -20    9      2.32      0.00
   -9  -20    9     -3.58      0.00
   -8  -20    9      1.68      0.00
   -7  -20    9     -0.80      0.00
   -6  -20    9      4.47      0.00
   -5  -20    9     -3.35      0.00
   -4  -20    9      3.37      0.00
   -3  -20    9      1.22      0.00
   -2  -20    9     -3.14      0.00
   -1  -20    9      0.40      0.00
  -13  -19    9      0.84      0.00
  -12  -19    9     -2.22      0.00
  -11  -19    9      1.08      0.00
  -10  -19    9      0.15      0.00
   -9  -19    9     -0.64      0.00
   -8  -19    9     -0.19      0.00
   -7  -19    9     -2.40      0.00
   -6  -19    9      3.13      0.00
   -5  -19    9     -2.14      0.00
   -4  -19    9      2.69      0.00
   -3  -19    9      0.42      0.00
   -2  -19    9     -2.99      0.00
   -1  -19    9     -1.71      0.00
    0  -19    9     -1.39      0.00
    1  -19    9      2.12      0.00
  -14  -18    9      0.53      0.00
  -13  -18    9      1.82      0.00
  -12  -18    9     -1.45      0.00
  -11  -18    9     -2.52      0.00
  -10  -18    9      0.86      0.00
   -9  -18    9     -2.05      0.00
   -8  -18    9      2.03      0.00
   -7  -18    9     -2.29      0.00
   -6  -18    9      1.42      0.00
   -5  -18    9     -2.05      0.00
   -4  -18    9      1.40      0.00
   -3  -18    9     -0.56      0.00
   -2  -18    9     -4.18      0.00
   -1  -18    9     -0.96      0.00
    0  -18    9     -4.43      0.00
    1  -18    9      3.27      0.00
    2  -18    9      2.08      0.00
    3  -18    9      0.60      0.00
  -14  -17    9      1.74      0.00
  -13  -17    9      2.75      0.00
  -12  -17    9     -4.26      0.00
  -11  -17    9      1.66      0.00
  -10  -17    9     -2.89      0.00
   -9  -17    9     -2.59      0.00
   -8  -17    9     -0.36      0.00
   -7  -17    9      1.74      0.00
   -6  -17    9     -0.53      0.00
   -5  -17    9     -1.37      0.00
   -4  -17    9     -0.09      0.00
   -3  -17    9     -3.05      0.00
   -2  -17    9      0.96      0.00
   -1  -17    9     -1.76      0.00
    0  -17    9     -6.63      0.00
    1  -17    9     -1.13      0.00
    2  -17    9      3.20      0.00
    3  -17    9      0.34      0.00
    4  -17    9      1.85      0.00
    5  -17    9      1.62      0.00
  -15  -16    9      1.12      0.00
  -14  -16    9      0.26      0.00
  -13  -16    9     -0.85      0.00
  -12  -16    9     -1.14      0.00
  -11  -16    9      2.63      0.00
  -10  -16    9     -0.83      0.00
   -9  -16    9     -3.61      0.00
   -8  -16    9      0.14      0.00
   -7  -16    9     -3.42      0.00
   -6  -16    9      0.63      0.00
   -5  -16    9     -1.02      0.00
   -4  -16    9     -2.58      0.00
   -3  -16    9      1.52      0.00
   -2  -16    9      0.35      0.00
   -1  -16    9     -1.22      0.00
    0  -16    9     -4.66      0.00
    1  -16    9     -1.57      0.00
    2  -16    9     -1.19      0.00
    3  -16    9     -1.97      0.00
    4  -16    9      1.03      0.00
    5  -16    9      1.78      0.00
    6  -16    9     -0.26      0.00
  -15  -15    9      1.20      0.00
  -14  -15    9     -0.18      0.00
  -13  -15    9     -0.46      0.00
  -12  -15    9     -0.83      0.00
  -11  -15    9      1.55      0.00
  -10  -15    9     -0.74      0.00
   -9  -15    9      2.85      0.00
   -8  -15    9     -2.56      0.00
   -7  -15    9     -2.13      0.00
   -6  -15    9     -3.23      0.00
   -5  -15    9     -2.88      0.00
   -4  -15    9     -0.19      0.00
   -3  -15    9      3.23      0.00
   -2  -15    9      0.89      0.00
   -1  -15    9     -2.99      0.00
    0  -15    9     -0.84      0.00
    1  -15    9     -3.38      0.00
    2  -15    9     -4.50      0.00
    3  -15    9     -0.97      0.00
    4  -15    9      2.35      0.00
    5  -15    9     -1.75      0.00
    6  -15    9      1.75      0.00
    7  -15    9      0.76      0.00
  -16  -14    9     -1.06      0.00
  -15  -14    9     -0.20      0.00
  -14  -14    9      0.36      0.00
  -13  -14    9      0.15      0.00
  -12  -14    9      0.15      0.00
  -11  -14    9     -1.25      0.00
  -10  -14    9     -0.80      0.00
   -9  -14    9      1.70      0.00
   -8  -14    9      0.60      0.00
   -7  -14    9     -2.12      0.00
   -6  -14    9      0.54      0.00
   -5  -14    9     -4.13      0.00
   -4  -14    9     -1.64      0.00
   -3  -14    9      3.99      0.00
   -2  -14    9     -2.74      0.00
   -1  -14    9      2.40      0.00
    0  -14    9     -0.25      0.00
    1  -14    9     -9.05      0.00
    2  -14    9     -2.55      0.00
    3  -14    9     -0.12      0.00
    4  -14    9      1.72      0.00
    5  -14    9     -1.87      0.00
    6  -14    9     -0.02      0.00
    7  -14    9      4.44      0.00
    8  -14    9     -3.71      0.00
    9  -14    9     -1.92      0.00
  -16  -13    9     -2.43      0.00
  -15  -13    9     -0.32      0.00
  -14  -13    9      1.29      0.00
  -13  -13    9     -0.04      0.00
  -12  -13    9     -1.43      0.00
  -11  -13    9     -0.48      0.00
  -10  -13    9     -2.83      0.00
   -9  -13    9      1.17      0.00
   -8  -13    9     -1.09      0.00
   -7  -13    9     -1.72      0.00
   -6  -13    9      2.90      0.00
   -5  -13    9      2.59      0.00
   -4  -13    9     -2.60      0.00
   -3  -13    9     -4.28      0.00
   -2  -13    9      0.14      0.00
   -1  -13    9     -0.10      0.00
    0  -13    9      2.95      0.00
    1  -13    9     -3.77      0.00
    2  -13    9     -3.63      0.00
    3  -13    9     -3.73      0.00
    4  -13    9     -1.87      0.00
    5  -13    9     -1.59      0.00
    6  -13    9      2.80      0.00
    7  -13    9      1.58      0.00
    8  -13    9     -0.84      0.00
    9  -13    9     -2.92      0.00
   10  -13    9     -1.05      0.00
  -16  -12    9     -1.80      0.00
  -15  -12    9     -0.99      0.00
  -14  -12    9     -0.21      0.00
  -13  -12    9      1.17      0.00
  -12  -12    9     -1.47      0.00
  -11  -12    9     -2.00      0.00
  -10  -12    9     -1.35      0.00
   -9  -12    9      1.41      0.00
   -8  -12    9     -1.36      0.00
   -7  -12    9     -3.22      0.00
   -6  -12    9      3.15      0.00
   -5  -12    9      0.35      0.00
   -4  -12    9      0.46      0.00
   -3  -12    9      1.37      0.00
   -2  -12    9     -6.85      0.00
   -1  -12    9     -0.46      0.00
    0  -12    9      0.87      0.00
    1  -12    9      0.06      0.00
    2  -12    9     -0.50      0.00
    3  -12    9     -4.35      0.00
    4  -12    9      0.59      0.00
    5  -12    9     -5.17      0.00
    6  -12    9      0.91      0.00
    7  -12    9      0.31      0.00
    8  -12    9     -5.11      0.00
    9  -12    9      4.07      0.00
   10  -12    9     -2.22      0.00
   11  -12    9     -1.55      0.00
  -16  -11    9      0.45      0.00
  -15  -11    9     -1.27      0.00
  -14  -11    9     -1.60      0.00
  -13  -11    9     -0.81      0.00
  -12  -11    9     -1.89      0.00
  -11  -11    9      1.24      0.00
  -10  -11    9     -0.27      0.00
   -9  -11    9      0.12      0.00
   -8  -11    9     -1.30      0.00
   -7  -11    9      1.39      0.00
   -6  -11    9     -0.39      0.00
   -5  -11    9     -1.42      0.00
   -4  -11    9     -1.92      0.00
   -3  -11    9      2.69      0.00
   -2  -11    9      2.64      0.00
   -1  -11    9     -3.49      0.00
    0  -11    9     -4.43      0.00
    1  -11    9     -5.38      0.00
    2  -11    9      1.71      0.00
    3  -11    9      0.95      0.00
    4  -11    9      5.11      0.00
    5  -11    9     -4.60      0.00
    6  -11    9     -2.75      0.00
    7  -11    9     -1.89      0.00
    8  -11    9     -1.88      0.00
    9  -11    9     -3.84      0.00
   10  -11    9     -0.90      0.00
   11  -11    9      4.26      0.00
   12  -11    9     -1.26      0.00
  -16  -10    9      0.14      0.00
  -15  -10    9     -1.23      0.00
  -14  -10    9     -0.90      0.00
  -13  -10    9     -2.22      0.00
  -12  -10    9     -1.63      0.00
  -11  -10    9      2.56      0.00
  -10  -10    9      1.29      0.00
   -9  -10    9     -0.08      0.00
   -8  -10    9     -4.44      0.00
   -7  -10    9      2.58      0.00
   -6  -10    9      3.95      0.00
   -5  -10    9     -0.83      0.00
   -4  -10    9     -4.97      0.00
   -3  -10    9      1.39      0.00
   -2  -10    9      2.83      0.00
   -1  -10    9      2.55      0.00
    0  -10    9     -7.80      0.00
    1  -10    9     -5.02      0.00
    2  -10    9     -0.10      0.00
    3  -10    9     -4.96      0.00
    4  -10    9      6.34      0.00
    5  -10    9      2.98      0.00
    6  -10    9     -7.29      0.00
    7  -10    9      0.18      0.00
    8  -10    9      4.46      0.00
    9  -10    9     -8.82      0.00
   10  -10    9     -4.80      0.00
   11  -10    9      5.53      0.00
   12  -10    9     -1.74      0.00
  -16   -9    9      0.29      0.00
  -15   -9    9     -3.28      0.00
  -14   -9    9     -1.89      0.00
  -13   -9    9      0.12      0.00
  -12   -9    9     -0.26      0.00
  -11   -9    9      0.96      0.00
  -10   -9    9      0.20      0.00
   -9   -9    9      0.57      0.00
   -8   -9    9     -1.17      0.00
   -7   -9    9      0.74      0.00
   -6   -9    9     -0.31      0.00
   -5   -9    9      2.20      0.00
   -4   -9    9     -5.47      0.00
   -3   -9    9      7.24      0.00
   -2   -9    9     -0.15      0.00
   -1   -9    9     -1.88      0.00
    0   -9    9     -4.79      0.00
    1   -9    9      0.84      0.00
    2   -9    9     -1.63      0.00
    3   -9    9    -13.91      0.00
    4   -9    9     10.14      0.00
    5   -9    9     -3.71      0.00
    6   -9    9     -2.58      0.00
    7   -9    9      0.84      0.00
    8   -9    9     -1.55      0.00
    9   -9    9     -1.78      0.00
   10   -9    9      3.70      0.00
   11   -9    9     -2.66      0.00
   12   -9    9     -7.07      0.00
   13   -9    9      1.07      0.00
  -16   -8    9      1.58      0.00
  -15   -8    9     -1.74      0.00
  -14   -8    9     -1.70      0.00
  -13   -8    9     -1.43      0.00
  -12   -8    9      1.69      0.00
  -11   -8    9      0.04      0.00
  -10   -8    9     -0.42      0.00
   -9   -8    9     -3.44      0.00
   -8   -8    9      2.16      0.00
   -7   -8    9      9.13      0.00
   -6   -8    9     -7.13      0.00
   -5   -8    9     -6.71      0.00
   -4   -8    9      3.70      0.00
   -3   -8    9      6.43      0.00
   -2   -8    9     -3.70      0.00
   -1   -8    9      3.81      0.00
    0   -8    9     -6.81      0.00
    1   -8    9     -0.60      0.00
    2   -8    9      1.05      0.00
    3   -8    9     -7.70      0.00
    4   -8    9      3.51      0.00
    5   -8    9     -8.39      0.00
    6   -8    9     -4.46      0.00
    7   -8    9      2.17      0.00
    8   -8    9     -3.42      0.00
    9   -8    9     -2.79      0.00
   10   -8    9      5.42      0.00
   11   -8    9      4.13      0.00
   12   -8    9     -8.15      0.00
   13   -8    9     -3.68      0.00
   14   -8    9      2.45      0.00
  -16   -7    9      2.50      0.00
  -15   -7    9     -1.14      0.00
  -14   -7    9      1.13      0.00
  -13   -7    9     -1.73      0.00
  -12   -7    9     -1.11      0.00
  -11   -7    9      4.04      0.00
  -10   -7    9     -0.50      0.00
   -9   -7    9     -5.15      0.00
   -8   -7    9     -0.24      0.00
   -7   -7    9      8.51      0.00
   -6   -7    9     -1.45      0.00
   -5   -7    9     -2.20      0.00
   -4   -7    9      0.01      0.00
   -3   -7    9      1.32      0.00
   -2   -7    9     -7.18      0.00
   -1   -7    9      6.00      0.00
    0   -7    9     -1.51      0.00
    1   -7    9     -0.87      0.00
    2   -7    9      1.77      0.00
    3   -7    9      0.56      0.00
    4   -7    9     -1.69      0.00
    5   -7    9    -17.08      0.00
    6   -7    9      5.15      0.00
    7   -7    9     -8.69      0.00
    8   -7    9      3.84      0.00
    9   -7    9     -2.83      0.00
   10   -7    9     -0.43      0.00
   11   -7    9      1.60      0.00
   12   -7    9     -1.68      0.00
   13   -7    9      0.70      0.00
   14   -7    9     -1.33      0.00
   15   -7    9     -0.25      0.00
  -16   -6    9     -1.36      0.00
  -15   -6    9     -0.46      0.00
  -14   -6    9      0.12      0.00
  -13   -6    9      0.47      0.00
  -12   -6    9     -0.03      0.00
  -11   -6    9     -0.38      0.00
  -10   -6    9      1.16      0.00
   -9   -6    9     -0.91      0.00
   -8   -6    9      0.93      0.00
   -7   -6    9      1.52      0.00
   -6   -6    9     -2.16      0.00
   -5   -6    9      6.56      0.00
   -4   -6    9      6.04      0.00
   -3   -6    9     -6.84      0.00
   -2   -6    9    -10.56      0.00
   -1   -6    9      9.46      0.00
    0   -6    9     -4.44      0.00
    1   -6    9      2.31      0.00
    2   -6    9      8.52      0.00
    3   -6    9     -4.44      0.00
    4   -6    9     -4.55      0.00
    5   -6    9     -5.37      0.00
    6   -6    9     -0.35      0.00
    7   -6    9     -6.43      0.00
    8   -6    9      0.44      0.00
    9   -6    9      1.23      0.00
   10   -6    9     -1.17      0.00
   11   -6    9     -4.08      0.00
   12   -6    9     -1.76      0.00
   13   -6    9      2.99      0.00
   14   -6    9      0.10      0.00
   15   -6    9      1.54      0.00
   16   -6    9      1.25      0.00
  -15   -5    9     -3.04      0.00
  -14   -5    9      0.00      0.00
  -13   -5    9      1.05      0.00
  -12   -5    9      1.72      0.00
  -11   -5    9     -3.18      0.00
  -10   -5    9     -2.50      0.00
   -9   -5    9      1.48      0.00
   -8   -5    9      3.71      0.00
   -7   -5    9      1.85      0.00
   -6   -5    9     -4.96      0.00
   -5   -5    9      6.03      0.00
   -4   -5    9      5.47      0.00
   -3   -5    9      0.32      0.00
   -2   -5    9     -7.80      0.00
   -1   -5    9      3.25      0.00
    0   -5    9     -0.84      0.00
    1   -5    9      1.56      0.00
    2   -5    9      6.56      0.00
    3   -5    9     -4.35      0.00
    4   -5    9     -4.71      0.00
    5   -5    9     -1.46      0.00
    6   -5    9      8.74      0.00
    7   -5    9    -11.32      0.00
    8   -5    9      3.36      0.00
    9   -5    9      1.55      0.00
   10   -5    9     -2.93      0.00
   11   -5    9     -9.54      0.00
   12   -5    9      4.37      0.00
   13   -5    9      1.69      0.00
   14   -5    9     -3.95      0.00
   15   -5    9      5.48      0.00
   16   -5    9      2.68      0.00
  -15   -4    9     -0.95      0.00
  -14   -4    9     -1.62      0.00
  -13   -4    9      2.31      0.00
  -12   -4    9     -1.42      0.00
  -11   -4    9     -0.83      0.00
  -10   -4    9     -0.07      0.00
   -9   -4    9     -1.09      0.00
   -8   -4    9     -1.18      0.00
   -7   -4    9      0.19      0.00
   -6   -4    9      2.80      0.00
   -5   -4    9      2.39      0.00
   -4   -4    9      4.73      0.00
   -3   -4    9     -3.65      0.00
   -2   -4    9     -4.50      0.00
   -1   -4    9      6.53      0.00
    0   -4    9     -2.02      0.00
    1   -4    9     10.69      0.00
    2   -4    9     -5.61      0.00
    3   -4    9     -3.85      0.00
    4   -4    9      0.11      0.00
    5   -4    9     -5.16      0.00
    6   -4    9     13.02      0.00
    7   -4    9     -2.15      0.00
    8   -4    9      1.05      0.00
    9   -4    9      1.93      0.00
   10   -4    9    -10.91      0.00
   11   -4    9     -2.59      0.00
   12   -4    9      1.93      0.00
   13   -4    9      1.45      0.00
   14   -4    9     -0.63      0.00
   15   -4    9      1.30      0.00
   16   -4    9      0.61      0.00
   17   -4    9      0.37      0.00
  -15   -3    9     -0.23      0.00
  -14   -3    9     -0.45      0.00
  -13   -3    9      0.95      0.00
  -12   -3    9     -2.85      0.00
  -11   -3    9     -0.46      0.00
  -10   -3    9      2.52      0.00
   -9   -3    9     -0.75      0.00
   -8   -3    9     -0.12      0.00
   -7   -3    9     -3.52      0.00
   -6   -3    9      0.61      0.00
   -5   -3    9      7.69      0.00
   -4   -3    9     -0.19      0.00
   -3   -3    9     -1.03      0.00
   -2   -3    9    -12.36      0.00
   -1   -3    9      5.55      0.00
    0   -3    9     10.38      0.00
    1   -3    9      2.82      0.00
    2   -3    9     -5.49      0.00
    3   -3    9     -1.20      0.00
    4   -3    9     -2.52      0.00
    5   -3    9     -6.82      0.00
    6   -3    9     17.23      0.00
    7   -3    9      1.27      0.00
    8   -3    9      3.91      0.00
    9   -3    9     -4.83      0.00
   10   -3    9     -6.40      0.00
   11   -3    9     -3.30      0.00
   12   -3    9      2.14      0.00
   13   -3    9      0.25      0.00
   14   -3    9     -2.43      0.00
   15   -3    9      3.80      0.00
   16   -3    9     -2.27      0.00
   17   -3    9     -1.65      0.00
  -15   -2    9      1.74      0.00
  -14   -2    9     -0.94      0.00
  -13   -2    9     -0.07      0.00
  -12   -2    9     -0.26      0.00
  -11   -2    9     -1.66      0.00
  -10   -2    9     -2.09      0.00
   -9   -2    9      1.19      0.00
   -8   -2    9      2.30      0.00
   -7   -2    9      2.54      0.00
   -6   -2    9     -1.21      0.00
   -5   -2    9     -2.11      0.00
   -4   -2    9      5.32      0.00
   -3   -2    9     -4.48      0.00
   -2   -2    9     -1.62      0.00
   -1   -2    9      3.96      0.00
    0   -2    9      1.02      0.00
    1   -2    9      1.83      0.00
    2   -2    9    -15.22      0.00
    3   -2    9     16.27      0.00
    4   -2    9     -3.79      0.00
    5   -2    9    -14.74      0.00
    6   -2    9     17.48      0.00
    7   -2    9      6.73      0.00
    8   -2    9     -1.51      0.00
    9   -2    9     -1.87      0.00
   10   -2    9     -1.96      0.00
   11   -2    9     -1.60      0.00
   12   -2    9     -4.48      0.00
   13   -2    9      3.66      0.00
   14   -2    9     -3.02      0.00
   15   -2    9      2.07      0.00
   16   -2    9     -2.77      0.00
   17   -2    9     -1.60      0.00
   18   -2    9      1.48      0.00
  -14   -1    9     -1.64      0.00
  -13   -1    9      3.10      0.00
  -12   -1    9     -0.63      0.00
  -11   -1    9     -1.26      0.00
  -10   -1    9     -2.27      0.00
   -9   -1    9     -1.54      0.00
   -8   -1    9      2.62      0.00
   -7   -1    9     -1.47      0.00
   -6   -1    9      5.94      0.00
   -5   -1    9     -0.92      0.00
   -4   -1    9     -5.29      0.00
   -3   -1    9      1.86      0.00
   -2   -1    9      2.00      0.00
   -1   -1    9     16.00      0.00
    0   -1    9     -6.77      0.00
    1   -1    9     -9.78      0.00
    2   -1    9    -11.98      0.00
    3   -1    9     12.46      0.00
    4   -1    9      3.07      0.00
    5   -1    9    -14.22      0.00
    6   -1    9     17.22      0.00
    7   -1    9     -0.39      0.00
    8   -1    9     -4.20      0.00
    9   -1    9      0.10      0.00
   10   -1    9      4.25      0.00
   11   -1    9     -3.78      0.00
   12   -1    9      1.89      0.00
   13   -1    9     -0.58      0.00
   14   -1    9     -0.99      0.00
   15   -1    9      2.25      0.00
   16   -1    9     -6.48      0.00
   17   -1    9     -2.64      0.00
   18   -1    9      3.43      0.00
  -14    0    9     -0.53      0.00
  -13    0    9      2.85      0.00
  -12    0    9     -0.70      0.00
  -11    0    9     -1.64      0.00
  -10    0    9      0.77      0.00
   -9    0    9     -1.05      0.00
   -8    0    9      0.52      0.00
   -7    0    9     -4.85      0.00
   -6    0    9     -0.80      0.00
   -5    0    9      7.57      0.00
   -4    0    9     -4.96      0.00
   -3    0    9     -5.24      0.00
   -2    0    9     15.73      0.00
   -1    0    9      5.19      0.00
    0    0    9     -2.38      0.00
    1    0    9     -4.48      0.00
    2    0    9    -11.22      0.00
    3    0    9      7.73      0.00
    4    0    9     -7.49      0.00
    5    0    9      3.72      0.00
    6    0    9     11.49      0.00
    7    0    9     -4.47      0.00
    8    0    9    -10.54      0.00
    9    0    9      0.86      0.00
   10    0    9      4.86      0.00
   11    0    9      2.53      0.00
   12    0    9      1.78      0.00
   13    0    9      1.21      0.00
   14    0    9     -2.60      0.00
   15    0    9      2.19      0.00
   16    0    9     -4.78      0.00
   17    0    9     -1.08      0.00
   18    0    9      0.53      0.00
   19    0    9      1.00      0.00
  -13    1    9      0.64      0.00
  -12    1    9     -2.57      0.00
  -11    1    9      1.55      0.00
  -10    1    9     -1.80      0.00
   -9    1    9      0.75      0.00
   -8    1    9      1.23      0.00
   -7    1    9     -5.78      0.00
   -6    1    9      3.29      0.00
   -5    1    9     -5.97      0.00
   -4    1    9     -4.67      0.00
   -3    1    9      7.75      0.00
   -2    1    9     14.50      0.00
   -1    1    9      1.24      0.00
    0    1    9    -18.26      0.00
    1    1    9     12.55      0.00
    2    1    9     -8.72      0.00
    3    1    9      2.97      0.00
    4    1    9      5.45      0.00
    5    1    9     -1.28      0.00
    6    1    9      1.00      0.00
    7    1    9     -6.74      0.00
    8    1    9     -0.50      0.00
    9    1    9     -4.14      0.00
   10    1    9      5.35      0.00
   11    1    9      3.41      0.00
   12    1    9      3.83      0.00
   13    1    9     -2.61      0.00
   14    1    9     -1.52      0.00
   15    1    9      0.82      0.00
   16    1    9      1.22      0.00
   17    1    9      0.03      0.00
   18    1    9      0.62      0.00
   19    1    9     -1.78      0.00
  -13    2    9     -1.07      0.00
  -12    2    9     -1.67      0.00
  -11    2    9     -0.23      0.00
  -10    2    9      2.04      0.00
   -9    2    9     -2.38      0.00
   -8    2    9     -0.59      0.00
   -7    2    9     -2.63      0.00
   -6    2    9      4.44      0.00
   -5    2    9     -5.91      0.00
   -4    2    9    -11.34      0.00
   -3    2    9     14.06      0.00
   -2    2    9     14.20      0.00
   -1    2    9     -5.83      0.00
    0    2    9     -7.31      0.00
    1    2    9     -1.87      0.00
    2    2    9     -1.74      0.00
    3    2    9      4.07      0.00
    4    2    9     15.60      0.00
    5    2    9      0.67      0.00
    6    2    9    -14.03      0.00
    7    2    9     -4.00      0.00
    8    2    9      0.30      0.00
    9    2    9      4.69      0.00
   10    2    9      0.99      0.00
   11    2    9      2.27      0.00
   12    2    9      1.59      0.00
   13    2    9     -0.28      0.00
   14    2    9     -1.54      0.00
   15    2    9      1.04      0.00
   16    2    9      1.80      0.00
   17    2    9      0.21      0.00
   18    2    9      0.23      0.00
   19    2    9     -0.28      0.00
   20    2    9     -2.88      0.00
  -12    3    9     -2.84      0.00
  -11    3    9      0.41      0.00
  -10    3    9     -0.83      0.00
   -9    3    9      1.49      0.00
   -8    3    9     -0.81      0.00
   -7    3    9     -1.66      0.00
   -6    3    9     -1.44      0.00
   -5    3    9     -5.02      0.00
   -4    3    9      5.55      0.00
   -3    3    9      3.14      0.00
   -2    3    9      1.38      0.00
   -1    3    9      1.30      0.00
    0    3    9     -5.97      0.00
    1    3    9      8.57      0.00
    2    3    9     -9.78      0.00
    3    3    9     10.67      0.00
    4    3    9      4.30      0.00
    5    3    9      5.03      0.00
    6    3    9     -4.71      0.00
    7    3    9     -5.26      0.00
    8    3    9     -0.73      0.00
    9    3    9     -2.83      0.00
   10    3    9      9.64      0.00
   11    3    9     -0.66      0.00
   12    3    9     -1.59      0.00
   13    3    9      0.15      0.00
   14    3    9      4.09      0.00
   15    3    9     -0.01      0.00
   16    3    9      0.25      0.00
   17    3    9     -0.59      0.00
   18    3    9      2.54      0.00
   19    3    9     -5.04      0.00
   20    3    9     -0.21      0.00
  -12    4    9      0.52      0.00
  -11    4    9     -1.11      0.00
  -10    4    9     -2.51      0.00
   -9    4    9     -1.08      0.00
   -8    4    9      4.82      0.00
   -7    4    9     -0.17      0.00
   -6    4    9     -3.85      0.00
   -5    4    9     -4.00      0.00
   -4    4    9      9.11      0.00
   -3    4    9      3.77      0.00
   -2    4    9     -7.69      0.00
   -1    4    9      0.97      0.00
    0    4    9     -3.20      0.00
    1    4    9      4.03      0.00
    2    4    9     11.90      0.00
    3    4    9     -0.01      0.00
    4    4    9     -0.69      0.00
    5    4    9     -0.28      0.00
    6    4    9      5.14      0.00
    7    4    9      1.27      0.00
    8    4    9     -5.34      0.00
    9    4    9      1.10      0.00
   10    4    9      2.73      0.00
   11    4    9      0.82      0.00
   12    4    9     -3.70      0.00
   13    4    9      1.39      0.00
   14    4    9      3.14      0.00
   15    4    9     -1.07      0.00
   16    4    9      2.91      0.00
   17    4    9      1.17      0.00
   18    4    9     -0.47      0.00
   19    4    9     -0.92      0.00
   20    4    9     -4.28      0.00
  -11    5    9      0.38      0.00
  -10    5    9     -2.40      0.00
   -9    5    9     -0.15      0.00
   -8    5    9     -0.30      0.00
   -7    5    9      0.62      0.00
   -6    5    9      0.87      0.00
   -5    5    9      1.42      0.00
   -4    5    9      5.18      0.00
   -3    5    9     -3.27      0.00
   -2    5    9     -5.10      0.00
   -1    5    9      4.19      0.00
    0    5    9     -5.98      0.00
    1    5    9      5.95      0.00
    2    5    9      7.81      0.00
    3    5    9      6.75      0.00
    4    5    9     -6.51      0.00
    5    5    9      5.59      0.00
    6    5    9     -2.02      0.00
    7    5    9      1.45      0.00
    8    5    9      1.69      0.00
    9    5    9      4.75      0.00
   10    5    9      2.73      0.00
   11    5    9     -7.65      0.00
   12    5    9     -0.42      0.00
   13    5    9     -0.29      0.00
   14    5    9      1.82      0.00
   15    5    9     -3.03      0.00
   16    5    9      4.77      0.00
   17    5    9      0.54      0.00
   18    5    9      0.11      0.00
   19    5    9     -0.85      0.00
   20    5    9      0.54      0.00
   21    5    9     -4.56      0.00
  -10    6    9      0.06      0.00
   -9    6    9     -1.18      0.00
   -8    6    9     -0.69      0.00
   -7    6    9     -2.89      0.00
   -6    6    9      1.04      0.00
   -5    6    9      6.41      0.00
   -4    6    9      3.63      0.00
   -3    6    9     -7.29      0.00
   -2    6    9     -4.80      0.00
   -1    6    9      6.26      0.00
    0    6    9     -3.70      0.00
    1    6    9      3.01      0.00
    2    6    9     15.32      0.00
    3    6    9     -7.75      0.00
    4    6    9     -5.07      0.00
    5    6    9     12.12      0.00
    6    6    9      0.51      0.00
    7    6    9     -9.86      0.00
    8    6    9     10.04      0.00
    9    6    9      4.99      0.00
   10    6    9     -4.17      0.00
   11    6    9      2.00      0.00
   12    6    9     -2.86      0.00
   13    6    9     -2.79      0.00
   14    6    9     -1.07      0.00
   15    6    9      0.66      0.00
   16    6    9      2.33      0.00
   17    6    9     -3.08      0.00
   18    6    9      1.62      0.00
   19    6    9      1.35      0.00
   20    6    9     -1.76      0.00
   21    6    9      1.98      0.00
  -10    7    9     -1.05      0.00
   -9    7    9     -0.69      0.00
   -8    7    9     -1.03      0.00
   -7    7    9     -3.49      0.00
   -6    7    9      3.84      0.00
   -5    7    9     -0.03      0.00
   -4    7    9      0.50      0.00
   -3    7    9     -0.98      0.00
   -2    7    9     -3.04      0.00
   -1    7    9      1.77      0.00
    0    7    9     -3.43      0.00
    1    7    9      9.48      0.00
    2    7    9      6.04      0.00
    3    7    9     -0.50      0.00
    4    7    9     -5.99      0.00
    5    7    9      4.18      0.00
    6    7    9      0.35      0.00
    7    7    9      3.92      0.00
    8    7    9      2.48      0.00
    9    7    9     -0.40      0.00
   10    7    9     -1.93      0.00
   11    7    9     -0.23      0.00
   12    7    9      2.88      0.00
   13    7    9     -3.92      0.00
   14    7    9     -1.94      0.00
   15    7    9     -1.23      0.00
   16    7    9      1.62      0.00
   17    7    9     -1.70      0.00
   18    7    9     -0.19      0.00
   19    7    9      0.59      0.00
   20    7    9      0.90      0.00
   21    7    9     -0.56      0.00
   -9    8    9     -0.70      0.00
   -8    8    9     -1.89      0.00
   -7    8    9     -0.39      0.00
   -6    8    9      0.90      0.00
   -5    8    9     -1.22      0.00
   -4    8    9     -2.00      0.00
   -3    8    9      0.99      0.00
   -2    8    9     -2.17      0.00
   -1    8    9      0.89      0.00
    0    8    9      4.51      0.00
    1    8    9      1.82      0.00
    2    8    9      3.20      0.00
    3    8    9     -0.89      0.00
    4    8    9      5.47      0.00
    5    8    9     -3.32      0.00
    6    8    9     -1.02      0.00
    7    8    9      6.31      0.00
    8    8    9      6.49      0.00
    9    8    9     -4.45      0.00
   10    8    9     -2.35      0.00
   11    8    9     -0.21      0.00
   12    8    9      0.51      0.00
   13    8    9     -1.86      0.00
   14    8    9     -1.78      0.00
   15    8    9     -0.90      0.00
   16    8    9     -0.68      0.00
   17    8    9     -1.79      0.00
   18    8    9      0.30      0.00
   19    8    9     -0.16      0.00
   20    8    9     -0.87      0.00
   21    8    9      2.11      0.00
   -8    9    9     -1.76      0.00
   -7    9    9     -2.19      0.00
   -6    9    9      1.87      0.00
   -5    9    9     -3.00      0.00
   -4    9    9      1.44      0.00
   -3    9    9     -1.57      0.00
   -2    9    9     -3.16      0.00
   -1    9    9      5.03      0.00
    0    9    9      6.43      0.00
    1    9    9     -1.91      0.00
    2    9    9     -2.46      0.00
    3    9    9      7.12      0.00
    4    9    9     -1.93      0.00
    5    9    9      0.93      0.00
    6    9    9      6.70      0.00
    7    9    9      2.10      0.00
    8    9    9     -0.23      0.00
    9    9    9      2.19      0.00
   10    9    9     -2.94      0.00
   11    9    9      1.35      0.00
   12    9    9      0.00      0.00
   13    9    9     -5.09      0.00
   14    9    9     -0.37      0.00
   15    9    9     -1.35      0.00
   16    9    9      0.45      0.00
   17    9    9     -3.47      0.00
   18    9    9     -2.41      0.00
   19    9    9     -0.72      0.00
   20    9    9      0.38      0.00
   21    9    9      1.19      0.00
   -7   10    9     -3.15      0.00
   -6   10    9     -0.98      0.00
   -5   10    9      0.53      0.00
   -4   10    9     -1.37      0.00
   -3   10    9      0.75      0.00
   -2   10    9      1.33      0.00
   -1   10    9      4.16      0.00
    0   10    9     -0.31      0.00
    1   10    9     -2.59      0.00
    2   10    9      3.40      0.00
    3   10    9      0.65      0.00
    4   10    9      2.52      0.00
    5   10    9     -1.54      0.00
    6   10    9      7.99      0.00
    7   10    9      2.50      0.00
    8   10    9     -0.44      0.00
    9   10    9     -0.66      0.00
   10   10    9      2.49      0.00
   11   10    9      0.30      0.00
   12   10    9     -0.28      0.00
   13   10    9     -0.98      0.00
   14   10    9     -2.46      0.00
   15   10    9     -2.20      0.00
   16   10    9     -2.51      0.00
   17   10    9     -2.77      0.00
   18   10    9     -1.28      0.00
   19   10    9     -2.29      0.00
   20   10    9     -2.03      0.00
   21   10    9      1.29      0.00
   -7   11    9     -0.08      0.00
   -6   11    9     -0.33      0.00
   -5   11    9     -4.60      0.00
   -4   11    9      1.80      0.00
   -3   11    9      0.68      0.00
   -2   11    9      3.87      0.00
   -1   11    9      1.23      0.00
    0   11    9     -1.04      0.00
    1   11    9     -0.26      0.00
    2   11    9      0.75      0.00
    3   11    9     -0.31      0.00
    4   11    9      0.00      0.00
    5   11    9      2.36      0.00
    6   11    9      4.50      0.00
    7   11    9      0.13      0.00
    8   11    9     -0.01      0.00
    9   11    9      4.96      0.00
   10   11    9      0.89      0.00
   11   11    9     -2.07      0.00
   12   11    9      0.07      0.00
   13   11    9      4.07      0.00
   14   11    9      0.26      0.00
   15   11    9     -5.36      0.00
   16   11    9     -1.82      0.00
   17   11    9     -5.99      0.00
   18   11    9     -1.15      0.00
   19   11    9      0.53      0.00
   20   11    9     -2.02      0.00
   21   11    9     -3.70      0.00
   -6   12    9     -0.51      0.00
   -5   12    9     -0.92      0.00
   -4   12    9      0.26      0.00
   -3   12    9      1.43      0.00
   -2   12    9      1.38      0.00
   -1   12    9     -1.69      0.00
    0   12    9      0.40      0.00
    1   12    9      4.88      0.00
    2   12    9     -1.51      0.00
    3   12    9     -3.99      0.00
    4   12    9      1.66      0.00
    5   12    9      0.12      0.00
    6   12    9      4.41      0.00
    7   12    9     -1.12      0.00
    8   12    9     -0.27      0.00
    9   12    9      3.15      0.00
   10   12    9      3.20      0.00
   11   12    9     -1.23      0.00
   12   12    9      0.57      0.00
   13   12    9      2.20      0.00
   14   12    9      2.46      0.00
   15   12    9     -1.93      0.00
   16   12    9     -1.73      0.00
   17   12    9     -2.15      0.00
   18   12    9     -5.05      0.00
   19   12    9     -1.59      0.00
   20   12    9      0.65      0.00
   21   12    9     -1.60      0.00
   -5   13    9     -0.80      0.00
   -4   13    9      0.93      0.00
   -3   13    9     -0.47      0.00
   -2   13    9      4.61      0.00
   -1   13    9     -4.42      0.00
    0   13    9     -1.83      0.00
    1   13    9      2.99      0.00
    2   13    9      0.00      0.00
    3   13    9     -0.59      0.00
    4   13    9      2.24      0.00
    5   13    9     -0.24      0.00
    6   13    9     -0.51      0.00
    7   13    9      3.10      0.00
    8   13    9     -2.34      0.00
    9   13    9     -0.14      0.00
   10   13    9      2.55      0.00
   11   13    9      1.28      0.00
   12   13    9      0.87      0.00
   13   13    9      1.68      0.00
   14   13    9      1.93      0.00
   15   13    9     -1.47      0.00
   16   13    9      0.23      0.00
   17   13    9     -0.54      0.00
   18   13    9      1.09      0.00
   19   13    9     -3.66      0.00
   20   13    9     -2.29      0.00
   21   13    9     -1.28      0.00
   -4   14    9     -1.43      0.00
   -3   14    9     -2.00      0.00
   -2   14    9      1.95      0.00
   -1   14    9      2.32      0.00
    0   14    9     -3.69      0.00
    1   14    9     -1.16      0.00
    2   14    9     -0.29      0.00
    3   14    9      0.80      0.00
    4   14    9      4.92      0.00
    5   14    9     -2.73      0.00
    6   14    9      1.27      0.00
    7   14    9      2.70      0.00
    8   14    9     -1.62      0.00
    9   14    9      2.30      0.00
   10   14    9     -0.25      0.00
   11   14    9     -5.29      0.00
   12   14    9      4.31      0.00
   13   14    9      1.03      0.00
   14   14    9      2.74      0.00
   15   14    9      0.52      0.00
   16   14    9     -2.96      0.00
   17   14    9     -0.30      0.00
   18   14    9      3.31      0.00
   19   14    9      1.82      0.00
   20   14    9     -3.70      0.00
   21   14    9     -2.63      0.00
   -2   15    9     -1.07      0.00
   -1   15    9     -1.76      0.00
    0   15    9      3.33      0.00
    1   15    9     -0.33      0.00
    2   15    9     -3.71      0.00
    3   15    9      0.38      0.00
    4   15    9      1.99      0.00
    5   15    9      0.18      0.00
    6   15    9      1.85      0.00
    7   15    9      2.72      0.00
    8   15    9     -0.31      0.00
    9   15    9      4.21      0.00
   10   15    9     -4.27      0.00
   11   15    9     -1.95      0.00
   12   15    9      0.05      0.00
   13   15    9     -0.16      0.00
   14   15    9      3.55      0.00
   15   15    9     -1.35      0.00
   16   15    9      1.07      0.00
   17   15    9     -0.78      0.00
   18   15    9      0.75      0.00
   19   15    9      0.35      0.00
   20   15    9     -0.34      0.00
   21   15    9     -1.34      0.00
   -1   16    9     -2.01      0.00
    0   16    9     -3.01      0.00
    1   16    9      2.48      0.00
    2   16    9     -0.55      0.00
    3   16    9     -4.09      0.00
    4   16    9      1.90      0.00
    5   16    9      2.14      0.00
    6   16    9      2.24      0.00
    7   16    9     -0.02      0.00
    8   16    9      2.49      0.00
    9   16    9      1.81      0.00
   10   16    9     -3.41      0.00
   11   16    9     -1.23      0.00
   12   16    9      3.95      0.00
   13   16    9     -4.48      0.00
   14   16    9      1.19      0.00
   15   16    9     -0.40      0.00
   16   16    9      0.15      0.00
   17   16    9      3.50      0.00
   18   16    9     -0.78      0.00
   19   16    9     -2.28      0.00
   20   16    9     -1.60      0.00
    0   17    9     -0.75      0.00
    1   17    9     -4.31      0.00
    2   17    9     -0.55      0.00
    3   17    9      0.58      0.00
    4   17    9     -1.83      0.00
    5   17    9      3.03      0.00
    6   17    9     -0.61      0.00
    7   17    9      1.19      0.00
    8   17    9      1.46      0.00
    9   17    9      1.79      0.00
   10   17    9     -0.40      0.00
   11   17    9     -0.30      0.00
   12   17    9     -0.50      0.00
   13   17    9      0.38      0.00
   14   17    9     -2.04      0.00
   15   17    9      0.15      0.00
   16   17    9      1.84      0.00
   17   17    9      0.85      0.00
   18   17    9      1.80      0.00
   19   17    9     -3.53      0.00
   20   17    9     -3.44      0.00
    2   18    9     -3.42      0.00
    3   18    9     -4.30      0.00
    4   18    9      4.27      0.00
    5   18    9     -0.95      0.00
    6   18    9     -3.84      0.00
    7   18    9      0.89      0.00
    8   18    9      4.46      0.00
    9   18    9     -0.50      0.00
   10   18    9     -0.88      0.00
   11   18    9      1.39      0.00
   12   18    9      2.69      0.00
   13   18    9     -4.10      0.00
   14   18    9      2.06      0.00
   15   18    9     -0.31      0.00
   16   18    9      0.50      0.00
   17   18    9      1.60      0.00
   18   18    9     -1.10      0.00
   19   18    9     -1.36      0.00
    4   19    9     -3.07      0.00
    5   19    9      2.78      0.00
    6   19    9     -4.09      0.00
    7   19    9     -2.02      0.00
    8   19    9      1.41      0.00
    9   19    9      3.99      0.00
   10   19    9     -3.56      0.00
   11   19    9     -0.01      0.00
   12   19    9      3.52      0.00
   13   19    9      0.28      0.00
   14   19    9     -0.86      0.00
   15   19    9      2.28      0.00
   16   19    9      0.48      0.00
   17   19    9     -1.22      0.00
   18   19    9     -2.76      0.00
    6   20    9     -1.08      0.00
    7   20    9     -1.62      0.00
    8   20    9     -2.62      0.00
    9   20    9     -0.02      0.00
   10   20    9      5.08      0.00
   11   20    9     -1.23      0.00
   12   20    9     -0.17      0.00
   13   20    9     -1.08      0.00
   14   20    9      1.37      0.00
   15   20    9     -0.07      0.00
   16   20    9      3.06      0.00
   17   20    9     -0.85      0.00
    9   21    9     -1.50      0.00
   10   21    9      0.63      0.00
   11   21    9      5.51      0.00
   12   21    9     -0.95      0.00
   13   21    9     -2.81      0.00
   14   21    9     -0.45      0.00
  -10  -20   10     -1.74      0.00
   -9  -20   10      0.38      0.00
   -8  -20   10     -0.42      0.00
   -7  -20   10      1.20      0.00
   -6  -20   10     -4.65      0.00
   -5  -20   10      0.71      0.00
   -4  -20   10     -0.80      0.00
   -3  -20   10     -2.87      0.00
   -2  -20   10     -1.92      0.00
  -12  -19   10      3.05      0.00
  -11  -19   10      1.39      0.00
  -10  -19   10     -1.41      0.00
   -9  -19   10     -0.07      0.00
   -8  -19   10     -0.77      0.00
   -7  -19   10      1.94      0.00
   -6  -19   10     -3.82      0.00
   -5  -19   10      0.98      0.00
   -4  -19   10     -0.48      0.00
   -3  -19   10     -4.98      0.00
   -2  -19   10      0.98      0.00
   -1  -19   10      0.45      0.00
    0  -19   10      2.90      0.00
    1  -19   10      0.35      0.00
  -13  -18   10     -0.42      0.00
  -12  -18   10      0.19      0.00
  -11  -18   10      3.01      0.00
  -10  -18   10      0.83      0.00
   -9  -18   10      0.39      0.00
   -8  -18   10      0.34      0.00
   -7  -18   10     -1.12      0.00
   -6  -18   10     -1.99      0.00
   -5  -18   10      2.30      0.00
   -4  -18   10     -4.44      0.00
   -3  -18   10     -2.31      0.00
   -2  -18   10      3.63      0.00
   -1  -18   10     -0.93      0.00
    0  -18   10      1.43      0.00
    1  -18   10      4.36      0.00
    2  -18   10     -8.09      0.00
    3  -18   10      0.83      0.00
  -14  -17   10      1.37      0.00
  -13  -17   10     -2.81      0.00
  -12  -17   10      0.52      0.00
  -11  -17   10      2.19      0.00
  -10  -17   10      0.08      0.00
   -9  -17   10      2.81      0.00
   -8  -17   10      1.49      0.00
   -7  -17   10      0.03      0.00
   -6  -17   10     -2.86      0.00
   -5  -17   10      0.66      0.00
   -4  -17   10     -4.84      0.00
   -3  -17   10      2.87      0.00
   -2  -17   10     -0.45      0.00
   -1  -17   10     -4.93      0.00
    0  -17   10      7.25      0.00
    1  -17   10     -0.92      0.00
    2  -17   10     -1.97      0.00
    3  -17   10     -0.35      0.00
    4  -17   10     -1.26      0.00
    5  -17   10     -3.56      0.00
  -14  -16   10     -0.94      0.00
  -13  -16   10     -1.26      0.00
  -12  -16   10      1.63      0.00
  -11  -16   10      0.21      0.00
  -10  -16   10     -2.31      0.00
   -9  -16   10      1.74      0.00
   -8  -16   10      2.10      0.00
   -7  -16   10      0.19      0.00
   -6  -16   10      1.27      0.00
   -5  -16   10     -2.58      0.00
   -4  -16   10      0.48      0.00
   -3  -16   10      0.01      0.00
   -2  -16   10     -4.66      0.00
   -1  -16   10     -2.10      0.00
    0  -16   10      3.23      0.00
    1  -16   10      0.32      0.00
    2  -16   10     -2.08      0.00
    3  -16   10      2.93      0.00
    4  -16   10     -1.42      0.00
    5  -16   10     -0.18      0.00
    6  -16   10     -1.65      0.00
  -15  -15   10     -1.27      0.00
  -14  -15   10     -1.74      0.00
  -13  -15   10     -0.10      0.00
  -12  -15   10      0.34      0.00
  -11  -15   10     -1.17      0.00
  -10  -15   10      0.27      0.00
   -9  -15   10     -1.60      0.00
   -8  -15   10     -0.77      0.00
   -7  -15   10      1.44      0.00
   -6  -15   10     -0.87      0.00
   -5  -15   10      2.98      0.00
   -4  -15   10      0.85      0.00
   -3  -15   10     -3.11      0.00
   -2  -15   10     -4.01      0.00
   -1  -15   10     -1.80      0.00
    0  -15   10      0.51      0.00
    1  -15   10     -0.95      0.00
    2  -15   10      2.99      0.00
    3  -15   10      2.38      0.00
    4  -15   10     -0.87      0.00
    5  -15   10      0.04      0.00
    6  -15   10      0.66      0.00
    7  -15   10     -2.62      0.00
  -15  -14   10      0.45      0.00
  -14  -14   10     -0.70      0.00
  -13  -14   10      0.70      0.00
  -12  -14   10     -1.68      0.00
  -11  -14   10     -1.43      0.00
  -10  -14   10      1.84      0.00
   -9  -14   10     -1.49      0.00
   -8  -14   10     -1.13      0.00
   -7  -14   10      0.80      0.00
   -6  -14   10     -0.86      0.00
   -5  -14   10     -1.67      0.00
   -4  -14   10      3.05      0.00
   -3  -14   10     -1.88      0.00
   -2  -14   10     -2.24      0.00
   -1  -14   10     -0.53      0.00
    0  -14   10     -4.65      0.00
    1  -14   10      1.55      0.00
    2  -14   10      5.52      0.00
    3  -14   10      4.42      0.00
    4  -14   10     -3.67      0.00
    5  -14   10     -0.11      0.00
    6  -14   10      2.27      0.00
    7  -14   10     -1.35      0.00
    8  -14   10     -2.30      0.00
  -15  -13   10      1.94      0.00
  -14  -13   10      0.44      0.00
  -13  -13   10     -1.04      0.00
  -12  -13   10      1.08      0.00
  -11  -13   10     -0.68      0.00
  -10  -13   10      0.51      0.00
   -9  -13   10     -1.60      0.00
   -8  -13   10      1.18      0.00
   -7  -13   10      0.72      0.00
   -6  -13   10     -0.51      0.00
   -5  -13   10     -3.43      0.00
   -4  -13   10     -3.11      0.00
   -3  -13   10      2.36      0.00
   -2  -13   10      1.10      0.00
   -1  -13   10      1.18      0.00
    0  -13   10     -1.62      0.00
    1  -13   10     -2.52      0.00
    2  -13   10      4.25      0.00
    3  -13   10      2.71      0.00
    4  -13   10     -2.76      0.00
    5  -13   10      5.08      0.00
    6  -13   10      1.69      0.00
    7  -13   10     -2.73      0.00
    8  -13   10      0.48      0.00
    9  -13   10      0.18      0.00
   10  -13   10      2.24      0.00
  -15  -12   10      0.47      0.00
  -14  -12   10     -0.52      0.00
  -13  -12   10      1.70      0.00
  -12  -12   10      1.01      0.00
  -11  -12   10      0.20      0.00
  -10  -12   10      0.18      0.00
   -9  -12   10     -0.82      0.00
   -8  -12   10     -1.24      0.00
   -7  -12   10      1.64      0.00
   -6  -12   10     -1.80      0.00
   -5  -12   10     -1.28      0.00
   -4  -12   10     -0.67      0.00
   -3  -12   10     -1.85      0.00
   -2  -12   10      0.25      0.00
   -1  -12   10      5.22      0.00
    0  -12   10      0.10      0.00
    1  -12   10      1.58      0.00
    2  -12   10     -0.48      0.00
    3  -12   10      0.01      0.00
    4  -12   10     -0.66      0.00
    5  -12   10      2.80      0.00
    6  -12   10      2.56      0.00
    7  -12   10     -2.44      0.00
    8  -12   10      3.93      0.00
    9  -12   10      1.48      0.00
   10  -12   10     -0.56      0.00
   11  -12   10      1.13      0.00
  -15  -11   10     -1.76      0.00
  -14  -11   10     -0.37      0.00
  -13  -11   10      1.56      0.00
  -12  -11   10      2.60      0.00
  -11  -11   10     -0.63      0.00
  -10  -11   10      1.04      0.00
   -9  -11   10     -3.62      0.00
   -8  -11   10      1.30      0.00
   -7  -11   10     -1.72      0.00
   -6  -11   10     -2.09      0.00
   -5  -11   10     -1.71      0.00
   -4  -11   10      3.18      0.00
   -3  -11   10      2.40      0.00
   -2  -11   10     -5.50      0.00
   -1  -11   10      0.37      0.00
    0  -11   10      1.94      0.00
    1  -11   10      5.80      0.00
    2  -11   10      3.18      0.00
    3  -11   10      3.90      0.00
    4  -11   10     -5.02      0.00
    5  -11   10     -1.92      0.00
    6  -11   10      1.66      0.00
    7  -11   10     -0.72      0.00
    8  -11   10      0.69      0.00
    9  -11   10      4.61      0.00
   10  -11   10      6.06      0.00
   11  -11   10     -3.99      0.00
   12  -11   10     -0.98      0.00
  -16  -10   10      1.08      0.00
  -15  -10   10     -0.82      0.00
  -14  -10   10      0.99      0.00
  -13  -10   10      0.16      0.00
  -12  -10   10      1.65      0.00
  -11  -10   10      0.38      0.00
  -10  -10   10     -1.78      0.00
   -9  -10   10     -2.23      0.00
   -8  -10   10     -0.16      0.00
   -7  -10   10      2.44      0.00
   -6  -10   10     -6.77      0.00
   -5  -10   10      0.42      0.00
   -4  -10   10      0.29      0.00
   -3  -10   10      2.89      0.00
   -2  -10   10     -2.85      0.00
   -1  -10   10     -2.14      0.00
    0  -10   10     -0.48      0.00
    1  -10   10      7.19      0.00
    2  -10   10      3.45      0.00
    3  -10   10      4.30      0.00
    4  -10   10      3.64      0.00
    5  -10   10     -5.36      0.00
    6  -10   10      0.69      0.00
    7  -10   10      2.11      0.00
    8  -10   10     -3.83      0.00
    9  -10   10     -0.97      0.00
   10  -10   10      7.72      0.00
   11  -10   10      0.17      0.00
   12  -10   10     -0.24      0.00
  -15   -9   10      0.23      0.00
  -14   -9   10      2.65      0.00
  -13   -9   10      0.76      0.00
  -12   -9   10      1.34      0.00
  -11   -9   10     -2.82      0.00
  -10   -9   10      0.54      0.00
   -9   -9   10     -1.85      0.00
   -8   -9   10      1.65      0.00
   -7   -9   10     -4.85      0.00
   -6   -9   10      0.89      0.00
   -5   -9   10     -1.70      0.00
   -4   -9   10      1.08      0.00
   -3   -9   10     -2.38      0.00
   -2   -9   10     -3.43      0.00
   -1   -9   10     -2.09      0.00
    0   -9   10      4.05      0.00
    1   -9   10      5.16      0.00
    2   -9   10     -5.15      0.00
    3   -9   10     11.05      0.00
    4   -9   10      2.48      0.00
    5   -9   10     -0.39      0.00
    6   -9   10      3.95      0.00
    7   -9   10      0.80      0.00
    8   -9   10     -0.72      0.00
    9   -9   10     -0.53      0.00
   10   -9   10     -1.34      0.00
   11   -9   10     -4.21      0.00
   12   -9   10      5.45      0.00
   13   -9   10      4.30      0.00
  -15   -8   10      0.20      0.00
  -14   -8   10      0.16      0.00
  -13   -8   10      1.74      0.00
  -12   -8   10      0.51      0.00
  -11   -8   10     -2.57      0.00
  -10   -8   10      0.02      0.00
   -9   -8   10      2.81      0.00
   -8   -8   10      1.35      0.00
   -7   -8   10     -6.63      0.00
   -6   -8   10     -6.49      0.00
   -5   -8   10      8.32      0.00
   -4   -8   10     -0.90      0.00
   -3   -8   10     -4.77      0.00
   -2   -8   10     -4.68      0.00
   -1   -8   10     -0.12      0.00
    0   -8   10     -1.70      0.00
    1   -8   10      5.06      0.00
    2   -8   10     -1.33      0.00
    3   -8   10      4.89      0.00
    4   -8   10      3.20      0.00
    5   -8   10     -0.72      0.00
    6   -8   10      9.11      0.00
    7   -8   10      2.69      0.00
    8   -8   10     -0.46      0.00
    9   -8   10      3.05      0.00
   10   -8   10      1.02      0.00
   11   -8   10    -10.73      0.00
   12   -8   10      0.77      0.00
   13   -8   10      6.50      0.00
   14   -8   10     -0.54      0.00
  -15   -7   10      0.69      0.00
  -14   -7   10      0.45      0.00
  -13   -7   10     -1.63      0.00
  -12   -7   10      1.49      0.00
  -11   -7   10     -0.93      0.00
  -10   -7   10     -1.99      0.00
   -9   -7   10      0.97      0.00
   -8   -7   10      5.18      0.00
   -7   -7   10     -5.69      0.00
   -6   -7   10     -3.00      0.00
   -5   -7   10     -1.86      0.00
   -4   -7   10      2.19      0.00
   -3   -7   10     -7.76      0.00
   -2   -7   10      4.12      0.00
   -1   -7   10     -2.60      0.00
    0   -7   10     -2.99      0.00
    1   -7   10     -1.98      0.00
    2   -7   10      1.55      0.00
    3   -7   10      2.62      0.00
    4   -7   10     -7.75      0.00
    5   -7   10     13.83      0.00
    6   -7   10      3.23      0.00
    7   -7   10      4.29      0.00
    8   -7   10      3.10      0.00
    9   -7   10     -0.20      0.00
   10   -7   10      1.73      0.00
   11   -7   10     -4.61      0.00
   12   -7   10      1.59      0.00
   13   -7   10     -1.93      0.00
   14   -7   10     -1.03      0.00
   15   -7   10      2.67      0.00
  -15   -6   10      1.72      0.00
  -14   -6   10     -0.72      0.00
  -13   -6   10      0.61      0.00
  -12   -6   10     -0.10      0.00
  -11   -6   10     -0.89      0.00
  -10   -6   10      0.55      0.00
   -9   -6   10      1.13      0.00
   -8   -6   10     -2.16      0.00
   -7   -6   10     -0.28      0.00
   -6   -6   10      0.91      0.00
   -5   -6   10      0.55      0.00
   -4   -6   10    -10.37      0.00
   -3   -6   10     -6.53      0.00
   -2   -6   10     12.40      0.00
   -1   -6   10     -1.30      0.00
    0   -6   10     -9.62      0.00
    1   -6   10      4.39      0.00
    2   -6   10     -8.52      0.00
    3   -6   10     -1.92      0.00
    4   -6   10      2.70      0.00
    5   -6   10      7.41      0.00
    6   -6   10      0.79      0.00
    7   -6   10      3.83      0.00
    8   -6   10      7.40      0.00
    9   -6   10     -4.32      0.00
   10   -6   10     -0.69      0.00
   11   -6   10      1.54      0.00
   12   -6   10      2.51      0.00
   13   -6   10     -4.06      0.00
   14   -6   10      3.11      0.00
   15   -6   10     -2.46      0.00
   16   -6   10     -2.60      0.00
  -15   -5   10      1.78      0.00
  -14   -5   10      1.18      0.00
  -13   -5   10      0.65      0.00
  -12   -5   10     -2.38      0.00
  -11   -5   10     -0.59      0.00
  -10   -5   10      3.17      0.00
   -9   -5   10      2.13      0.00
   -8   -5   10      0.37      0.00
   -7   -5   10     -6.03      0.00
   -6   -5   10      4.53      0.00
   -5   -5   10      0.31      0.00
   -4   -5   10     -5.15      0.00
   -3   -5   10     -7.83      0.00
   -2   -5   10      7.80      0.00
   -1   -5   10     -0.78      0.00
    0   -5   10     -3.48      0.00
    1   -5   10     -4.72      0.00
    2   -5   10     -2.57      0.00
    3   -5   10     -5.95      0.00
    4   -5   10      2.59      0.00
    5   -5   10     13.99      0.00
    6   -5   10    -11.78      0.00
    7   -5   10      5.15      0.00
    8   -5   10      5.67      0.00
    9   -5   10     -2.12      0.00
   10   -5   10     -3.64      0.00
   11   -5   10      3.52      0.00
   12   -5   10      4.04      0.00
   13   -5   10     -3.69      0.00
   14   -5   10      1.86      0.00
   15   -5   10      1.03      0.00
   16   -5   10     -4.77      0.00
  -15   -4   10      0.36      0.00
  -14   -4   10      2.59      0.00
  -13   -4   10     -1.01      0.00
  -12   -4   10     -1.86      0.00
  -11   -4   10      1.60      0.00
  -10   -4   10      0.11      0.00
   -9   -4   10      0.04      0.00
   -8   -4   10      1.60      0.00
   -7   -4   10      2.43      0.00
   -6   -4   10      1.01      0.00
   -5   -4   10     -2.84      0.00
   -4   -4   10     -2.38      0.00
   -3   -4   10     -1.52      0.00
   -2   -4   10      8.01      0.00
   -1   -4   10     -5.63      0.00
    0   -4   10     -1.77      0.00
    1   -4   10     -1.61      0.00
    2   -4   10    -10.77      0.00
    3   -4   10      3.20      0.00
    4   -4   10     -2.99      0.00
    5   -4   10     11.55      0.00
    6   -4   10     -6.21      0.00
    7   -4   10     -2.46      0.00
    8   -4   10      4.30      0.00
    9   -4   10     -7.31      0.00
   10   -4   10      4.92      0.00
   11   -4   10      3.39      0.00
   12   -4   10      1.58      0.00
   13   -4   10     -2.40      0.00
   14   -4   10      0.01      0.00
   15   -4   10      0.49      0.00
   16   -4   10     -0.73      0.00
   17   -4   10     -0.71      0.00
  -14   -3   10     -0.20      0.00
  -13   -3   10     -1.42      0.00
  -12   -3   10      0.72      0.00
  -11   -3   10      3.00      0.00
  -10   -3   10     -2.11      0.00
   -9   -3   10     -0.38      0.00
   -8   -3   10     -1.77      0.00
   -7   -3   10      1.94      0.00
   -6   -3   10      8.37      0.00
   -5   -3   10     -9.33      0.00
   -4   -3   10      1.13      0.00
   -3   -3   10     -2.39      0.00
   -2   -3   10      8.17      0.00
   -1   -3   10      3.40      0.00
    0   -3   10     -4.43      0.00
    1   -3   10     -7.88      0.00
    2   -3   10     -2.82      0.00
    3   -3   10     -0.60      0.00
    4   -3   10     -2.40      0.00
    5   -3   10      9.32      0.00
    6   -3   10     -5.78      0.00
    7   -3   10     -4.78      0.00
    8   -3   10     -2.61      0.00
    9   -3   10     -2.31      0.00
   10   -3   10      4.01      0.00
   11   -3   10      6.44      0.00
   12   -3   10      0.89      0.00
   13   -3   10     -4.78      0.00
   14   -3   10      1.21      0.00
   15   -3   10      0.64      0.00
   16   -3   10     -3.36      0.00
   17   -3   10      5.60      0.00
  -14   -2   10     -1.28      0.00
  -13   -2   10      0.71      0.00
  -12   -2   10      0.45      0.00
  -11   -2   10     -1.32      0.00
  -10   -2   10      2.77      0.00
   -9   -2   10      0.15      0.00
   -8   -2   10      0.58      0.00
   -7   -2   10     -2.17      0.00
   -6   -2   10     -2.44      0.00
   -5   -2   10      1.13      0.00
   -4   -2   10      1.88      0.00
   -3   -2   10     -2.21      0.00
   -2   -2   10      4.11      0.00
   -1   -2   10     -1.15      0.00
    0   -2   10      0.22      0.00
    1   -2   10     -8.73      0.00
    2   -2   10      6.25      0.00
    3   -2   10      4.31      0.00
    4   -2   10    -18.79      0.00
    5   -2   10     15.95      0.00
    6   -2   10     -4.86      0.00
    7   -2   10    -11.83      0.00
    8   -2   10     -1.61      0.00
    9   -2   10      0.36      0.00
   10   -2   10      5.57      0.00
   11   -2   10     -2.25      0.00
   12   -2   10      3.79      0.00
   13   -2   10     -0.59      0.00
   14   -2   10      0.02      0.00
   15   -2   10     -2.41      0.00
   16   -2   10     -0.41      0.00
   17   -2   10      5.20      0.00
   18   -2   10     -1.50      0.00
  -14   -1   10      2.35      0.00
  -13   -1   10      0.87      0.00
  -12   -1   10     -1.66      0.00
  -11   -1   10      0.44      0.00
  -10   -1   10     -1.00      0.00
   -9   -1   10      3.22      0.00
   -8   -1   10      1.75      0.00
   -7   -1   10     -1.30      0.00
   -6   -1   10     -0.55      0.00
   -5   -1   10     -7.75      0.00
   -4   -1   10      8.86      0.00
   -3   -1   10     -1.23      0.00
   -2   -1   10      4.63      0.00
   -1   -1   10    -11.47      0.00
    0   -1   10     -8.45      0.00
    1   -1   10      3.45      0.00
    2   -1   10     12.13      0.00
    3   -1   10      0.71      0.00
    4   -1   10    -15.47      0.00
    5   -1   10     10.01      0.00
    6   -1   10     -6.37      0.00
    7   -1   10    -13.60      0.00
    8   -1   10      3.77      0.00
    9   -1   10      3.16      0.00
   10   -1   10     -1.74      0.00
   11   -1   10     -0.01      0.00
   12   -1   10      0.47      0.00
   13   -1   10     -0.62      0.00
   14   -1   10     -0.20      0.00
   15   -1   10     -1.88      0.00
   16   -1   10      0.84      0.00
   17   -1   10      4.57      0.00
   18   -1   10     -2.10      0.00
  -13    0   10     -0.80      0.00
  -12    0   10      0.49      0.00
  -11    0   10      1.44      0.00
  -10    0   10      0.53      0.00
   -9    0   10     -0.31      0.00
   -8    0   10     -0.41      0.00
   -7    0   10     -1.04      0.00
   -6    0   10      8.44      0.00
   -5    0   10     -6.27      0.00
   -4    0   10     -2.33      0.00
   -3    0   10      9.30      0.00
   -2    0   10     -2.97      0.00
   -1    0   10    -12.97      0.00
    0    0   10     -2.10      0.00
    1    0   10      0.32      0.00
    2    0   10      8.20      0.00
    3    0   10     -1.01      0.00
    4    0   10     -6.02      0.00
    5    0   10      5.67      0.00
    6    0   10    -13.20      0.00
    7    0   10     -9.59      0.00
    8    0   10      3.29      0.00
    9    0   10      5.64      0.00
   10    0   10     -2.00      0.00
   11    0   10     -2.04      0.00
   12    0   10      0.26      0.00
   13    0   10     -4.42      0.00
   14    0   10      0.95      0.00
   15    0   10     -1.04      0.00
   16    0   10      1.17      0.00
   17    0   10      1.85      0.00
   18    0   10      0.06      0.00
   19    0   10     -0.53      0.00
  -13    1   10     -2.32      0.00
  -12    1   10      3.38      0.00
  -11    1   10      0.84      0.00
  -10    1   10      0.70      0.00
   -9    1   10      3.12      0.00
   -8    1   10     -4.48      0.00
   -7    1   10      1.48      0.00
   -6    1   10      1.69      0.00
   -5    1   10     -3.09      0.00
   -4    1   10     10.47      0.00
   -3    1   10     -0.68      0.00
   -2    1   10     -7.42      0.00
   -1    1   10    -16.78      0.00
    0    1   10     13.56      0.00
    1    1   10      0.72      0.00
    2    1   10     -1.43      0.00
    3    1   10      5.46      0.00
    4    1   10     -8.79      0.00
    5    1   10     -4.07      0.00
    6    1   10     -9.33      0.00
    7    1   10     -1.12      0.00
    8    1   10      0.36      0.00
    9    1   10     -1.56      0.00
   10    1   10      0.38      0.00
   11    1   10     -2.72      0.00
   12    1   10     -4.25      0.00
   13    1   10     -0.79      0.00
   14    1   10      1.60      0.00
   15    1   10      1.67      0.00
   16    1   10     -1.99      0.00
   17    1   10      1.06      0.00
   18    1   10     -0.06      0.00
   19    1   10     -1.34      0.00
  -12    2   10      2.03      0.00
  -11    2   10      1.98      0.00
  -10    2   10     -0.02      0.00
   -9    2   10     -1.41      0.00
   -8    2   10      2.60      0.00
   -7    2   10      0.03      0.00
   -6    2   10     -0.49      0.00
   -5    2   10     -5.52      0.00
   -4    2   10     11.29      0.00
   -3    2   10      4.99      0.00
   -2    2   10    -16.99      0.00
   -1    2   10     -8.32      0.00
    0    2   10      6.90      0.00
    1    2   10      4.37      0.00
    2    2   10      2.14      0.00
    3    2   10      5.43      0.00
    4    2   10     -6.76      0.00
    5    2   10    -16.48      0.00
    6    2   10     -3.22      0.00
    7    2   10      5.30      0.00
    8    2   10     -0.67      0.00
    9    2   10     -5.06      0.00
   10    2   10     -7.08      0.00
   11    2   10     -2.61      0.00
   12    2   10     -1.52      0.00
   13    2   10     -0.42      0.00
   14    2   10      1.27      0.00
   15    2   10      0.69      0.00
   16    2   10      0.51      0.00
   17    2   10      0.06      0.00
   18    2   10      0.04      0.00
   19    2   10     -0.30      0.00
   20    2   10      1.62      0.00
  -12    3   10      2.21      0.00
  -11    3   10      1.35      0.00
  -10    3   10      0.52      0.00
   -9    3   10     -0.47      0.00
   -8    3   10     -2.93      0.00
   -7    3   10      1.06      0.00
   -6    3   10      1.13      0.00
   -5    3   10      1.14      0.00
   -4    3   10      2.01      0.00
   -3    3   10     -6.67      0.00
   -2    3   10     -1.49      0.00
   -1    3   10     -4.08      0.00
    0    3   10      6.62      0.00
    1    3   10     -6.84      0.00
    2    3   10      2.18      0.00
    3    3   10      4.27      0.00
    4    3   10     -3.19      0.00
    5    3   10     -9.19      0.00
    6    3   10     -3.42      0.00
    7    3   10      4.27      0.00
    8    3   10     -6.14      0.00
    9    3   10     -2.16      0.00
   10    3   10     -5.32      0.00
   11    3   10     -8.03      0.00
   12    3   10      1.82      0.00
   13    3   10      1.31      0.00
   14    3   10     -1.46      0.00
   15    3   10     -1.03      0.00
   16    3   10      0.69      0.00
   17    3   10      1.87      0.00
   18    3   10     -0.05      0.00
   19    3   10      1.17      0.00
   20    3   10      3.13      0.00
  -11    4   10     -0.51      0.00
  -10    4   10      0.36      0.00
   -9    4   10      3.04      0.00
   -8    4   10     -2.08      0.00
   -7    4   10     -4.38      0.00
   -6    4   10      0.15      0.00
   -5    4   10      4.15      0.00
   -4    4   10      0.18      0.00
   -3    4   10    -11.84      0.00
   -2    4   10      0.29      0.00
   -1    4   10      6.14      0.00
    0    4   10      1.96      0.00
    1    4   10     -1.74      0.00
    2    4   10     -7.07      0.00
    3    4   10     -3.69      0.00
    4    4   10     -2.85      0.00
    5    4   10      3.49      0.00
    6    4   10      2.23      0.00
    7    4   10     -5.60      0.00
    8    4   10     -1.96      0.00
    9    4   10     -2.63      0.00
   10    4   10     -6.25      0.00
   11    4   10     -2.82      0.00
   12    4   10     -0.92      0.00
   13    4   10      2.78      0.00
   14    4   10     -1.24      0.00
   15    4   10     -0.31      0.00
   16    4   10      1.28      0.00
   17    4   10     -1.54      0.00
   18    4   10      2.27      0.00
   19    4   10     -0.79      0.00
   20    4   10      1.54      0.00
  -11    5   10     -1.26      0.00
  -10    5   10      1.69      0.00
   -9    5   10      0.09      0.00
   -8    5   10     -0.37      0.00
   -7    5   10      0.10      0.00
   -6    5   10     -1.60      0.00
   -5    5   10     -0.11      0.00
   -4    5   10     -4.44      0.00
   -3    5   10     -6.20      0.00
   -2    5   10      7.74      0.00
   -1    5   10     -1.57      0.00
    0    5   10      1.14      0.00
    1    5   10      3.68      0.00
    2    5   10     -5.70      0.00
    3    5   10    -11.79      0.00
    4    5   10      1.21      0.00
    5    5   10     -0.14      0.00
    6    5   10      1.34      0.00
    7    5   10      2.89      0.00
    8    5   10     -1.84      0.00
    9    5   10     -1.49      0.00
   10    5   10     -7.18      0.00
   11    5   10     -3.68      0.00
   12    5   10      3.69      0.00
   13    5   10      1.48      0.00
   14    5   10      0.18      0.00
   15    5   10      1.69      0.00
   16    5   10      0.75      0.00
   17    5   10     -0.57      0.00
   18    5   10     -1.20      0.00
   19    5   10      0.28      0.00
   20    5   10      0.66      0.00
   21    5   10      1.05      0.00
  -10    6   10      1.31      0.00
   -9    6   10      0.06      0.00
   -8    6   10     -1.35      0.00
   -7    6   10      0.84      0.00
   -6    6   10      2.47      0.00
   -5    6   10     -1.87      0.00
   -4    6   10     -8.08      0.00
   -3    6   10     -1.24      0.00
   -2    6   10      7.94      0.00
   -1    6   10     -0.88      0.00
    0    6   10     -1.35      0.00
    1    6   10      4.99      0.00
    2    6   10     -6.41      0.00
    3    6   10    -12.05      0.00
    4    6   10      7.59      0.00
    5    6   10      0.51      0.00
    6    6   10    -10.72      0.00
    7    6   10      7.61      0.00
    8    6   10      5.26      0.00
    9    6   10     -8.05      0.00
   10    6   10     -0.41      0.00
   11    6   10      0.15      0.00
   12    6   10     -1.04      0.00
   13    6   10      2.21      0.00
   14    6   10      3.20      0.00
   15    6   10      1.68      0.00
   16    6   10     -0.85      0.00
   17    6   10     -0.31      0.00
   18    6   10      1.31      0.00
   19    6   10     -1.35      0.00
   20    6   10     -0.45      0.00
   21    6   10      0.06      0.00
   -9    7   10      1.44      0.00
   -8    7   10      0.50      0.00
   -7    7   10      0.93      0.00
   -6    7   10      0.56      0.00
   -5    7   10     -3.31      0.00
   -4    7   10     -0.96      0.00
   -3    7   10     -0.37      0.00
   -2    7   10      2.61      0.00
   -1    7   10     -0.55      0.00
    0    7   10      2.51      0.00
    1    7   10      2.35      0.00
    2    7   10     -7.32      0.00
    3    7   10     -4.31      0.00
    4    7   10      1.20      0.00
    5    7   10      1.69      0.00
    6    7   10     -1.60      0.00
    7    7   10     -0.88      0.00
    8    7   10     -1.21      0.00
    9    7   10     -1.20      0.00
   10    7   10      0.52      0.00
   11    7   10      4.16      0.00
   12    7   10     -0.98      0.00
   13    7   10     -1.13      0.00
   14    7   10      4.70      0.00
   15    7   10      0.69      0.00
   16    7   10      0.72      0.00
   17    7   10     -0.47      0.00
   18    7   10      0.35      0.00
   19    7   10      1.22      0.00
   20    7   10     -3.76      0.00
   21    7   10      1.01      0.00
   -9    8   10      0.74      0.00
   -8    8   10      1.40      0.00
   -7    8   10      1.52      0.00
   -6    8   10     -0.42      0.00
   -5    8   10     -2.32      0.00
   -4    8   10      0.50      0.00
   -3    8   10      1.84      0.00
   -2    8   10      0.19      0.00
   -1    8   10      0.47      0.00
    0    8   10     -0.25      0.00
    1    8   10     -1.11      0.00
    2    8   10     -1.20      0.00
    3    8   10     -0.28      0.00
    4    8   10      0.94      0.00
    5    8   10     -2.93      0.00
    6    8   10      0.59      0.00
    7    8   10      3.02      0.00
    8    8   10     -7.14      0.00
    9    8   10     -2.12      0.00
   10    8   10      5.32      0.00
   11    8   10      1.36      0.00
   12    8   10     -0.06      0.00
   13    8   10      0.68      0.00
   14    8   10      2.63      0.00
   15    8   10      0.45      0.00
   16    8   10      0.59      0.00
   17    8   10      1.55      0.00
   18    8   10      0.47      0.00
   19    8   10     -1.58      0.00
   20    8   10      0.07      0.00
   21    8   10      0.71      0.00
   -8    9   10      0.13      0.00
   -7    9   10      1.87      0.00
   -6    9   10      1.62      0.00
   -5    9   10     -1.16      0.00
   -4    9   10      1.42      0.00
   -3    9   10     -0.41      0.00
   -2    9   10     -0.01      0.00
   -1    9   10      4.09      0.00
    0    9   10     -4.70      0.00
    1    9   10     -4.53      0.00
    2    9   10      2.94      0.00
    3    9   10      3.71      0.00
    4    9   10     -2.82      0.00
    5    9   10      4.44      0.00
    6    9   10     -2.75      0.00
    7    9   10     -4.20      0.00
    8    9   10     -0.54      0.00
    9    9   10      0.08      0.00
   10    9   10      1.13      0.00
   11    9   10      1.52      0.00
   12    9   10     -1.06      0.00
   13    9   10      1.10      0.00
   14    9   10      3.50      0.00
   15    9   10      0.67      0.00
   16    9   10      0.49      0.00
   17    9   10     -0.19      0.00
   18    9   10      1.62      0.00
   19    9   10      1.77      0.00
   20    9   10     -0.41      0.00
   21    9   10     -0.57      0.00
   -7   10   10      0.24      0.00
   -6   10   10      2.52      0.00
   -5   10   10      2.05      0.00
   -4   10   10      0.68      0.00
   -3   10   10     -0.46      0.00
   -2   10   10     -0.17      0.00
   -1   10   10     -0.89      0.00
    0   10   10     -2.62      0.00
    1   10   10      0.11      0.00
    2   10   10      1.85      0.00
    3   10   10      0.77      0.00
    4   10   10     -1.13      0.00
    5   10   10      5.31      0.00
    6   10   10     -1.62      0.00
    7   10   10     -4.65      0.00
    8   10   10     -0.22      0.00
    9   10   10      1.76      0.00
   10   10   10     -1.29      0.00
   11   10   10      0.10      0.00
   12   10   10      0.32      0.00
   13   10   10     -1.32      0.00
   14   10   10      3.16      0.00
   15   10   10      0.59      0.00
   16   10   10      2.34      0.00
   17   10   10      2.25      0.00
   18   10   10     -0.73      0.00
   19   10   10      2.94      0.00
   20   10   10      0.04      0.00
   21   10   10     -0.25      0.00
   -6   11   10     -0.08      0.00
   -5   11   10      1.33      0.00
   -4   11   10      3.05      0.00
   -3   11   10      1.01      0.00
   -2   11   10     -1.11      0.00
   -1   11   10     -2.42      0.00
    0   11   10     -3.08      0.00
    1   11   10      3.35      0.00
    2   11   10     -1.14      0.00
    3   11   10      1.39      0.00
    4   11   10      0.23      0.00
    5   11   10      3.96      0.00
    6   11   10     -2.88      0.00
    7   11   10      0.04      0.00
    8   11   10      2.27      0.00
    9   11   10     -2.36      0.00
   10   11   10     -1.83      0.00
   11   11   10     -1.04      0.00
   12   11   10      2.80      0.00
   13   11   10     -1.25      0.00
   14   11   10     -3.39      0.00
   15   11   10      1.15      0.00
   16   11   10      3.16      0.00
   17   11   10      3.46      0.00
   18   11   10      3.98      0.00
   19   11   10      0.00      0.00
   20   11   10     -2.50      0.00
   21   11   10      2.78      0.00
   -5   12   10      0.70      0.00
   -4   12   10      0.02      0.00
   -3   12   10      2.82      0.00
   -2   12   10     -1.52      0.00
   -1   12   10     -0.23      0.00
    0   12   10      2.73      0.00
    1   12   10     -4.31      0.00
    2   12   10     -3.04      0.00
    3   12   10      4.03      0.00
    4   12   10      0.65      0.00
    5   12   10      1.21      0.00
    6   12   10     -0.70      0.00
    7   12   10      0.39      0.00
    8   12   10      1.43      0.00
    9   12   10      0.35      0.00
   10   12   10     -2.67      0.00
   11   12   10     -0.76      0.00
   12   12   10      2.06      0.00
   13   12   10     -1.92      0.00
   14   12   10     -2.31      0.00
   15   12   10     -1.93      0.00
   16   12   10      2.77      0.00
   17   12   10      1.05      0.00
   18   12   10      2.14      0.00
   19   12   10      4.79      0.00
   20   12   10     -1.47      0.00
   21   12   10      0.12      0.00
   -4   13   10      1.01      0.00
   -3   13   10      0.78      0.00
   -2   13   10     -0.59      0.00
   -1   13   10     -1.53      0.00
    0   13   10      3.27      0.00
    1   13   10      0.31      0.00
    2   13   10     -2.24      0.00
    3   13   10      1.83      0.00
    4   13   10     -3.42      0.00
    5   13   10      0.44      0.00
    6   13   10      1.38      0.00
    7   13   10     -2.09      0.00
    8   13   10      0.68      0.00
    9   13   10      1.56      0.00
   10   13   10      1.15      0.00
   11   13   10     -1.13      0.00
   12   13   10      0.79      0.00
   13   13   10     -2.01      0.00
   14   13   10     -1.78      0.00
   15   13   10     -1.08      0.00
   16   13   10      1.64      0.00
   17   13   10      1.83      0.00
   18   13   10     -3.08      0.00
   19   13   10      1.24      0.00
   20   13   10      2.38      0.00
   21   13   10      1.20      0.00
   -3   14   10      3.82      0.00
   -2   14   10      2.20      0.00
   -1   14   10     -2.62      0.00
    0   14   10     -1.43      0.00
    1   14   10      3.57      0.00
    2   14   10      1.52      0.00
    3   14   10      1.10      0.00
    4   14   10     -3.76      0.00
    5   14   10     -2.66      0.00
    6   14   10      2.29      0.00
    7   14   10     -2.63      0.00
    8   14   10      0.01      0.00
    9   14   10     -0.99      0.00
   10   14   10     -1.29      0.00
   11   14   10      3.30      0.00
   12   14   10      2.00      0.00
   13   14   10     -1.07      0.00
   14   14   10     -1.21      0.00
   15   14   10     -2.90      0.00
   16   14   10      1.14      0.00
   17   14   10      3.29      0.00
   18   14   10     -1.11      0.00
   19   14   10     -2.36      0.00
   20   14   10     -2.27      0.00
   21   14   10      3.42      0.00
   -2   15   10      3.89      0.00
   -1   15   10      1.39      0.00
    0   15   10      3.73      0.00
    1   15   10     -4.88      0.00
    2   15   10      1.12      0.00
    3   15   10      3.82      0.00
    4   15   10     -1.66      0.00
    5   15   10     -0.66      0.00
    6   15   10      0.81      0.00
    7   15   10     -3.51      0.00
    8   15   10      1.03      0.00
    9   15   10     -4.87      0.00
   10   15   10     -1.02      0.00
   11   15   10      1.40      0.00
   12   15   10      1.64      0.00
   13   15   10      1.65      0.00
   14   15   10     -0.68      0.00
   15   15   10     -0.02      0.00
   16   15   10     -1.43      0.00
   17   15   10      0.20      0.00
   18   15   10     -0.27      0.00
   19   15   10      0.29      0.00
   20   15   10     -0.80      0.00
   -1   16   10      1.32      0.00
    0   16   10      3.92      0.00
    1   16   10      2.52      0.00
    2   16   10     -2.37      0.00
    3   16   10      2.24      0.00
    4   16   10      1.84      0.00
    5   16   10     -0.98      0.00
    6   16   10      0.82      0.00
    7   16   10     -2.11      0.00
    8   16   10      0.17      0.00
    9   16   10     -4.71      0.00
   10   16   10      0.62      0.00
   11   16   10      2.09      0.00
   12   16   10     -3.42      0.00
   13   16   10     -0.76      0.00
   14   16   10      1.82      0.00
   15   16   10      1.73      0.00
   16   16   10      0.01      0.00
   17   16   10     -1.41      0.00
   18   16   10     -4.63      0.00
   19   16   10      1.85      0.00
   20   16   10      2.23      0.00
    1   17   10      0.78      0.00
    2   17   10      7.85      0.00
    3   17   10     -1.30      0.00
    4   17   10      1.40      0.00
    5   17   10     -0.13      0.00
    6   17   10     -0.93      0.00
    7   17   10      1.85      0.00
    8   17   10      0.72      0.00
    9   17   10     -2.83      0.00
   10   17   10      0.42      0.00
   11   17   10     -1.31      0.00
   12   17   10      0.14      0.00
   13   17   10     -2.16      0.00
   14   17   10     -1.18      0.00
   15   17   10      3.87      0.00
   16   17   10     -2.16      0.00
   17   17   10      0.46      0.00
   18   17   10     -3.52      0.00
   19   17   10     -1.18      0.00
    3   18   10      5.95      0.00
    4   18   10      3.16      0.00
    5   18   10     -3.96      0.00
    6   18   10      1.99      0.00
    7   18   10      2.71      0.00
    8   18   10      1.69      0.00
    9   18   10     -2.47      0.00
   10   18   10      2.08      0.00
   11   18   10     -0.38      0.00
   12   18   10     -3.09      0.00
   13   18   10      0.16      0.00
   14   18   10      0.87      0.00
   15   18   10     -0.40      0.00
   16   18   10     -2.45      0.00
   17   18   10      1.81      0.00
   18   18   10     -1.41      0.00
   19   18   10     -1.06      0.00
    4   19   10      6.28      0.00
    5   19   10      0.24      0.00
    6   19   10     -0.66      0.00
    7   19   10      2.40      0.00
    8   19   10      2.38      0.00
    9   19   10     -2.08      0.00
   10   19   10      0.92      0.00
   11   19   10      4.02      0.00
   12   19   10     -2.28      0.00
   13   19   10     -1.45      0.00
   14   19   10      0.65      0.00
   15   19   10     -0.61      0.00
   16   19   10     -2.52      0.00
   17   19   10      1.13      0.00
   18   19   10      0.79      0.00
    7   20   10     -0.35      0.00
    8   20   10     -0.37      0.00
    9   20   10      2.45      0.00
   10   20   10      0.84      0.00
   11   20   10     -3.29      0.00
   12   20   10      2.77      0.00
   13   20   10      1.48      0.00
   14   20   10     -2.18      0.00
   15   20   10      1.88      0.00
   16   20   10     -1.21      0.00
   11   21   10     -1.97      0.00
   12   21   10     -3.34      0.00
   13   21   10      2.76      0.00
   -8  -20   11      0.39      0.00
   -7  -20   11     -0.42      0.00
   -6  -20   11      1.30      0.00
   -5  -20   11      4.25      0.00
   -4  -20   11     -3.22      0.00
   -3  -20   11      2.42      0.00
  -11  -19   11     -4.44      0.00
  -10  -19   11      0.48      0.00
   -9  -19   11      1.89      0.00
   -8  -19   11     -0.43      0.00
   -7  -19   11      0.16      0.00
   -6  -19   11      1.96      0.00
   -5  -19   11      2.66      0.00
   -4  -19   11     -2.96      0.00
   -3  -19   11      4.94      0.00
   -2  -19   11      0.69      0.00
   -1  -19   11      0.25      0.00
    0  -19   11      1.44      0.00
  -12  -18   11     -0.71      0.00
  -11  -18   11     -1.74      0.00
  -10  -18   11     -2.39      0.00
   -9  -18   11      0.99      0.00
   -8  -18   11     -1.82      0.00
   -7  -18   11      1.29      0.00
   -6  -18   11      2.91      0.00
   -5  -18   11     -1.06      0.00
   -4  -18   11      1.58      0.00
   -3  -18   11      5.17      0.00
   -2  -18   11     -1.43      0.00
   -1  -18   11     -0.94      0.00
    0  -18   11      2.59      0.00
    1  -18   11     -5.64      0.00
    2  -18   11      2.45      0.00
    3  -18   11      6.20      0.00
  -13  -17   11     -0.56      0.00
  -12  -17   11      2.35      0.00
  -11  -17   11     -1.28      0.00
  -10  -17   11     -1.32      0.00
   -9  -17   11     -0.10      0.00
   -8  -17   11     -2.12      0.00
   -7  -17   11     -0.48      0.00
   -6  -17   11      1.10      0.00
   -5  -17   11      1.48      0.00
   -4  -17   11      3.57      0.00
   -3  -17   11      1.57      0.00
   -2  -17   11     -2.22      0.00
   -1  -17   11      5.06      0.00
    0  -17   11     -2.69      0.00
    1  -17   11     -2.95      0.00
    2  -17   11      7.32      0.00
    3  -17   11     -0.91      0.00
    4  -17   11     -0.47      0.00
  -13  -16   11      1.22      0.00
  -12  -16   11      1.17      0.00
  -11  -16   11     -1.53      0.00
  -10  -16   11      0.99      0.00
   -9  -16   11      2.23      0.00
   -8  -16   11     -3.36      0.00
   -7  -16   11      0.53      0.00
   -6  -16   11      0.14      0.00
   -5  -16   11      0.82      0.00
   -4  -16   11      2.09      0.00
   -3  -16   11     -0.49      0.00
   -2  -16   11      1.34      0.00
   -1  -16   11      4.68      0.00
    0  -16   11      0.07      0.00
    1  -16   11     -1.42      0.00
    2  -16   11      3.98      0.00
    3  -16   11      1.20      0.00
    4  -16   11     -0.89      0.00
    5  -16   11      0.62      0.00
    6  -16   11      0.57      0.00
  -14  -15   11      1.12      0.00
  -13  -15   11      0.71      0.00
  -12  -15   11      0.38      0.00
  -11  -15   11      0.69      0.00
  -10  -15   11      0.35      0.00
   -9  -15   11      0.69      0.00
   -8  -15   11      0.66      0.00
   -7  -15   11      0.44      0.00
   -6  -15   11      0.00      0.00
   -5  -15   11      1.41      0.00
   -4  -15   11     -1.73      0.00
   -3  -15   11      0.33      0.00
   -2  -15   11      2.46      0.00
   -1  -15   11      4.83      0.00
    0  -15   11      0.43      0.00
    1  -15   11      1.13      0.00
    2  -15   11      2.58      0.00
    3  -15   11     -1.67      0.00
    4  -15   11      1.25      0.00
    5  -15   11      0.30      0.00
    6  -15   11     -1.54      0.00
    7  -15   11      0.02      0.00
  -14  -14   11     -0.34      0.00
  -13  -14   11     -0.08      0.00
  -12  -14   11     -1.16      0.00
  -11  -14   11      2.83      0.00
  -10  -14   11      0.03      0.00
   -9  -14   11      0.50      0.00
   -8  -14   11      0.47      0.00
   -7  -14   11      0.42      0.00
   -6  -14   11     -1.94      0.00
   -5  -14   11      3.04      0.00
   -4  -14   11      0.97      0.00
   -3  -14   11     -2.15      0.00
   -2  -14   11      3.58      0.00
   -1  -14   11      1.75      0.00
    0  -14   11     -0.78      0.00
    1  -14   11      6.89      0.00
    2  -14   11     -0.63      0.00
    3  -14   11     -5.07      0.00
    4  -14   11      1.00      0.00
    5  -14   11      3.68      0.00
    6  -14   11     -0.85      0.00
    7  -14   11     -1.53      0.00
    8  -14   11      2.74      0.00
  -15  -13   11      0.70      0.00
  -14  -13   11     -0.42      0.00
  -13  -13   11     -0.16      0.00
  -12  -13   11     -1.27      0.00
  -11  -13   11     -0.97      0.00
  -10  -13   11      0.99      0.00
   -9  -13   11      2.42      0.00
   -8  -13   11     -0.37      0.00
   -7  -13   11     -0.98      0.00
   -6  -13   11     -1.19      0.00
   -5  -13   11      1.64      0.00
   -4  -13   11      1.82      0.00
   -3  -13   11      2.17      0.00
   -2  -13   11      0.19      0.00
   -1  -13   11     -0.83      0.00
    0  -13   11     -2.57      0.00
    1  -13   11      5.11      0.00
    2  -13   11     -0.54      0.00
    3  -13   11     -4.81      0.00
    4  -13   11      6.34      0.00
    5  -13   11      1.74      0.00
    6  -13   11     -3.19      0.00
    7  -13   11      1.33      0.00
    8  -13   11      0.68      0.00
    9  -13   11     -0.94      0.00
  -15  -12   11      0.98      0.00
  -14  -12   11      3.06      0.00
  -13  -12   11      1.37      0.00
  -12  -12   11     -4.13      0.00
  -11  -12   11     -0.18      0.00
  -10  -12   11     -1.24      0.00
   -9  -12   11      2.03      0.00
   -8  -12   11      0.53      0.00
   -7  -12   11      0.61      0.00
   -6  -12   11     -0.78      0.00
   -5  -12   11      2.35      0.00
   -4  -12   11      0.72      0.00
   -3  -12   11     -1.15      0.00
   -2  -12   11      2.95      0.00
   -1  -12   11     -1.91      0.00
    0  -12   11     -2.17      0.00
    1  -12   11     -0.60      0.00
    2  -12   11     -4.41      0.00
    3  -12   11      2.65      0.00
    4  -12   11      3.27      0.00
    5  -12   11      2.19      0.00
    6  -12   11     -0.49      0.00
    7  -12   11      0.99      0.00
    8  -12   11      2.14      0.00
    9  -12   11     -2.88      0.00
   10  -12   11     -1.88      0.00
   11  -12   11     -0.39      0.00
  -15  -11   11      1.78      0.00
  -14  -11   11      3.77      0.00
  -13  -11   11      0.59      0.00
  -12  -11   11     -0.62      0.00
  -11  -11   11     -0.92      0.00
  -10  -11   11     -2.13      0.00
   -9  -11   11      1.66      0.00
   -8  -11   11      1.89      0.00
   -7  -11   11     -1.02      0.00
   -6  -11   11      2.57      0.00
   -5  -11   11      3.26      0.00
   -4  -11   11      1.04      0.00
   -3  -11   11     -6.37      0.00
   -2  -11   11      1.39      0.00
   -1  -11   11      1.63      0.00
    0  -11   11     -0.37      0.00
    1  -11   11     -0.90      0.00
    2  -11   11     -3.65      0.00
    3  -11   11     -4.06      0.00
    4  -11   11     -2.58      0.00
    5  -11   11      5.71      0.00
    6  -11   11      0.85      0.00
    7  -11   11      3.13      0.00
    8  -11   11      5.51      0.00
    9  -11   11     -1.33      0.00
   10  -11   11     -6.02      0.00
   11  -11   11     -1.22      0.00
   12  -11   11      1.66      0.00
  -15  -10   11      1.04      0.00
  -14  -10   11      0.77      0.00
  -13  -10   11      0.25      0.00
  -12  -10   11     -0.37      0.00
  -11  -10   11      0.25      0.00
  -10  -10   11     -0.19      0.00
   -9  -10   11      2.61      0.00
   -8  -10   11     -0.17      0.00
   -7  -10   11      0.02      0.00
   -6  -10   11      3.21      0.00
   -5  -10   11      2.44      0.00
   -4  -10   11     -0.39      0.00
   -3  -10   11     -2.06      0.00
   -2  -10   11      0.84      0.00
   -1  -10   11     -0.94      0.00
    0  -10   11      3.19      0.00
    1  -10   11     -1.17      0.00
    2  -10   11     -4.55      0.00
    3  -10   11     -2.00      0.00
    4  -10   11     -6.33      0.00
    5  -10   11      0.47      0.00
    6  -10   11      1.59      0.00
    7  -10   11      2.68      0.00
    8  -10   11      1.86      0.00
    9  -10   11      4.68      0.00
   10  -10   11     -0.46      0.00
   11  -10   11     -2.28      0.00
   12  -10   11     -1.20      0.00
  -15   -9   11      1.19      0.00
  -14   -9   11     -0.25      0.00
  -13   -9   11     -0.15      0.00
  -12   -9   11     -2.38      0.00
  -11   -9   11      0.77      0.00
  -10   -9   11      2.43      0.00
   -9   -9   11     -0.04      0.00
   -8   -9   11      0.24      0.00
   -7   -9   11      1.09      0.00
   -6   -9   11      5.73      0.00
   -5   -9   11     -4.20      0.00
   -4   -9   11      3.33      0.00
   -3   -9   11     -1.45      0.00
   -2   -9   11      3.77      0.00
   -1   -9   11      2.52      0.00
    0   -9   11      2.33      0.00
    1   -9   11     -7.01      0.00
    2   -9   11     -0.77      0.00
    3   -9   11      1.94      0.00
    4   -9   11     -8.96      0.00
    5   -9   11      2.88      0.00
    6   -9   11     -3.87      0.00
    7   -9   11     -0.49      0.00
    8   -9   11     -1.31      0.00
    9   -9   11      4.01      0.00
   10   -9   11      0.41      0.00
   11   -9   11      5.34      0.00
   12   -9   11      2.85      0.00
   13   -9   11     -5.70      0.00
  -15   -8   11     -0.96      0.00
  -14   -8   11     -1.00      0.00
  -13   -8   11      1.20      0.00
  -12   -8   11     -1.81      0.00
  -11   -8   11      2.53      0.00
  -10   -8   11      0.71      0.00
   -9   -8   11     -0.06      0.00
   -8   -8   11     -3.66      0.00
   -7   -8   11      1.97      0.00
   -6   -8   11      7.47      0.00
   -5   -8   11     -1.50      0.00
   -4   -8   11     -1.59      0.00
   -3   -8   11     -0.20      0.00
   -2   -8   11      8.03      0.00
   -1   -8   11      0.01      0.00
    0   -8   11      3.66      0.00
    1   -8   11     -1.06      0.00
    2   -8   11     -2.63      0.00
    3   -8   11      1.64      0.00
    4   -8   11     -7.29      0.00
    5   -8   11      2.98      0.00
    6   -8   11     -2.63      0.00
    7   -8   11     -6.42      0.00
    8   -8   11      0.83      0.00
    9   -8   11      0.56      0.00
   10   -8   11     -3.96      0.00
   11   -8   11      6.74      0.00
   12   -8   11      5.83      0.00
   13   -8   11     -2.64      0.00
   14   -8   11     -2.02      0.00
  -15   -7   11     -0.07      0.00
  -14   -7   11     -2.61      0.00
  -13   -7   11     -0.30      0.00
  -12   -7   11      1.18      0.00
  -11   -7   11      0.99      0.00
  -10   -7   11      1.07      0.00
   -9   -7   11      1.38      0.00
   -8   -7   11     -2.40      0.00
   -7   -7   11     -2.91      0.00
   -6   -7   11      6.59      0.00
   -5   -7   11     -0.95      0.00
   -4   -7   11      1.05      0.00
   -3   -7   11      1.66      0.00
   -2   -7   11      5.41      0.00
   -1   -7   11     -3.40      0.00
    0   -7   11      3.53      0.00
    1   -7   11      4.60      0.00
    2   -7   11      1.30      0.00
    3   -7   11     -2.21      0.00
    4   -7   11     -1.33      0.00
    5   -7   11      5.86      0.00
    6   -7   11    -13.18      0.00
    7   -7   11      1.91      0.00
    8   -7   11     -6.08      0.00
    9   -7   11      1.34      0.00
   10   -7   11     -1.45      0.00
   11   -7   11      3.48      0.00
   12   -7   11      0.93      0.00
   13   -7   11      1.16      0.00
   14   -7   11      0.78      0.00
   15   -7   11     -1.50      0.00
  -14   -6   11     -0.22      0.00
  -13   -6   11     -0.24      0.00
  -12   -6   11     -1.50      0.00
  -11   -6   11      1.59      0.00
  -10   -6   11      1.19      0.00
   -9   -6   11     -2.06      0.00
   -8   -6   11      0.24      0.00
   -7   -6   11      2.53      0.00
   -6   -6   11     -0.40      0.00
   -5   -6   11     -4.92      0.00
   -4   -6   11      1.42      0.00
   -3   -6   11     12.82      0.00
   -2   -6   11     -0.47      0.00
   -1   -6   11    -13.08      0.00
    0   -6   11     11.23      0.00
    1   -6   11      1.19      0.00
    2   -6   11      1.59      0.00
    3   -6   11      7.06      0.00
    4   -6   11      0.76      0.00
    5   -6   11     -4.54      0.00
    6   -6   11     -6.80      0.00
    7   -6   11      3.16      0.00
    8   -6   11     -9.14      0.00
    9   -6   11     -2.96      0.00
   10   -6   11      7.15      0.00
   11   -6   11     -0.23      0.00
   12   -6   11     -1.63      0.00
   13   -6   11      3.44      0.00
   14   -6   11     -1.65      0.00
   15   -6   11     -3.28      0.00
   16   -6   11      3.19      0.00
  -14   -5   11     -2.00      0.00
  -13   -5   11     -0.82      0.00
  -12   -5   11      0.29      0.00
  -11   -5   11      2.75      0.00
  -10   -5   11     -0.61      0.00
   -9   -5   11     -1.90      0.00
   -8   -5   11     -2.57      0.00
   -7   -5   11      1.05      0.00
   -6   -5   11      4.61      0.00
   -5   -5   11     -9.50      0.00
   -4   -5   11      3.73      0.00
   -3   -5   11      6.32      0.00
   -2   -5   11     -0.53      0.00
   -1   -5   11     -5.22      0.00
    0   -5   11      1.37      0.00
    1   -5   11      6.13      0.00
    2   -5   11      0.33      0.00
    3   -5   11      8.79      0.00
    4   -5   11      5.71      0.00
    5   -5   11    -10.77      0.00
    6   -5   11     -8.05      0.00
    7   -5   11      9.89      0.00
    8   -5   11    -11.67      0.00
    9   -5   11     -0.34      0.00
   10   -5   11      0.31      0.00
   11   -5   11      6.94      0.00
   12   -5   11     -3.80      0.00
   13   -5   11      0.18      0.00
   14   -5   11      1.08      0.00
   15   -5   11     -3.19      0.00
   16   -5   11     -0.15      0.00
  -14   -4   11     -0.46      0.00
  -13   -4   11     -2.99      0.00
  -12   -4   11      2.02      0.00
  -11   -4   11      1.19      0.00
  -10   -4   11      0.02      0.00
   -9   -4   11     -0.66      0.00
   -8   -4   11      1.59      0.00
   -7   -4   11     -2.34      0.00
   -6   -4   11     -4.23      0.00
   -5   -4   11      0.84      0.00
   -4   -4   11      2.45      0.00
   -3   -4   11      2.20      0.00
   -2   -4   11     -7.03      0.00
   -1   -4   11     -1.27      0.00
    0   -4   11      8.27      0.00
    1   -4   11     -4.83      0.00
    2   -4   11      7.98      0.00
    3   -4   11      4.76      0.00
    4   -4   11      5.66      0.00
    5   -4   11     -5.57      0.00
    6   -4   11     -5.36      0.00
    7   -4   11      3.25      0.00
    8   -4   11     -6.51      0.00
    9   -4   11     -0.05      0.00
   10   -4   11      3.85      0.00
   11   -4   11     -2.81      0.00
   12   -4   11     -0.93      0.00
   13   -4   11      0.51      0.00
   14   -4   11      2.67      0.00
   15   -4   11     -1.94      0.00
   16   -4   11     -0.14      0.00
   17   -4   11     -0.84      0.00
  -14   -3   11      0.36      0.00
  -13   -3   11      0.47      0.00
  -12   -3   11      0.82      0.00
  -11   -3   11     -1.67      0.00
  -10   -3   11     -1.11      0.00
   -9   -3   11      1.67      0.00
   -8   -3   11      2.31      0.00
   -7   -3   11      1.92      0.00
   -6   -3   11     -6.76      0.00
   -5   -3   11     -0.87      0.00
   -4   -3   11      6.33      0.00
   -3   -3   11     -2.82      0.00
   -2   -3   11      1.04      0.00
   -1   -3   11     -8.02      0.00
    0   -3   11      1.85      0.00
    1   -3   11      4.66      0.00
    2   -3   11      3.86      0.00
    3   -3   11      3.90      0.00
    4   -3   11      4.29      0.00
    5   -3   11      0.02      0.00
    6   -3   11     -6.55      0.00
    7   -3   11      7.24      0.00
    8   -3   11     -4.30      0.00
    9   -3   11      2.96      0.00
   10   -3   11     -0.49      0.00
   11   -3   11     -2.86      0.00
   12   -3   11     -7.07      0.00
   13   -3   11      4.54      0.00
   14   -3   11      2.53      0.00
   15   -3   11     -0.35      0.00
   16   -3   11      2.47      0.00
   17   -3   11     -2.29      0.00
  -13   -2   11      0.10      0.00
  -12   -2   11     -0.28      0.00
  -11   -2   11     -0.71      0.00
  -10   -2   11      0.80      0.00
   -9   -2   11     -0.97      0.00
   -8   -2   11      0.85      0.00
   -7   -2   11     -2.15      0.00
   -6   -2   11      3.53      0.00
   -5   -2   11      3.25      0.00
   -4   -2   11     -3.39      0.00
   -3   -2   11      1.31      0.00
   -2   -2   11     -3.04      0.00
   -1   -2   11      1.22      0.00
    0   -2   11     -0.13      0.00
    1   -2   11      1.53      0.00
    2   -2   11      9.88      0.00
    3   -2   11    -10.94      0.00
    4   -2   11     12.16      0.00
    5   -2   11      0.17      0.00
    6   -2   11     -5.59      0.00
    7   -2   11      8.83      0.00
    8   -2   11      5.58      0.00
    9   -2   11      0.69      0.00
   10   -2   11     -4.54      0.00
   11   -2   11     -5.04      0.00
   12   -2   11      1.70      0.00
   13   -2   11     -2.50      0.00
   14   -2   11      2.02      0.00
   15   -2   11     -0.09      0.00
   16   -2   11      5.48      0.00
   17   -2   11     -4.10      0.00
   18   -2   11     -1.43      0.00
  -13   -1   11     -2.40      0.00
  -12   -1   11     -1.44      0.00
  -11   -1   11     -0.74      0.00
  -10   -1   11      1.80      0.00
   -9   -1   11      1.48      0.00
   -8   -1   11     -3.55      0.00
   -7   -1   11      0.32      0.00
   -6   -1   11     -0.97      0.00
   -5   -1   11      7.66      0.00
   -4   -1   11      1.12      0.00
   -3   -1   11     -6.88      0.00
   -2   -1   11     -2.18      0.00
   -1   -1   11     -1.24      0.00
    0   -1   11     14.57      0.00
    1   -1   11      0.58      0.00
    2   -1   11      1.03      0.00
    3   -1   11    -11.34      0.00
    4   -1   11      7.67      0.00
    5   -1   11      6.13      0.00
    6   -1   11     -6.60      0.00
    7   -1   11     16.71      0.00
    8   -1   11      4.67      0.00
    9   -1   11     -1.35      0.00
   10   -1   11     -5.28      0.00
   11   -1   11      0.55      0.00
   12   -1   11     -2.15      0.00
   13   -1   11      1.49      0.00
   14   -1   11     -0.53      0.00
   15   -1   11      1.85      0.00
   16   -1   11      0.89      0.00
   17   -1   11     -1.93      0.00
   18   -1   11      0.08      0.00
  -13    0   11     -0.56      0.00
  -12    0   11     -0.58      0.00
  -11    0   11     -1.93      0.00
  -10    0   11     -1.05      0.00
   -9    0   11     -1.56      0.00
   -8    0   11      1.58      0.00
   -7    0   11      3.58      0.00
   -6    0   11     -2.37      0.00
   -5    0   11     -1.31      0.00
   -4    0   11      5.14      0.00
   -3    0   11     -2.68      0.00
   -2    0   11     -6.75      0.00
   -1    0   11      6.18      0.00
    0    0   11      6.42      0.00
    1    0   11      3.15      0.00
    2    0   11     -1.09      0.00
    3    0   11    -10.49      0.00
    4    0   11      8.36      0.00
    5    0   11     -0.67      0.00
    6    0   11      2.89      0.00
    7    0   11     14.24      0.00
    8    0   11      8.89      0.00
    9    0   11     -4.89      0.00
   10    0   11     -1.17      0.00
   11    0   11      0.90      0.00
   12    0   11     -2.20      0.00
   13    0   11      0.71      0.00
   14    0   11      2.67      0.00
   15    0   11     -1.27      0.00
   16    0   11      2.11      0.00
   17    0   11     -2.69      0.00
   18    0   11      1.10      0.00
   19    0   11      0.08      0.00
  -12    1   11      0.90      0.00
  -11    1   11     -2.40      0.00
  -10    1   11     -0.83      0.00
   -9    1   11     -3.83      0.00
   -8    1   11     -0.72      0.00
   -7    1   11      5.21      0.00
   -6    1   11     -1.32      0.00
   -5    1   11      3.80      0.00
   -4    1   11     -2.74      0.00
   -3    1   11     -5.40      0.00
   -2    1   11      1.14      0.00
   -1    1   11      9.41      0.00
    0    1   11      8.41      0.00
    1    1   11    -14.39      0.00
    2    1   11      5.33      0.00
    3    1   11     -8.98      0.00
    4    1   11      2.83      0.00
    5    1   11      0.77      0.00
    6    1   11      7.80      0.00
    7    1   11     13.34      0.00
    8    1   11     -0.71      0.00
    9    1   11      5.00      0.00
   10    1   11      0.49      0.00
   11    1   11      1.31      0.00
   12    1   11      0.21      0.00
   13    1   11      2.54      0.00
   14    1   11     -0.75      0.00
   15    1   11     -1.60      0.00
   16    1   11     -0.47      0.00
   17    1   11      1.21      0.00
   18    1   11     -1.81      0.00
   19    1   11      2.43      0.00
  -12    2   11     -0.39      0.00
  -11    2   11     -1.87      0.00
  -10    2   11     -1.66      0.00
   -9    2   11      0.75      0.00
   -8    2   11     -0.15      0.00
   -7    2   11     -0.90      0.00
   -6    2   11     -1.31      0.00
   -5    2   11      5.49      0.00
   -4    2   11      2.17      0.00
   -3    2   11     -9.89      0.00
   -2    2   11     -0.39      0.00
   -1    2   11     16.22      0.00
    0    2   11      2.94      0.00
    1    2   11     -9.34      0.00
    2    2   11      0.33      0.00
    3    2   11     -4.62      0.00
    4    2   11    -10.41      0.00
    5    2   11      8.11      0.00
    6    2   11     12.25      0.00
    7    2   11      1.20      0.00
    8    2   11      0.44      0.00
    9    2   11      1.91      0.00
   10    2   11      7.33      0.00
   11    2   11      4.90      0.00
   12    2   11      2.30      0.00
   13    2   11      0.18      0.00
   14    2   11     -0.36      0.00
   15    2   11     -1.23      0.00
   16    2   11     -1.11      0.00
   17    2   11     -0.44      0.00
   18    2   11     -0.35      0.00
   19    2   11      0.04      0.00
   20    2   11      1.94      0.00
  -11    3   11     -1.76      0.00
  -10    3   11     -0.96      0.00
   -9    3   11     -0.77      0.00
   -8    3   11      2.28      0.00
   -7    3   11      2.09      0.00
   -6    3   11     -2.12      0.00
   -5    3   11      0.64      0.00
   -4    3   11     -2.17      0.00
   -3    3   11      0.46      0.00
   -2    3   11      8.38      0.00
   -1    3   11      0.25      0.00
    0    3   11     -1.11      0.00
    1    3   11     -4.03      0.00
    2    3   11      9.43      0.00
    3    3   11     -8.59      0.00
    4    3   11     -3.87      0.00
    5    3   11      1.10      0.00
    6    3   11      8.07      0.00
    7    3   11     -4.53      0.00
    8    3   11     -2.27      0.00
    9    3   11      7.80      0.00
   10    3   11      2.95      0.00
   11    3   11      7.76      0.00
   12    3   11      3.41      0.00
   13    3   11     -1.85      0.00
   14    3   11     -1.11      0.00
   15    3   11      1.61      0.00
   16    3   11     -0.85      0.00
   17    3   11      1.18      0.00
   18    3   11     -3.65      0.00
   19    3   11      2.28      0.00
   20    3   11     -0.63      0.00
  -11    4   11     -1.17      0.00
  -10    4   11      1.48      0.00
   -9    4   11     -1.82      0.00
   -8    4   11     -1.68      0.00
   -7    4   11      2.39      0.00
   -6    4   11      2.44      0.00
   -5    4   11     -0.51      0.00
   -4    4   11     -6.26      0.00
   -3    4   11      6.69      0.00
   -2    4   11      8.78      0.00
   -1    4   11     -1.85      0.00
    0    4   11     -6.49      0.00
    1    4   11     -2.67      0.00
    2    4   11      4.66      0.00
    3    4   11      2.30      0.00
    4    4   11      2.67      0.00
    5    4   11      3.90      0.00
    6    4   11     -9.11      0.00
    7    4   11     -3.13      0.00
    8    4   11      0.01      0.00
    9    4   11      1.71      0.00
   10    4   11      5.29      0.00
   11    4   11      3.54      0.00
   12    4   11      4.48      0.00
   13    4   11     -2.72      0.00
   14    4   11     -1.14      0.00
   15    4   11      1.80      0.00
   16    4   11     -0.77      0.00
   17    4   11      0.39      0.00
   18    4   11     -0.69      0.00
   19    4   11      1.25      0.00
   20    4   11      2.09      0.00
  -10    5   11     -0.80      0.00
   -9    5   11     -0.91      0.00
   -8    5   11      0.25      0.00
   -7    5   11     -0.64      0.00
   -6    5   11     -0.93      0.00
   -5    5   11      0.28      0.00
   -4    5   11      0.35      0.00
   -3    5   11      6.62      0.00
   -2    5   11      2.36      0.00
   -1    5   11     -7.50      0.00
    0    5   11      7.01      0.00
    1    5   11     -7.21      0.00
    2    5   11     -3.32      0.00
    3    5   11      7.68      0.00
    4    5   11      6.58      0.00
    5    5   11     -0.25      0.00
    6    5   11      0.54      0.00
    7    5   11     -8.26      0.00
    8    5   11     -0.99      0.00
    9    5   11     -0.44      0.00
   10    5   11     -1.44      0.00
   11    5   11      7.42      0.00
   12    5   11      1.53      0.00
   13    5   11     -2.25      0.00
   14    5   11     -1.40      0.00
   15    5   11      0.95      0.00
   16    5   11     -1.58      0.00
   17    5   11      1.03      0.00
   18    5   11     -0.49      0.00
   19    5   11      4.43      0.00
   20    5   11     -0.80      0.00
   21    5   11      1.93      0.00
   -9    6   11     -2.66      0.00
   -8    6   11      1.72      0.00
   -7    6   11      0.19      0.00
   -6    6   11     -1.21      0.00
   -5    6   11     -2.20      0.00
   -4    6   11      2.15      0.00
   -3    6   11      7.44      0.00
   -2    6   11     -2.60      0.00
   -1    6   11     -4.40      0.00
    0    6   11      1.96      0.00
    1    6   11      0.28      0.00
    2    6   11     -7.30      0.00
    3    6   11      8.09      0.00
    4    6   11      7.00      0.00
    5    6   11     -6.93      0.00
    6    6   11      1.39      0.00
    7    6   11      7.49      0.00
    8    6   11    -10.47      0.00
    9    6   11     -1.53      0.00
   10    6   11      5.10      0.00
   11    6   11     -2.08      0.00
   12    6   11      1.46      0.00
   13    6   11     -0.13      0.00
   14    6   11     -1.24      0.00
   15    6   11     -1.89      0.00
   16    6   11     -0.25      0.00
   17    6   11      3.25      0.00
   18    6   11      0.82      0.00
   19    6   11     -0.11      0.00
   20    6   11      3.37      0.00
   21    6   11      0.92      0.00
   -9    7   11     -0.28      0.00
   -8    7   11     -2.33      0.00
   -7    7   11      1.38      0.00
   -6    7   11     -2.24      0.00
   -5    7   11      0.95      0.00
   -4    7   11      2.91      0.00
   -3    7   11      1.72      0.00
   -2    7   11     -0.78      0.00
   -1    7   11     -3.45      0.00
    0    7   11      4.07      0.00
    1    7   11     -6.69      0.00
    2    7   11     -0.59      0.00
    3    7   11      6.13      0.00
    4    7   11      1.56      0.00
    5    7   11     -3.67      0.00
    6    7   11      0.37      0.00
    7    7   11      1.09      0.00
    8    7   11     -1.33      0.00
    9    7   11      1.01      0.00
   10    7   11      3.80      0.00
   11    7   11     -2.76      0.00
   12    7   11     -2.10      0.00
   13    7   11      2.74      0.00
   14    7   11     -2.46      0.00
   15    7   11      0.44      0.00
   16    7   11     -0.57      0.00
   17    7   11      2.91      0.00
   18    7   11      1.02      0.00
   19    7   11      1.40      0.00
   20    7   11      1.20      0.00
   21    7   11      2.17      0.00
   -8    8   11      0.83      0.00
   -7    8   11     -1.60      0.00
   -6    8   11     -2.62      0.00
   -5    8   11      1.90      0.00
   -4    8   11      3.70      0.00
   -3    8   11     -1.51      0.00
   -2    8   11     -0.75      0.00
   -1    8   11      0.87      0.00
    0    8   11     -1.14      0.00
    1    8   11     -0.64      0.00
    2    8   11      0.16      0.00
    3    8   11      2.86      0.00
    4    8   11     -5.10      0.00
    5    8   11     -0.33      0.00
    6    8   11      2.31      0.00
    7    8   11     -3.06      0.00
    8    8   11     -2.06      0.00
    9    8   11      8.22      0.00
   10    8   11     -1.60      0.00
   11    8   11     -2.46      0.00
   12    8   11      1.36      0.00
   13    8   11      0.16      0.00
   14    8   11      0.78      0.00
   15    8   11     -0.81      0.00
   16    8   11      1.75      0.00
   17    8   11      1.31      0.00
   18    8   11     -0.31      0.00
   19    8   11      2.34      0.00
   20    8   11      2.73      0.00
   21    8   11     -1.33      0.00
   -7    9   11      1.17      0.00
   -6    9   11     -3.02      0.00
   -5    9   11      0.87      0.00
   -4    9   11     -0.15      0.00
   -3    9   11     -1.62      0.00
   -2    9   11      2.74      0.00
   -1    9   11     -1.05      0.00
    0    9   11     -3.40      0.00
    1    9   11      4.65      0.00
    2    9   11      4.53      0.00
    3    9   11     -5.53      0.00
    4    9   11     -1.09      0.00
    5    9   11     -2.09      0.00
    6    9   11     -4.41      0.00
    7    9   11      2.53      0.00
    8    9   11      2.21      0.00
    9    9   11     -0.87      0.00
   10    9   11      2.18      0.00
   11    9   11     -2.14      0.00
   12    9   11      0.12      0.00
   13    9   11      3.49      0.00
   14    9   11     -1.27      0.00
   15    9   11      1.03      0.00
   16    9   11     -1.96      0.00
   17    9   11      4.19      0.00
   18    9   11      0.21      0.00
   19    9   11      0.89      0.00
   20    9   11     -0.61      0.00
   21    9   11      1.90      0.00
   -6   10   11      0.38      0.00
   -5   10   11     -1.75      0.00
   -4   10   11     -2.46      0.00
   -3   10   11     -0.78      0.00
   -2   10   11      1.10      0.00
   -1   10   11     -0.65      0.00
    0   10   11      1.53      0.00
    1   10   11      2.49      0.00
    2   10   11      0.25      0.00
    3   10   11     -2.27      0.00
    4   10   11      1.20      0.00
    5   10   11     -2.45      0.00
    6   10   11     -6.53      0.00
    7   10   11      3.98      0.00
    8   10   11     -0.20      0.00
    9   10   11     -0.97      0.00
   10   10   11      0.19      0.00
   11   10   11      1.58      0.00
   12   10   11      0.30      0.00
   13   10   11      1.93      0.00
   14   10   11      0.57      0.00
   15   10   11     -0.26      0.00
   16   10   11      0.29      0.00
   17   10   11     -2.13      0.00
   18   10   11      2.36      0.00
   19   10   11      0.18      0.00
   20   10   11     -0.65      0.00
   21   10   11      0.78      0.00
   -5   11   11      2.33      0.00
   -4   11   11     -0.39      0.00
   -3   11   11     -3.73      0.00
   -2   11   11     -0.93      0.00
   -1   11   11      0.71      0.00
    0   11   11      2.39      0.00
    1   11   11      2.68      0.00
    2   11   11     -2.02      0.00
    3   11   11     -0.25      0.00
    4   11   11      1.06      0.00
    5   11   11     -2.38      0.00
    6   11   11     -1.47      0.00
    7   11   11      0.31      0.00
    8   11   11     -2.32      0.00
    9   11   11     -1.59      0.00
   10   11   11      0.91      0.00
   11   11   11      1.66      0.00
   12   11   11      1.80      0.00
   13   11   11     -1.26      0.00
   14   11   11      1.71      0.00
   15   11   11      4.54      0.00
   16   11   11     -2.72      0.00
   17   11   11      1.09      0.00
   18   11   11     -5.36      0.00
   19   11   11     -0.60      0.00
   20   11   11      1.58      0.00
   21   11   11      2.00      0.00
   -4   12   11      0.73      0.00
   -3   12   11     -0.01      0.00
   -2   12   11     -1.66      0.00
   -1   12   11      0.37      0.00
    0   12   11     -1.64      0.00
    1   12   11      0.19      0.00
    2   12   11      4.51      0.00
    3   12   11     -0.45      0.00
    4   12   11     -0.93      0.00
    5   12   11     -0.14      0.00
    6   12   11     -1.70      0.00
    7   12   11      1.62      0.00
    8   12   11     -2.81      0.00
    9   12   11     -1.67      0.00
   10   12   11      0.02      0.00
   11   12   11      1.89      0.00
   12   12   11     -2.21      0.00
   13   12   11      1.05      0.00
   14   12   11      1.00      0.00
   15   12   11      3.98      0.00
   16   12   11      0.33      0.00
   17   12   11     -2.08      0.00
   18   12   11      0.51      0.00
   19   12   11     -3.60      0.00
   20   12   11     -1.13      0.00
   21   12   11      1.32      0.00
   -3   13   11      0.99      0.00
   -2   13   11     -1.54      0.00
   -1   13   11      1.66      0.00
    0   13   11      1.06      0.00
    1   13   11     -2.42      0.00
    2   13   11      0.48      0.00
    3   13   11     -0.72      0.00
    4   13   11      1.01      0.00
    5   13   11      1.70      0.00
    6   13   11     -0.40      0.00
    7   13   11      0.02      0.00
    8   13   11      1.07      0.00
    9   13   11     -0.34      0.00
   10   13   11     -1.05      0.00
   11   13   11     -2.12      0.00
   12   13   11     -0.81      0.00
   13   13   11     -0.23      0.00
   14   13   11      0.05      0.00
   15   13   11      4.97      0.00
   16   13   11     -1.63      0.00
   17   13   11     -2.30      0.00
   18   13   11     -0.54      0.00
   19   13   11      3.12      0.00
   20   13   11     -2.14      0.00
   21   13   11     -0.61      0.00
   -2   14   11     -3.88      0.00
   -1   14   11      0.92      0.00
    0   14   11      2.69      0.00
    1   14   11      1.17      0.00
    2   14   11     -2.71      0.00
    3   14   11     -3.50      0.00
    4   14   11     -1.41      0.00
    5   14   11      5.98      0.00
    6   14   11     -0.72      0.00
    7   14   11      0.20      0.00
    8   14   11      0.33      0.00
    9   14   11      2.49      0.00
   10   14   11      0.38      0.00
   11   14   11      1.26      0.00
   12   14   11     -3.47      0.00
   13   14   11     -1.41      0.00
   14   14   11     -1.55      0.00
   15   14   11      2.93      0.00
   16   14   11      0.74      0.00
   17   14   11     -1.73      0.00
   18   14   11     -1.88      0.00
   19   14   11     -0.91      0.00
   20   14   11      3.24      0.00
   21   14   11      0.52      0.00
   -1   15   11     -0.20      0.00
    0   15   11     -3.72      0.00
    1   15   11     -0.73      0.00
    2   15   11      3.96      0.00
    3   15   11     -4.42      0.00
    4   15   11     -0.07      0.00
    5   15   11      0.39      0.00
    6   15   11     -0.77      0.00
    7   15   11      0.19      0.00
    8   15   11      1.68      0.00
    9   15   11     -0.27      0.00
   10   15   11      4.50      0.00
   11   15   11      2.17      0.00
   12   15   11     -0.95      0.00
   13   15   11      0.21      0.00
   14   15   11     -2.64      0.00
   15   15   11     -1.37      0.00
   16   15   11     -0.73      0.00
   17   15   11      2.06      0.00
   18   15   11     -0.50      0.00
   19   15   11     -0.39      0.00
   20   15   11     -0.45      0.00
    0   16   11     -1.01      0.00
    1   16   11     -3.23      0.00
    2   16   11     -2.67      0.00
    3   16   11      2.45      0.00
    4   16   11     -3.91      0.00
    5   16   11      0.63      0.00
    6   16   11     -2.44      0.00
    7   16   11      1.25      0.00
    8   16   11     -1.91      0.00
    9   16   11      3.83      0.00
   10   16   11      2.21      0.00
   11   16   11     -0.82      0.00
   12   16   11     -0.69      0.00
   13   16   11      4.69      0.00
   14   16   11      0.44      0.00
   15   16   11     -2.18      0.00
   16   16   11     -3.06      0.00
   17   16   11     -1.71      0.00
   18   16   11      3.36      0.00
   19   16   11      3.07      0.00
   20   16   11     -2.13      0.00
    2   17   11     -2.66      0.00
    3   17   11     -6.81      0.00
    4   17   11      0.50      0.00
    5   17   11     -3.94      0.00
    6   17   11      3.46      0.00
    7   17   11     -1.64      0.00
    8   17   11     -1.97      0.00
    9   17   11      0.29      0.00
   10   17   11      1.36      0.00
   11   17   11      0.16      0.00
   12   17   11     -0.61      0.00
   13   17   11      0.87      0.00
   14   17   11      2.64      0.00
   15   17   11     -1.01      0.00
   16   17   11     -1.24      0.00
   17   17   11     -1.86      0.00
   18   17   11     -0.04      0.00
   19   17   11      3.04      0.00
    3   18   11      0.59      0.00
    4   18   11     -8.31      0.00
    5   18   11     -0.31      0.00
    6   18   11      0.67      0.00
    7   18   11      1.38      0.00
    8   18   11     -4.84      0.00
    9   18   11      1.10      0.00
   10   18   11     -2.18      0.00
   11   18   11     -0.61      0.00
   12   18   11      1.29      0.00
   13   18   11      1.89      0.00
   14   18   11     -1.88      0.00
   15   18   11     -2.87      0.00
   16   18   11      2.72      0.00
   17   18   11     -0.55      0.00
   18   18   11     -2.13      0.00
    5   19   11     -6.43      0.00
    6   19   11      1.48      0.00
    7   19   11     -1.70      0.00
    8   19   11      1.16      0.00
    9   19   11     -2.04      0.00
   10   19   11      1.32      0.00
   11   19   11     -2.68      0.00
   12   19   11     -1.93      0.00
   13   19   11      1.91      0.00
   14   19   11     -0.62      0.00
   15   19   11     -2.14      0.00
   16   19   11      0.86      0.00
   17   19   11     -0.29      0.00
    8   20   11      0.50      0.00
    9   20   11      3.24      0.00
   10   20   11     -3.25      0.00
   11   20   11      2.10      0.00
   12   20   11     -0.35      0.00
   13   20   11     -2.88      0.00
   14   20   11      0.85      0.00
   15   20   11     -0.45      0.00
   16   20   11     -1.12      0.00
   -5  -20   12     -4.94      0.00
   -4  -20   12      3.84      0.00
   -9  -19   12     -0.79      0.00
   -8  -19   12     -0.28      0.00
   -7  -19   12      1.74      0.00
   -6  -19   12      0.25      0.00
   -5  -19   12     -3.41      0.00
   -4  -19   12      3.34      0.00
   -3  -19   12     -1.75      0.00
   -2  -19   12      0.23      0.00
   -1  -19   12      2.09      0.00
    0  -19   12     -4.30      0.00
  -11  -18   12      1.00      0.00
  -10  -18   12      2.52      0.00
   -9  -18   12      0.15      0.00
   -8  -18   12      0.39      0.00
   -7  -18   12      2.94      0.00
   -6  -18   12     -1.38      0.00
   -5  -18   12     -0.92      0.00
   -4  -18   12      1.90      0.00
   -3  -18   12     -1.96      0.00
   -2  -18   12     -0.34      0.00
   -1  -18   12      2.25      0.00
    0  -18   12      0.16      0.00
    1  -18   12      1.91      0.00
    2  -18   12      3.80      0.00
  -12  -17   12     -0.33      0.00
  -11  -17   12     -1.79      0.00
  -10  -17   12      0.87      0.00
   -9  -17   12     -0.14      0.00
   -8  -17   12      0.84      0.00
   -7  -17   12      2.70      0.00
   -6  -17   12      1.12      0.00
   -5  -17   12     -1.26      0.00
   -4  -17   12      1.05      0.00
   -3  -17   12     -3.11      0.00
   -2  -17   12      2.33      0.00
   -1  -17   12      1.03      0.00
    0  -17   12     -0.49      0.00
    1  -17   12      7.64      0.00
    2  -17   12     -3.35      0.00
    3  -17   12     -6.02      0.00
    4  -17   12      3.40      0.00
  -13  -16   12      0.37      0.00
  -12  -16   12     -0.35      0.00
  -11  -16   12     -1.05      0.00
  -10  -16   12      0.34      0.00
   -9  -16   12     -2.45      0.00
   -8  -16   12     -0.12      0.00
   -7  -16   12      3.45      0.00
   -6  -16   12     -0.89      0.00
   -5  -16   12      0.89      0.00
   -4  -16   12     -0.07      0.00
   -3  -16   12     -0.60      0.00
   -2  -16   12      2.29      0.00
   -1  -16   12      1.16      0.00
    0  -16   12     -3.38      0.00
    1  -16   12      5.73      0.00
    2  -16   12     -1.84      0.00
    3  -16   12     -5.71      0.00
    4  -16   12      2.14      0.00
    5  -16   12     -1.54      0.00
    6  -16   12      1.49      0.00
  -13  -15   12     -0.63      0.00
  -12  -15   12      0.13      0.00
  -11  -15   12     -1.40      0.00
  -10  -15   12     -0.28      0.00
   -9  -15   12     -0.57      0.00
   -8  -15   12     -0.59      0.00
   -7  -15   12      0.02      0.00
   -6  -15   12      0.91      0.00
   -5  -15   12     -0.10      0.00
   -4  -15   12      0.07      0.00
   -3  -15   12      1.50      0.00
   -2  -15   12      2.90      0.00
   -1  -15   12     -4.02      0.00
    0  -15   12     -0.03      0.00
    1  -15   12      1.53      0.00
    2  -15   12     -2.88      0.00
    3  -15   12     -1.02      0.00
    4  -15   12      1.07      0.00
    5  -15   12     -5.01      0.00
    6  -15   12      2.49      0.00
    7  -15   12      1.06      0.00
  -14  -14   12      0.49      0.00
  -13  -14   12     -1.26      0.00
  -12  -14   12      1.78      0.00
  -11  -14   12     -0.27      0.00
  -10  -14   12     -1.98      0.00
   -9  -14   12     -1.01      0.00
   -8  -14   12     -0.37      0.00
   -7  -14   12     -0.23      0.00
   -6  -14   12      1.61      0.00
   -5  -14   12      1.50      0.00
   -4  -14   12     -1.57      0.00
   -3  -14   12      2.09      0.00
   -2  -14   12     -0.13      0.00
   -1  -14   12     -3.80      0.00
    0  -14   12      3.73      0.00
    1  -14   12     -1.89      0.00
    2  -14   12     -5.80      0.00
    3  -14   12      3.41      0.00
    4  -14   12      0.48      0.00
    5  -14   12     -3.95      0.00
    6  -14   12     -0.45      0.00
    7  -14   12     -0.32      0.00
    8  -14   12     -0.75      0.00
  -14  -13   12     -1.84      0.00
  -13  -13   12     -2.88      0.00
  -12  -13   12      2.17      0.00
  -11  -13   12      1.30      0.00
  -10  -13   12     -0.34      0.00
   -9  -13   12     -1.05      0.00
   -8  -13   12     -3.83      0.00
   -7  -13   12      1.06      0.00
   -6  -13   12      2.33      0.00
   -5  -13   12     -0.14      0.00
   -4  -13   12      0.52      0.00
   -3  -13   12     -0.38      0.00
   -2  -13   12     -0.42      0.00
   -1  -13   12     -3.51      0.00
    0  -13   12      5.19      0.00
    1  -13   12     -2.28      0.00
    2  -13   12     -1.71      0.00
    3  -13   12      1.87      0.00
    4  -13   12      1.33      0.00
    5  -13   12     -8.56      0.00
    6  -13   12      0.74      0.00
    7  -13   12     -1.46      0.00
    8  -13   12     -2.06      0.00
    9  -13   12     -0.08      0.00
  -14  -12   12     -2.74      0.00
  -13  -12   12     -5.67      0.00
  -12  -12   12      0.57      0.00
  -11  -12   12      1.15      0.00
  -10  -12   12      1.99      0.00
   -9  -12   12     -0.48      0.00
   -8  -12   12     -2.50      0.00
   -7  -12   12     -1.10      0.00
   -6  -12   12      1.33      0.00
   -5  -12   12     -1.96      0.00
   -4  -12   12     -1.23      0.00
   -3  -12   12      1.59      0.00
   -2  -12   12      0.84      0.00
   -1  -12   12     -2.74      0.00
    0  -12   12      2.98      0.00
    1  -12   12     -1.59      0.00
    2  -12   12      3.09      0.00
    3  -12   12      4.11      0.00
    4  -12   12     -3.82      0.00
    5  -12   12     -4.00      0.00
    6  -12   12     -3.30      0.00
    7  -12   12     -0.80      0.00
    8  -12   12     -3.70      0.00
    9  -12   12     -0.53      0.00
   10  -12   12      2.10      0.00
  -14  -11   12     -2.37      0.00
  -13  -11   12     -3.78      0.00
  -12  -11   12     -0.45      0.00
  -11  -11   12     -1.17      0.00
  -10  -11   12      0.27      0.00
   -9  -11   12      2.00      0.00
   -8  -11   12     -3.50      0.00
   -7  -11   12      1.78      0.00
   -6  -11   12     -2.11      0.00
   -5  -11   12     -3.34      0.00
   -4  -11   12     -2.27      0.00
   -3  -11   12      0.85      0.00
   -2  -11   12      3.67      0.00
   -1  -11   12     -1.32      0.00
    0  -11   12      3.02      0.00
    1  -11   12     -4.14      0.00
    2  -11   12      2.87      0.00
    3  -11   12      0.12      0.00
    4  -11   12      5.09      0.00
    5  -11   12     -2.13      0.00
    6  -11   12     -0.31      0.00
    7  -11   12     -3.30      0.00
    8  -11   12     -6.12      0.00
    9  -11   12     -3.63      0.00
   10  -11   12      1.32      0.00
   11  -11   12      2.94      0.00
  -14  -10   12     -1.93      0.00
  -13  -10   12     -1.35      0.00
  -12  -10   12      1.77      0.00
  -11  -10   12     -0.59      0.00
  -10  -10   12     -1.32      0.00
   -9  -10   12     -2.39      0.00
   -8  -10   12      0.44      0.00
   -7  -10   12     -0.59      0.00
   -6  -10   12     -1.37      0.00
   -5  -10   12     -4.77      0.00
   -4  -10   12      0.47      0.00
   -3  -10   12     -0.94      0.00
   -2  -10   12      2.08      0.00
   -1  -10   12     -0.90      0.00
    0  -10   12      0.92      0.00
    1  -10   12     -2.20      0.00
    2  -10   12      1.10      0.00
    3  -10   12      0.71      0.00
    4  -10   12      2.41      0.00
    5  -10   12      3.87      0.00
    6  -10   12      0.49      0.00
    7  -10   12     -2.12      0.00
    8  -10   12     -3.53      0.00
    9  -10   12     -3.66      0.00
   10  -10   12     -3.06      0.00
   11  -10   12      1.58      0.00
   12  -10   12     -1.36      0.00
  -14   -9   12      0.69      0.00
  -13   -9   12     -1.82      0.00
  -12   -9   12      0.94      0.00
  -11   -9   12      2.16      0.00
  -10   -9   12     -2.13      0.00
   -9   -9   12     -0.07      0.00
   -8   -9   12     -2.15      0.00
   -7   -9   12      1.36      0.00
   -6   -9   12     -6.38      0.00
   -5   -9   12      0.86      0.00
   -4   -9   12     -0.15      0.00
   -3   -9   12     -0.31      0.00
   -2   -9   12     -0.59      0.00
   -1   -9   12     -2.79      0.00
    0   -9   12     -3.74      0.00
    1   -9   12     -0.67      0.00
    2   -9   12      6.83      0.00
    3   -9   12     -3.45      0.00
    4   -9   12      4.43      0.00
    5   -9   12     -0.49      0.00
    6   -9   12      0.94      0.00
    7   -9   12     -0.63      0.00
    8   -9   12      2.49      0.00
    9   -9   12     -3.08      0.00
   10   -9   12     -0.93      0.00
   11   -9   12     -1.26      0.00
   12   -9   12     -6.72      0.00
   13   -9   12      1.33      0.00
  -14   -8   12      3.47      0.00
  -13   -8   12      0.62      0.00
  -12   -8   12     -1.20      0.00
  -11   -8   12      0.20      0.00
  -10   -8   12     -1.92      0.00
   -9   -8   12     -1.33      0.00
   -8   -8   12      3.11      0.00
   -7   -8   12      0.07      0.00
   -6   -8   12     -3.92      0.00
   -5   -8   12     -3.42      0.00
   -4   -8   12      3.55      0.00
   -3   -8   12      0.12      0.00
   -2   -8   12     -3.43      0.00
   -1   -8   12     -4.22      0.00
    0   -8   12      0.74      0.00
    1   -8   12     -4.92      0.00
    2   -8   12      4.01      0.00
    3   -8   12     -1.71      0.00
    4   -8   12      2.93      0.00
    5   -8   12      1.05      0.00
    6   -8   12     -1.92      0.00
    7   -8   12      3.51      0.00
    8   -8   12      2.45      0.00
    9   -8   12     -3.05      0.00
   10   -8   12      1.55      0.00
   11   -8   12     -1.68      0.00
   12   -8   12     -4.81      0.00
   13   -8   12     -0.59      0.00
   14   -8   12      0.71      0.00
  -14   -7   12      1.35      0.00
  -13   -7   12      2.54      0.00
  -12   -7   12      2.21      0.00
  -11   -7   12     -1.72      0.00
  -10   -7   12     -2.72      0.00
   -9   -7   12     -0.27      0.00
   -8   -7   12     -1.92      0.00
   -7   -7   12      5.43      0.00
   -6   -7   12     -3.69      0.00
   -5   -7   12     -0.14      0.00
   -4   -7   12      0.43      0.00
   -3   -7   12      0.45      0.00
   -2   -7   12     -6.12      0.00
   -1   -7   12      1.80      0.00
    0   -7   12     -0.38      0.00
    1   -7   12     -1.24      0.00
    2   -7   12     -2.87      0.00
    3   -7   12     -3.56      0.00
    4   -7   12      7.48      0.00
    5   -7   12     -7.27      0.00
    6   -7   12      5.63      0.00
    7   -7   12      1.41      0.00
    8   -7   12      4.58      0.00
    9   -7   12      0.54      0.00
   10   -7   12     -2.53      0.00
   11   -7   12     -0.11      0.00
   12   -7   12     -2.60      0.00
   13   -7   12     -2.12      0.00
   14   -7   12      1.74      0.00
   15   -7   12      1.20      0.00
  -14   -6   12      1.52      0.00
  -13   -6   12     -0.02      0.00
  -12   -6   12      1.47      0.00
  -11   -6   12      0.75      0.00
  -10   -6   12     -1.86      0.00
   -9   -6   12     -0.50      0.00
   -8   -6   12      2.68      0.00
   -7   -6   12     -2.51      0.00
   -6   -6   12     -2.24      0.00
   -5   -6   12      3.61      0.00
   -4   -6   12      5.47      0.00
   -3   -6   12     -5.44      0.00
   -2   -6   12    -10.00      0.00
   -1   -6   12      8.38      0.00
    0   -6   12      3.66      0.00
    1   -6   12     -7.67      0.00
    2   -6   12      2.82      0.00
    3   -6   12     -4.45      0.00
    4   -6   12     -2.21      0.00
    5   -6   12     -3.28      0.00
    6   -6   12     12.09      0.00
    7   -6   12     -2.86      0.00
    8   -6   12      2.49      0.00
    9   -6   12      9.76      0.00
   10   -6   12     -3.04      0.00
   11   -6   12     -4.52      0.00
   12   -6   12     -1.11      0.00
   13   -6   12     -0.56      0.00
   14   -6   12     -1.89      0.00
   15   -6   12      3.74      0.00
  -14   -5   12      2.00      0.00
  -13   -5   12      2.09      0.00
  -12   -5   12      0.04      0.00
  -11   -5   12     -1.28      0.00
  -10   -5   12     -1.76      0.00
   -9   -5   12      0.94      0.00
   -8   -5   12      1.28      0.00
   -7   -5   12      3.26      0.00
   -6   -5   12     -6.78      0.00
   -5   -5   12      5.33      0.00
   -4   -5   12      3.78      0.00
   -3   -5   12     -3.94      0.00
   -2   -5   12     -4.64      0.00
   -1   -5   12      4.56      0.00
    0   -5   12      1.31      0.00
    1   -5   12     -2.63      0.00
    2   -5   12     -0.95      0.00
    3   -5   12     -1.52      0.00
    4   -5   12     -8.73      0.00
    5   -5   12     -3.45      0.00
    6   -5   12     18.49      0.00
    7   -5   12     -4.79      0.00
    8   -5   12      4.81      0.00
    9   -5   12      5.61      0.00
   10   -5   12      3.62      0.00
   11   -5   12     -4.97      0.00
   12   -5   12     -5.19      0.00
   13   -5   12      3.63      0.00
   14   -5   12     -3.41      0.00
   15   -5   12      2.06      0.00
   16   -5   12      3.52      0.00
  -13   -4   12      1.38      0.00
  -12   -4   12      3.14      0.00
  -11   -4   12     -1.29      0.00
  -10   -4   12     -2.37      0.00
   -9   -4   12      1.01      0.00
   -8   -4   12     -0.84      0.00
   -7   -4   12     -2.01      0.00
   -6   -4   12      4.06      0.00
   -5   -4   12      3.08      0.00
   -4   -4   12     -2.76      0.00
   -3   -4   12     -3.12      0.00
   -2   -4   12      2.22      0.00
   -1   -4   12      8.28      0.00
    0   -4   12     -6.95      0.00
    1   -4   12     -3.05      0.00
    2   -4   12      2.69      0.00
    3   -4   12     -6.11      0.00
    4   -4   12     -4.10      0.00
    5   -4   12     -5.76      0.00
    6   -4   12     12.16      0.00
    7   -4   12     -2.29      0.00
    8   -4   12      5.29      0.00
    9   -4   12      8.63      0.00
   10   -4   12     -2.18      0.00
   11   -4   12     -0.40      0.00
   12   -4   12     -0.08      0.00
   13   -4   12     -0.11      0.00
   14   -4   12     -1.51      0.00
   15   -4   12     -1.06      0.00
   16   -4   12      1.49      0.00
   17   -4   12      1.43      0.00
  -13   -3   12      0.18      0.00
  -12   -3   12     -0.65      0.00
  -11   -3   12      0.45      0.00
  -10   -3   12      2.27      0.00
   -9   -3   12      0.53      0.00
   -8   -3   12     -3.26      0.00
   -7   -3   12     -1.63      0.00
   -6   -3   12     -1.18      0.00
   -5   -3   12      8.53      0.00
   -4   -3   12     -7.26      0.00
   -3   -3   12      0.54      0.00
   -2   -3   12      0.17      0.00
   -1   -3   12      4.24      0.00
    0   -3   12      1.40      0.00
    1   -3   12     -3.79      0.00
    2   -3   12     -2.82      0.00
    3   -3   12     -2.67      0.00
    4   -3   12     -3.88      0.00
    5   -3   12     -5.59      0.00
    6   -3   12      8.22      0.00
    7   -3   12     -3.34      0.00
    8   -3   12      1.91      0.00
    9   -3   12      4.49      0.00
   10   -3   12     -0.16      0.00
   11   -3   12      0.81      0.00
   12   -3   12      4.72      0.00
   13   -3   12      1.96      0.00
   14   -3   12     -3.21      0.00
   15   -3   12     -1.98      0.00
   16   -3   12     -1.71      0.00
   17   -3   12      0.98      0.00
  -13   -2   12      0.76      0.00
  -12   -2   12     -1.73      0.00
  -11   -2   12      1.99      0.00
  -10   -2   12      1.05      0.00
   -9   -2   12     -0.63      0.00
   -8   -2   12     -0.62      0.00
   -7   -2   12      0.35      0.00
   -6   -2   12      0.77      0.00
   -5   -2   12     -3.35      0.00
   -4   -2   12     -3.12      0.00
   -3   -2   12      2.40      0.00
   -2   -2   12      3.66      0.00
   -1   -2   12      0.47      0.00
    0   -2   12     -3.45      0.00
    1   -2   12      4.68      0.00
    2   -2   12     -7.66      0.00
    3   -2   12     -2.55      0.00
    4   -2   12      2.22      0.00
    5   -2   12     -8.34      0.00
    6   -2   12      6.93      0.00
    7   -2   12     -2.27      0.00
    8   -2   12     -3.98      0.00
    9   -2   12     -2.81      0.00
   10   -2   12     -1.20      0.00
   11   -2   12      9.45      0.00
   12   -2   12      1.43      0.00
   13   -2   12      1.69      0.00
   14   -2   12     -1.27      0.00
   15   -2   12     -1.48      0.00
   16   -2   12      0.05      0.00
   17   -2   12     -3.57      0.00
   18   -2   12      3.57      0.00
  -12   -1   12      1.19      0.00
  -11   -1   12      4.19      0.00
  -10   -1   12     -0.27      0.00
   -9   -1   12     -1.90      0.00
   -8   -1   12     -0.63      0.00
   -7   -1   12      2.35      0.00
   -6   -1   12      0.38      0.00
   -5   -1   12     -1.50      0.00
   -4   -1   12    -10.76      0.00
   -3   -1   12      6.61      0.00
   -2   -1   12      3.81      0.00
   -1   -1   12      6.63      0.00
    0   -1   12     -6.01      0.00
    1   -1   12     -2.85      0.00
    2   -1   12     -6.09      0.00
    3   -1   12      2.54      0.00
    4   -1   12      7.69      0.00
    5   -1   12     -9.22      0.00
    6   -1   12      4.09      0.00
    7   -1   12     -2.64      0.00
    8   -1   12    -11.45      0.00
    9   -1   12     -3.18      0.00
   10   -1   12      2.67      0.00
   11   -1   12      4.59      0.00
   12   -1   12      3.50      0.00
   13   -1   12     -0.95      0.00
   14   -1   12     -0.52      0.00
   15   -1   12      0.12      0.00
   16   -1   12     -1.38      0.00
   17   -1   12      0.25      0.00
   18   -1   12      1.45      0.00
  -12    0   12      0.02      0.00
  -11    0   12      1.40      0.00
  -10    0   12      1.12      0.00
   -9    0   12      2.69      0.00
   -8    0   12      1.09      0.00
   -7    0   12     -1.40      0.00
   -6    0   12     -3.55      0.00
   -5    0   12      0.92      0.00
   -4    0   12     -1.70      0.00
   -3    0   12     -1.71      0.00
   -2    0   12      3.74      0.00
   -1    0   12      4.30      0.00
    0    0   12     -2.44      0.00
    1    0   12     -2.41      0.00
    2    0   12     -5.43      0.00
    3    0   12      8.42      0.00
    4    0   12      3.52      0.00
    5    0   12     -2.64      0.00
    6    0   12      3.20      0.00
    7    0   12     -7.10      0.00
    8    0   12    -13.17      0.00
    9    0   12     -2.20      0.00
   10    0   12      3.48      0.00
   11    0   12      0.31      0.00
   12    0   12      0.40      0.00
   13    0   12      2.93      0.00
   14    0   12     -1.81      0.00
   15    0   12      0.24      0.00
   16    0   12     -1.53      0.00
   17    0   12      0.18      0.00
   18    0   12      2.04      0.00
   19    0   12     -2.33      0.00
  -12    1   12     -3.04      0.00
  -11    1   12      0.09      0.00
  -10    1   12      0.08      0.00
   -9    1   12      2.10      0.00
   -8    1   12      5.51      0.00
   -7    1   12     -0.76      0.00
   -6    1   12     -4.33      0.00
   -5    1   12      1.03      0.00
   -4    1   12     -3.22      0.00
   -3    1   12      3.84      0.00
   -2    1   12      2.17      0.00
   -1    1   12      0.31      0.00
    0    1   12    -12.35      0.00
    1    1   12      7.78      0.00
    2    1   12      2.07      0.00
    3    1   12      4.38      0.00
    4    1   12      3.96      0.00
    5    1   12      1.50      0.00
    6    1   12      3.22      0.00
    7    1   12    -10.50      0.00
    8    1   12     -7.14      0.00
    9    1   12      0.07      0.00
   10    1   12     -2.37      0.00
   11    1   12     -2.25      0.00
   12    1   12      1.28      0.00
   13    1   12     -0.93      0.00
   14    1   12     -0.35      0.00
   15    1   12     -0.36      0.00
   16    1   12      1.38      0.00
   17    1   12     -0.94      0.00
   18    1   12     -0.19      0.00
   19    1   12      0.08      0.00
  -11    2   12      0.55      0.00
  -10    2   12      0.58      0.00
   -9    2   12      1.09      0.00
   -8    2   12      0.07      0.00
   -7    2   12      0.09      0.00
   -6    2   12      2.72      0.00
   -5    2   12      1.68      0.00
   -4    2   12     -5.53      0.00
   -3    2   12      1.12      0.00
   -2    2   12      7.49      0.00
   -1    2   12     -2.45      0.00
    0    2   12    -13.44      0.00
    1    2   12      7.04      0.00
    2    2   12      4.27      0.00
    3    2   12     -1.37      0.00
    4    2   12     10.09      0.00
    5    2   12      7.81      0.00
    6    2   12     -7.40      0.00
    7    2   12     -4.37      0.00
    8    2   12      0.19      0.00
    9    2   12      1.51      0.00
   10    2   12     -3.01      0.00
   11    2   12     -4.53      0.00
   12    2   12     -1.36      0.00
   13    2   12     -1.85      0.00
   14    2   12     -0.79      0.00
   15    2   12     -0.30      0.00
   16    2   12      1.10      0.00
   17    2   12     -1.55      0.00
   18    2   12      0.25      0.00
   19    2   12      1.09      0.00
   20    2   12     -2.15      0.00
  -11    3   12      1.45      0.00
  -10    3   12      0.16      0.00
   -9    3   12      2.45      0.00
   -8    3   12     -1.04      0.00
   -7    3   12     -1.65      0.00
   -6    3   12      1.06      0.00
   -5    3   12      2.03      0.00
   -4    3   12      1.26      0.00
   -3    3   12      3.96      0.00
   -2    3   12     -4.69      0.00
   -1    3   12     -4.65      0.00
    0    3   12      0.26      0.00
    1    3   12      7.69      0.00
    2    3   12     -4.72      0.00
    3    3   12      1.36      0.00
    4    3   12      4.02      0.00
    5    3   12      7.40      0.00
    6    3   12     -3.99      0.00
    7    3   12     -3.99      0.00
    8    3   12      9.47      0.00
    9    3   12      1.60      0.00
   10    3   12     -4.59      0.00
   11    3   12     -0.87      0.00
   12    3   12     -5.88      0.00
   13    3   12     -1.25      0.00
   14    3   12      2.44      0.00
   15    3   12     -2.32      0.00
   16    3   12     -0.34      0.00
   17    3   12     -3.17      0.00
   18    3   12      1.61      0.00
   19    3   12      0.28      0.00
   20    3   12     -4.19      0.00
  -10    4   12      0.61      0.00
   -9    4   12     -1.07      0.00
   -8    4   12      2.01      0.00
   -7    4   12      1.33      0.00
   -6    4   12     -0.50      0.00
   -5    4   12     -0.50      0.00
   -4    4   12      4.56      0.00
   -3    4   12      3.25      0.00
   -2    4   12     -6.96      0.00
   -1    4   12     -4.95      0.00
    0    4   12     -0.75      0.00
    1    4   12     10.49      0.00
    2    4   12     -0.81      0.00
    3    4   12     -1.30      0.00
    4    4   12      2.31      0.00
    5    4   12     -5.43      0.00
    6    4   12     -1.66      0.00
    7    4   12      7.91      0.00
    8    4   12      6.49      0.00
    9    4   12      0.07      0.00
   10    4   12     -0.12      0.00
   11    4   12     -1.51      0.00
   12    4   12     -5.23      0.00
   13    4   12     -0.42      0.00
   14    4   12      2.45      0.00
   15    4   12     -1.47      0.00
   16    4   12     -2.75      0.00
   17    4   12     -0.88      0.00
   18    4   12      1.43      0.00
   19    4   12     -3.71      0.00
   20    4   12     -2.31      0.00
   -9    5   12      1.05      0.00
   -8    5   12     -1.00      0.00
   -7    5   12      1.24      0.00
   -6    5   12      2.18      0.00
   -5    5   12      1.93      0.00
   -4    5   12      2.12      0.00
   -3    5   12     -1.02      0.00
   -2    5   12     -6.60      0.00
   -1    5   12      2.79      0.00
    0    5   12      0.26      0.00
    1    5   12     -5.18      0.00
    2    5   12      7.22      0.00
    3    5   12      4.47      0.00
    4    5   12     -6.28      0.00
    5    5   12     -2.66      0.00
    6    5   12     -3.56      0.00
    7    5   12      4.99      0.00
    8    5   12      6.20      0.00
    9    5   12     -1.40      0.00
   10    5   12      3.18      0.00
   11    5   12     -0.41      0.00
   12    5   12     -5.32      0.00
   13    5   12      0.29      0.00
   14    5   12      0.26      0.00
   15    5   12      0.10      0.00
   16    5   12     -1.65      0.00
   17    5   12     -2.27      0.00
   18    5   12      1.09      0.00
   19    5   12     -3.38      0.00
   20    5   12     -2.27      0.00
   21    5   12     -1.91      0.00
   -9    6   12      2.07      0.00
   -8    6   12      0.59      0.00
   -7    6   12     -1.87      0.00
   -6    6   12      0.93      0.00
   -5    6   12      1.71      0.00
   -4    6   12      2.53      0.00
   -3    6   12     -3.20      0.00
   -2    6   12     -4.77      0.00
   -1    6   12      5.23      0.00
    0    6   12     -0.12      0.00
    1    6   12     -4.67      0.00
    2    6   12      1.40      0.00
    3    6   12      7.34      0.00
    4    6   12     -9.82      0.00
    5    6   12     -2.28      0.00
    6    6   12      9.63      0.00
    7    6   12     -7.01      0.00
    8    6   12     -0.53      0.00
    9    6   12      6.84      0.00
   10    6   12     -3.38      0.00
   11    6   12     -1.52      0.00
   12    6   12     -0.29      0.00
   13    6   12     -2.24      0.00
   14    6   12      0.07      0.00
   15    6   12      0.12      0.00
   16    6   12      0.23      0.00
   17    6   12     -2.82      0.00
   18    6   12     -3.37      0.00
   19    6   12     -1.29      0.00
   20    6   12     -0.32      0.00
   21    6   12     -3.87      0.00
   -8    7   12     -0.58      0.00
   -7    7   12      0.56      0.00
   -6    7   12     -0.96      0.00
   -5    7   12      2.08      0.00
   -4    7   12     -1.31      0.00
   -3    7   12     -3.79      0.00
   -2    7   12     -0.61      0.00
   -1    7   12      2.04      0.00
    0    7   12     -0.87      0.00
    1    7   12     -2.76      0.00
    2    7   12      6.78      0.00
    3    7   12     -3.76      0.00
    4    7   12     -6.00      0.00
    5    7   12      2.77      0.00
    6    7   12      3.93      0.00
    7    7   12     -2.40      0.00
    8    7   12      1.86      0.00
    9    7   12      0.72      0.00
   10    7   12     -4.14      0.00
   11    7   12     -2.98      0.00
   12    7   12     -0.07      0.00
   13    7   12     -0.34      0.00
   14    7   12     -2.45      0.00
   15    7   12      1.06      0.00
   16    7   12     -1.73      0.00
   17    7   12     -2.15      0.00
   18    7   12     -1.48      0.00
   19    7   12     -4.08      0.00
   20    7   12     -0.80      0.00
   21    7   12     -0.12      0.00
   -7    8   12     -2.16      0.00
   -6    8   12      2.86      0.00
   -5    8   12      1.48      0.00
   -4    8   12     -3.91      0.00
   -3    8   12     -1.18      0.00
   -2    8   12      0.09      0.00
   -1    8   12     -1.20      0.00
    0    8   12     -1.45      0.00
    1    8   12      2.03      0.00
    2    8   12     -0.21      0.00
    3    8   12     -4.01      0.00
    4    8   12     -0.61      0.00
    5    8   12      3.58      0.00
    6    8   12      0.72      0.00
    7    8   12     -2.40      0.00
    8    8   12      6.91      0.00
    9    8   12     -3.13      0.00
   10    8   12     -5.13      0.00
   11    8   12      0.53      0.00
   12    8   12     -0.54      0.00
   13    8   12     -0.84      0.00
   14    8   12     -3.83      0.00
   15    8   12     -0.36      0.00
   16    8   12     -0.47      0.00
   17    8   12     -4.25      0.00
   18    8   12      0.73      0.00
   19    8   12     -2.79      0.00
   20    8   12     -1.09      0.00
   21    8   12     -2.15      0.00
   -6    9   12     -1.70      0.00
   -5    9   12      1.90      0.00
   -4    9   12     -1.28      0.00
   -3    9   12     -0.20      0.00
   -2    9   12      2.38      0.00
   -1    9   12     -4.43      0.00
    0    9   12      2.32      0.00
    1    9   12      0.79      0.00
    2    9   12     -5.28      0.00
    3    9   12     -2.79      0.00
    4    9   12      2.00      0.00
    5    9   12     -0.60      0.00
    6    9   12      4.89      0.00
    7    9   12      0.18      0.00
    8    9   12     -0.58      0.00
    9    9   12      1.52      0.00
   10    9   12     -3.07      0.00
   11    9   12     -1.56      0.00
   12    9   12      2.30      0.00
   13    9   12     -2.24      0.00
   14    9   12     -3.52      0.00
   15    9   12     -0.61      0.00
   16    9   12     -0.85      0.00
   17    9   12      0.19      0.00
   18    9   12     -3.48      0.00
   19    9   12     -1.41      0.00
   20    9   12      1.18      0.00
   21    9   12     -1.44      0.00
   -6   10   12     -2.01      0.00
   -5   10   12     -2.25      0.00
   -4   10   12      0.06      0.00
   -3   10   12      2.60      0.00
   -2   10   12      0.91      0.00
   -1   10   12     -0.52      0.00
    0   10   12      0.30      0.00
    1   10   12     -0.53      0.00
    2   10   12     -4.20      0.00
    3   10   12      0.06      0.00
    4   10   12      1.00      0.00
    5   10   12     -4.83      0.00
    6   10   12      6.34      0.00
    7   10   12     -0.17      0.00
    8   10   12     -0.25      0.00
    9   10   12      0.58      0.00
   10   10   12      2.08      0.00
   11   10   12     -0.59      0.00
   12   10   12     -3.19      0.00
   13   10   12     -0.36      0.00
   14   10   12     -1.93      0.00
   15   10   12     -1.05      0.00
   16   10   12     -0.72      0.00
   17   10   12      0.02      0.00
   18   10   12      2.18      0.00
   19   10   12     -3.74      0.00
   20   10   12      2.19      0.00
   21   10   12     -0.66      0.00
   -5   11   12     -1.24      0.00
   -4   11   12     -4.91      0.00
   -3   11   12      1.22      0.00
   -2   11   12      2.53      0.00
   -1   11   12     -0.94      0.00
    0   11   12      3.67      0.00
    1   11   12     -4.18      0.00
    2   11   12     -2.13      0.00
    3   11   12      3.18      0.00
    4   11   12     -0.82      0.00
    5   11   12     -2.80      0.00
    6   11   12      2.00      0.00
    7   11   12     -0.43      0.00
    8   11   12     -0.23      0.00
    9   11   12      3.27      0.00
   10   11   12      1.13      0.00
   11   11   12      1.72      0.00
   12   11   12     -3.27      0.00
   13   11   12     -0.64      0.00
   14   11   12     -0.19      0.00
   15   11   12     -2.26      0.00
   16   11   12     -1.62      0.00
   17   11   12     -0.82      0.00
   18   11   12      1.97      0.00
   19   11   12      3.10      0.00
   20   11   12      1.89      0.00
   21   11   12     -1.91      0.00
   -4   12   12     -1.24      0.00
   -3   12   12     -3.77      0.00
   -2   12   12     -1.28      0.00
   -1   12   12      1.66      0.00
    0   12   12      0.70      0.00
    1   12   12      1.39      0.00
    2   12   12     -0.58      0.00
    3   12   12     -0.65      0.00
    4   12   12     -0.20      0.00
    5   12   12     -1.21      0.00
    6   12   12      3.28      0.00
    7   12   12     -3.67      0.00
    8   12   12      0.94      0.00
    9   12   12      2.24      0.00
   10   12   12      1.05      0.00
   11   12   12      0.26      0.00
   12   12   12      0.60      0.00
   13   12   12      1.34      0.00
   14   12   12     -0.57      0.00
   15   12   12     -1.70      0.00
   16   12   12     -2.92      0.00
   17   12   12      0.58      0.00
   18   12   12      1.62      0.00
   19   12   12     -0.97      0.00
   20   12   12      5.73      0.00
   21   12   12     -1.09      0.00
   -3   13   12     -2.38      0.00
   -2   13   12     -0.90      0.00
   -1   13   12      0.62      0.00
    0   13   12     -3.26      0.00
    1   13   12      0.65      0.00
    2   13   12      1.71      0.00
    3   13   12      0.94      0.00
    4   13   12      2.07      0.00
    5   13   12     -0.90      0.00
    6   13   12     -0.66      0.00
    7   13   12     -0.32      0.00
    8   13   12      0.12      0.00
    9   13   12     -0.51      0.00
   10   13   12     -2.79      0.00
   11   13   12      3.96      0.00
   12   13   12     -0.04      0.00
   13   13   12      2.48      0.00
   14   13   12      1.65      0.00
   15   13   12     -2.53      0.00
   16   13   12     -2.83      0.00
   17   13   12      2.12      0.00
   18   13   12      2.95      0.00
   19   13   12     -1.53      0.00
   20   13   12      0.69      0.00
   21   13   12      0.11      0.00
   -2   14   12      0.95      0.00
   -1   14   12      0.40      0.00
    0   14   12     -1.19      0.00
    1   14   12     -3.02      0.00
    2   14   12     -2.10      0.00
    3   14   12      4.74      0.00
    4   14   12      6.34      0.00
    5   14   12     -1.33      0.00
    6   14   12     -3.25      0.00
    7   14   12      0.46      0.00
    8   14   12      1.07      0.00
    9   14   12     -1.93      0.00
   10   14   12     -1.72      0.00
   11   14   12     -1.11      0.00
   12   14   12     -0.79      0.00
   13   14   12      2.14      0.00
   14   14   12      2.87      0.00
   15   14   12     -0.15      0.00
   16   14   12     -0.88      0.00
   17   14   12     -1.39      0.00
   18   14   12      2.60      0.00
   19   14   12      0.83      0.00
   20   14   12      1.82      0.00
   21   14   12     -2.59      0.00
    0   15   12     -1.26      0.00
    1   15   12      2.81      0.00
    2   15   12     -1.51      0.00
    3   15   12      2.23      0.00
    4   15   12      3.10      0.00
    5   15   12     -0.44      0.00
    6   15   12      0.95      0.00
    7   15   12      0.43      0.00
    8   15   12     -0.44      0.00
    9   15   12     -0.01      0.00
   10   15   12     -1.31      0.00
   11   15   12     -2.05      0.00
   12   15   12     -2.64      0.00
   13   15   12      0.66      0.00
   14   15   12     -1.74      0.00
   15   15   12      2.85      0.00
   16   15   12      3.76      0.00
   17   15   12     -1.37      0.00
   18   15   12     -0.16      0.00
   19   15   12     -0.98      0.00
   20   15   12      0.91      0.00
    1   16   12     -0.10      0.00
    2   16   12      4.22      0.00
    3   16   12      0.93      0.00
    4   16   12      0.28      0.00
    5   16   12      3.92      0.00
    6   16   12      0.16      0.00
    7   16   12      1.48      0.00
    8   16   12      0.43      0.00
    9   16   12      0.62      0.00
   10   16   12     -4.41      0.00
   11   16   12     -0.69      0.00
   12   16   12      2.68      0.00
   13   16   12     -0.10      0.00
   14   16   12     -2.68      0.00
   15   16   12     -2.32      0.00
   16   16   12      4.48      0.00
   17   16   12      2.13      0.00
   18   16   12      3.35      0.00
   19   16   12     -4.64      0.00
   20   16   12     -1.60      0.00
    3   17   12      3.38      0.00
    4   17   12      4.00      0.00
    5   17   12      4.24      0.00
    6   17   12      2.62      0.00
    7   17   12     -2.95      0.00
    8   17   12      3.11      0.00
    9   17   12     -0.08      0.00
   10   17   12     -1.07      0.00
   11   17   12     -0.51      0.00
   12   17   12     -0.12      0.00
   13   17   12      3.04      0.00
   14   17   12      0.31      0.00
   15   17   12      0.57      0.00
   16   17   12     -0.33      0.00
   17   17   12      0.77      0.00
   18   17   12      5.21      0.00
   19   17   12     -2.06      0.00
    4   18   12      1.14      0.00
    5   18   12      7.01      0.00
    6   18   12      0.88      0.00
    7   18   12     -0.37      0.00
    8   18   12     -0.64      0.00
    9   18   12      2.99      0.00
   10   18   12     -0.76      0.00
   11   18   12      3.43      0.00
   12   18   12     -1.82      0.00
   13   18   12     -1.29      0.00
   14   18   12      1.96      0.00
   15   18   12      3.34      0.00
   16   18   12      5.33      0.00
   17   18   12     -3.65      0.00
   18   18   12      2.46      0.00
    6   19   12      3.22      0.00
    7   19   12      0.65      0.00
    8   19   12      0.55      0.00
    9   19   12     -1.73      0.00
   10   19   12      2.62      0.00
   11   19   12     -1.41      0.00
   12   19   12      1.71      0.00
   13   19   12      0.67      0.00
   14   19   12     -2.03      0.00
   15   19   12      3.34      0.00
   16   19   12      3.71      0.00
   17   19   12      0.44      0.00
   10   20   12     -3.71      0.00
   11   20   12      2.45      0.00
   12   20   12     -2.27      0.00
   13   20   12      0.53      0.00
   14   20   12      1.50      0.00
   -8  -19   13      1.48      0.00
   -7  -19   13     -2.86      0.00
   -6  -19   13     -2.61      0.00
   -5  -19   13      0.26      0.00
   -4  -19   13     -0.14      0.00
   -3  -19   13     -1.21      0.00
   -2  -19   13     -0.47      0.00
   -1  -19   13     -3.80      0.00
  -10  -18   13     -1.53      0.00
   -9  -18   13     -1.48      0.00
   -8  -18   13      2.28      0.00
   -7  -18   13     -5.15      0.00
   -6  -18   13     -2.99      0.00
   -5  -18   13      0.78      0.00
   -4  -18   13     -1.62      0.00
   -3  -18   13     -0.96      0.00
   -2  -18   13     -0.99      0.00
   -1  -18   13     -1.23      0.00
    0  -18   13     -3.01      0.00
    1  -18   13     -2.37      0.00
  -11  -17   13      0.87      0.00
  -10  -17   13      1.74      0.00
   -9  -17   13     -0.14      0.00
   -8  -17   13      2.71      0.00
   -7  -17   13     -4.47      0.00
   -6  -17   13     -2.92      0.00
   -5  -17   13     -0.80      0.00
   -4  -17   13     -2.95      0.00
   -3  -17   13     -0.27      0.00
   -2  -17   13      1.06      0.00
   -1  -17   13     -5.06      0.00
    0  -17   13      0.41      0.00
    1  -17   13     -7.02      0.00
    2  -17   13     -6.70      0.00
    3  -17   13      5.92      0.00
    4  -17   13      0.79      0.00
  -12  -16   13     -1.38      0.00
  -11  -16   13      0.20      0.00
  -10  -16   13      1.03      0.00
   -9  -16   13      0.19      0.00
   -8  -16   13      4.11      0.00
   -7  -16   13     -3.13      0.00
   -6  -16   13     -0.96      0.00
   -5  -16   13     -2.18      0.00
   -4  -16   13     -2.35      0.00
   -3  -16   13      0.29      0.00
   -2  -16   13     -2.59      0.00
   -1  -16   13     -4.42      0.00
    0  -16   13      2.07      0.00
    1  -16   13     -6.21      0.00
    2  -16   13     -5.86      0.00
    3  -16   13      6.45      0.00
    4  -16   13     -0.57      0.00
    5  -16   13      0.84      0.00
  -12  -15   13     -0.10      0.00
  -11  -15   13      0.84      0.00
  -10  -15   13      1.08      0.00
   -9  -15   13     -0.22      0.00
   -8  -15   13      1.85      0.00
   -7  -15   13     -1.90      0.00
   -6  -15   13      1.40      0.00
   -5  -15   13     -2.59      0.00
   -4  -15   13     -0.29      0.00
   -3  -15   13     -2.14      0.00
   -2  -15   13     -4.17      0.00
   -1  -15   13     -0.94      0.00
    0  -15   13      1.59      0.00
    1  -15   13     -5.10      0.00
    2  -15   13      1.99      0.00
    3  -15   13      0.66      0.00
    4  -15   13     -3.62      0.00
    5  -15   13      4.91      0.00
    6  -15   13      0.35      0.00
    7  -15   13     -0.77      0.00
  -13  -14   13      1.55      0.00
  -12  -14   13      0.60      0.00
  -11  -14   13     -1.05      0.00
  -10  -14   13      2.16      0.00
   -9  -14   13      0.31      0.00
   -8  -14   13      2.35      0.00
   -7  -14   13     -1.40      0.00
   -6  -14   13      1.06      0.00
   -5  -14   13     -2.57      0.00
   -4  -14   13     -1.22      0.00
   -3  -14   13     -2.34      0.00
   -2  -14   13     -2.10      0.00
   -1  -14   13      1.91      0.00
    0  -14   13     -0.58      0.00
    1  -14   13     -3.73      0.00
    2  -14   13      4.57      0.00
    3  -14   13      0.02      0.00
    4  -14   13     -3.32      0.00
    5  -14   13      4.56      0.00
    6  -14   13     -1.64      0.00
    7  -14   13      2.09      0.00
    8  -14   13      0.47      0.00
  -13  -13   13      4.65      0.00
  -12  -13   13      1.39      0.00
  -11  -13   13     -1.12      0.00
  -10  -13   13      0.92      0.00
   -9  -13   13     -2.01      0.00
   -8  -13   13      4.05      0.00
   -7  -13   13      2.88      0.00
   -6  -13   13     -1.87      0.00
   -5  -13   13     -2.28      0.00
   -4  -13   13      0.75      0.00
   -3  -13   13     -1.81      0.00
   -2  -13   13     -2.60      0.00
   -1  -13   13      3.00      0.00
    0  -13   13      1.22      0.00
    1  -13   13     -4.43      0.00
    2  -13   13      2.46      0.00
    3  -13   13      0.26      0.00
    4  -13   13     -3.03      0.00
    5  -13   13      2.92      0.00
    6  -13   13      2.19      0.00
    7  -13   13      0.37      0.00
    8  -13   13      1.88      0.00
    9  -13   13      3.05      0.00
  -13  -12   13      3.64      0.00
  -12  -12   13      4.07      0.00
  -11  -12   13      0.51      0.00
  -10  -12   13     -0.05      0.00
   -9  -12   13     -3.02      0.00
   -8  -12   13      3.87      0.00
   -7  -12   13     -0.36      0.00
   -6  -12   13      1.30      0.00
   -5  -12   13     -0.21      0.00
   -4  -12   13      2.47      0.00
   -3  -12   13     -0.05      0.00
   -2  -12   13     -3.28      0.00
   -1  -12   13      2.94      0.00
    0  -12   13     -1.32      0.00
    1  -12   13     -0.68      0.00
    2  -12   13      2.88      0.00
    3  -12   13     -5.21      0.00
    4  -12   13     -3.11      0.00
    5  -12   13      4.03      0.00
    6  -12   13      0.81      0.00
    7  -12   13      2.97      0.00
    8  -12   13      2.00      0.00
    9  -12   13      1.77      0.00
   10  -12   13     -0.47      0.00
  -13  -11   13      2.66      0.00
  -12  -11   13      1.09      0.00
  -11  -11   13     -0.37      0.00
  -10  -11   13      3.50      0.00
   -9  -11   13     -0.74      0.00
   -8  -11   13      0.36      0.00
   -7  -11   13     -0.13      0.00
   -6  -11   13     -1.47      0.00
   -5  -11   13      5.57      0.00
   -4  -11   13      0.30      0.00
   -3  -11   13      2.82      0.00
   -2  -11   13     -1.16      0.00
   -1  -11   13      1.46      0.00
    0  -11   13     -4.37      0.00
    1  -11   13      1.57      0.00
    2  -11   13      2.80      0.00
    3  -11   13     -3.42      0.00
    4  -11   13      0.89      0.00
    5  -11   13     -2.22      0.00
    6  -11   13     -1.74      0.00
    7  -11   13      0.44      0.00
    8  -11   13      3.58      0.00
    9  -11   13      2.62      0.00
   10  -11   13      1.68      0.00
   11  -11   13     -0.41      0.00
  -14  -10   13     -0.90      0.00
  -13  -10   13      3.86      0.00
  -12  -10   13     -2.13      0.00
  -11  -10   13     -3.05      0.00
  -10  -10   13      2.69      0.00
   -9  -10   13      0.11      0.00
   -8  -10   13      4.01      0.00
   -7  -10   13     -2.85      0.00
   -6  -10   13      1.63      0.00
   -5  -10   13      1.98      0.00
   -4  -10   13      2.33      0.00
   -3  -10   13      2.86      0.00
   -2  -10   13     -2.38      0.00
   -1  -10   13      2.27      0.00
    0  -10   13     -0.24      0.00
    1  -10   13      0.67      0.00
    2  -10   13      1.07      0.00
    3  -10   13     -0.32      0.00
    4  -10   13      2.12      0.00
    5  -10   13     -4.01      0.00
    6  -10   13     -2.17      0.00
    7  -10   13     -1.03      0.00
    8  -10   13     -0.50      0.00
    9  -10   13      4.54      0.00
   10  -10   13      3.95      0.00
   11  -10   13     -2.90      0.00
   12  -10   13      2.72      0.00
  -14   -9   13     -2.00      0.00
  -13   -9   13     -0.28      0.00
  -12   -9   13      1.83      0.00
  -11   -9   13     -1.66      0.00
  -10   -9   13     -1.46      0.00
   -9   -9   13      0.20      0.00
   -8   -9   13      0.84      0.00
   -7   -9   13      0.91      0.00
   -6   -9   13      0.36      0.00
   -5   -9   13      5.96      0.00
   -4   -9   13     -4.10      0.00
   -3   -9   13      3.10      0.00
   -2   -9   13     -1.97      0.00
   -1   -9   13      3.43      0.00
    0   -9   13      0.52      0.00
    1   -9   13      6.51      0.00
    2   -9   13     -0.88      0.00
    3   -9   13     -3.62      0.00
    4   -9   13      2.81      0.00
    5   -9   13     -4.66      0.00
    6   -9   13      2.14      0.00
    7   -9   13     -1.83      0.00
    8   -9   13      0.29      0.00
    9   -9   13      0.58      0.00
   10   -9   13      1.72      0.00
   11   -9   13     -0.94      0.00
   12   -9   13      3.74      0.00
   13   -9   13      1.69      0.00
  -13   -8   13     -4.26      0.00
  -12   -8   13      0.77      0.00
  -11   -8   13     -0.40      0.00
  -10   -8   13      0.90      0.00
   -9   -8   13      1.82      0.00
   -8   -8   13     -0.81      0.00
   -7   -8   13     -4.29      0.00
   -6   -8   13      3.90      0.00
   -5   -8   13      3.93      0.00
   -4   -8   13     -2.92      0.00
   -3   -8   13     -1.95      0.00
   -2   -8   13      1.29      0.00
   -1   -8   13      5.74      0.00
    0   -8   13     -1.82      0.00
    1   -8   13      4.41      0.00
    2   -8   13      0.91      0.00
    3   -8   13     -2.27      0.00
    4   -8   13      2.25      0.00
    5   -8   13     -3.39      0.00
    6   -8   13      2.78      0.00
    7   -8   13     -1.45      0.00
    8   -8   13     -3.45      0.00
    9   -8   13      1.09      0.00
   10   -8   13      0.57      0.00
   11   -8   13      1.74      0.00
   12   -8   13      3.26      0.00
   13   -8   13      0.79      0.00
   14   -8   13      1.34      0.00
  -13   -7   13      0.14      0.00
  -12   -7   13     -3.56      0.00
  -11   -7   13     -3.48      0.00
  -10   -7   13      3.76      0.00
   -9   -7   13      0.34      0.00
   -8   -7   13      1.36      0.00
   -7   -7   13      0.12      0.00
   -6   -7   13     -4.02      0.00
   -5   -7   13      5.30      0.00
   -4   -7   13     -5.96      0.00
   -3   -7   13      2.28      0.00
   -2   -7   13      1.13      0.00
   -1   -7   13      3.21      0.00
    0   -7   13     -0.09      0.00
    1   -7   13     -0.47      0.00
    2   -7   13     -0.26      0.00
    3   -7   13      1.92      0.00
    4   -7   13      2.27      0.00
    5   -7   13     -3.74      0.00
    6   -7   13      3.98      0.00
    7   -7   13     -2.62      0.00
    8   -7   13     -2.69      0.00
    9   -7   13     -6.25      0.00
   10   -7   13      4.49      0.00
   11   -7   13      0.79      0.00
   12   -7   13      1.84      0.00
   13   -7   13      4.64      0.00
   14   -7   13     -0.06      0.00
   15   -7   13     -2.81      0.00
  -13   -6   13     -0.43      0.00
  -12   -6   13      0.08      0.00
  -11   -6   13     -1.49      0.00
  -10   -6   13      0.27      0.00
   -9   -6   13      0.25      0.00
   -8   -6   13     -0.25      0.00
   -7   -6   13     -1.52      0.00
   -6   -6   13      3.94      0.00
   -5   -6   13     -0.66      0.00
   -4   -6   13     -5.13      0.00
   -3   -6   13     -1.38      0.00
   -2   -6   13      5.79      0.00
   -1   -6   13      5.31      0.00
    0   -6   13     -7.93      0.00
    1   -6   13      2.95      0.00
    2   -6   13      1.38      0.00
    3   -6   13     -0.69      0.00
    4   -6   13      0.86      0.00
    5   -6   13      4.60      0.00
    6   -6   13     -3.09      0.00
    7   -6   13     -5.72      0.00
    8   -6   13      2.78      0.00
    9   -6   13     -5.12      0.00
   10   -6   13     -6.97      0.00
   11   -6   13      3.59      0.00
   12   -6   13      4.70      0.00
   13   -6   13      1.01      0.00
   14   -6   13      1.94      0.00
   15   -6   13      1.62      0.00
  -13   -5   13     -2.21      0.00
  -12   -5   13     -1.80      0.00
  -11   -5   13      0.61      0.00
  -10   -5   13      2.30      0.00
   -9   -5   13      0.86      0.00
   -8   -5   13     -1.74      0.00
   -7   -5   13     -1.93      0.00
   -6   -5   13      0.29      0.00
   -5   -5   13      5.29      0.00
   -4   -5   13     -7.68      0.00
   -3   -5   13      0.53      0.00
   -2   -5   13      3.47      0.00
   -1   -5   13      2.19      0.00
    0   -5   13     -4.26      0.00
    1   -5   13      2.62      0.00
    2   -5   13      3.26      0.00
    3   -5   13     -3.49      0.00
    4   -5   13      5.07      0.00
    5   -5   13      7.46      0.00
    6   -5   13     -4.73      0.00
    7   -5   13     -8.65      0.00
    8   -5   13      2.27      0.00
    9   -5   13     -5.87      0.00
   10   -5   13     -5.55      0.00
   11   -5   13     -2.34      0.00
   12   -5   13      9.19      0.00
   13   -5   13     -1.84      0.00
   14   -5   13      1.75      0.00
   15   -5   13      2.86      0.00
   16   -5   13     -3.71      0.00
  -13   -4   13      2.30      0.00
  -12   -4   13     -2.67      0.00
  -11   -4   13     -3.25      0.00
  -10   -4   13      2.90      0.00
   -9   -4   13      0.53      0.00
   -8   -4   13     -0.88      0.00
   -7   -4   13      2.73      0.00
   -6   -4   13     -0.37      0.00
   -5   -4   13     -3.45      0.00
   -4   -4   13     -0.78      0.00
   -3   -4   13      3.87      0.00
   -2   -4   13      3.71      0.00
   -1   -4   13     -8.21      0.00
    0   -4   13     -2.76      0.00
    1   -4   13      9.65      0.00
    2   -4   13     -1.61      0.00
    3   -4   13      1.70      0.00
    4   -4   13      1.84      0.00
    5   -4   13     11.66      0.00
    6   -4   13     -6.63      0.00
    7   -4   13     -4.19      0.00
    8   -4   13      2.52      0.00
    9   -4   13     -8.57      0.00
   10   -4   13     -5.59      0.00
   11   -4   13      1.73      0.00
   12   -4   13      0.01      0.00
   13   -4   13      2.36      0.00
   14   -4   13     -0.88      0.00
   15   -4   13      1.87      0.00
   16   -4   13      1.02      0.00
   17   -4   13     -1.83      0.00
  -12   -3   13      0.61      0.00
  -11   -3   13      0.68      0.00
  -10   -3   13     -1.42      0.00
   -9   -3   13     -2.86      0.00
   -8   -3   13      1.11      0.00
   -7   -3   13      2.81      0.00
   -6   -3   13      2.09      0.00
   -5   -3   13     -3.41      0.00
   -4   -3   13     -3.22      0.00
   -3   -3   13      9.03      0.00
   -2   -3   13     -3.44      0.00
   -1   -3   13     -2.35      0.00
    0   -3   13     -3.67      0.00
    1   -3   13      3.18      0.00
    2   -3   13      0.76      0.00
    3   -3   13      2.91      0.00
    4   -3   13      3.63      0.00
    5   -3   13      6.18      0.00
    6   -3   13     -1.52      0.00
    7   -3   13     -4.04      0.00
    8   -3   13      3.96      0.00
    9   -3   13     -4.50      0.00
   10   -3   13     -0.60      0.00
   11   -3   13     -2.56      0.00
   12   -3   13      0.10      0.00
   13   -3   13     -4.85      0.00
   14   -3   13      0.97      0.00
   15   -3   13      2.03      0.00
   16   -3   13      2.27      0.00
   17   -3   13     -0.34      0.00
  -12   -2   13      1.14      0.00
  -11   -2   13      0.85      0.00
  -10   -2   13     -2.00      0.00
   -9   -2   13     -0.22      0.00
   -8   -2   13     -0.24      0.00
   -7   -2   13      1.33      0.00
   -6   -2   13     -0.78      0.00
   -5   -2   13     -1.65      0.00
   -4   -2   13      5.94      0.00
   -3   -2   13      2.61      0.00
   -2   -2   13     -6.86      0.00
   -1   -2   13     -2.14      0.00
    0   -2   13      2.30      0.00
    1   -2   13     -2.46      0.00
    2   -2   13     -2.65      0.00
    3   -2   13      8.77      0.00
    4   -2   13     -2.13      0.00
    5   -2   13      6.52      0.00
    6   -2   13     -1.73      0.00
    7   -2   13     -1.33      0.00
    8   -2   13      0.53      0.00
    9   -2   13      1.75      0.00
   10   -2   13      5.91      0.00
   11   -2   13     -2.16      0.00
   12   -2   13     -6.39      0.00
   13   -2   13     -2.02      0.00
   14   -2   13     -2.24      0.00
   15   -2   13      5.68      0.00
   16   -2   13     -3.65      0.00
   17   -2   13      2.22      0.00
   18   -2   13      0.41      0.00
  -12   -1   13      1.96      0.00
  -11   -1   13     -2.92      0.00
  -10   -1   13     -2.04      0.00
   -9   -1   13      0.07      0.00
   -8   -1   13      1.81      0.00
   -7   -1   13      0.11      0.00
   -6   -1   13     -3.16      0.00
   -5   -1   13     -0.71      0.00
   -4   -1   13      7.81      0.00
   -3   -1   13      3.42      0.00
   -2   -1   13     -5.57      0.00
   -1   -1   13     -4.13      0.00
    0   -1   13     -5.24      0.00
    1   -1   13      3.59      0.00
    2   -1   13     -2.08      0.00
    3   -1   13      9.44      0.00
    4   -1   13     -6.77      0.00
    5   -1   13     -0.69      0.00
    6   -1   13      3.80      0.00
    7   -1   13     -4.82      0.00
    8   -1   13      6.15      0.00
    9   -1   13      5.40      0.00
   10   -1   13      4.70      0.00
   11   -1   13     -3.00      0.00
   12   -1   13     -3.83      0.00
   13   -1   13     -3.79      0.00
   14   -1   13      3.27      0.00
   15   -1   13     -0.94      0.00
   16   -1   13     -0.45      0.00
   17   -1   13      1.32      0.00
   18   -1   13     -1.85      0.00
  -11    0   13     -0.17      0.00
  -10    0   13     -0.55      0.00
   -9    0   13     -1.24      0.00
   -8    0   13     -1.96      0.00
   -7    0   13     -1.90      0.00
   -6    0   13      0.74      0.00
   -5    0   13      2.64      0.00
   -4    0   13      0.17      0.00
   -3    0   13      1.06      0.00
   -2    0   13      0.19      0.00
   -1    0   13     -2.21      0.00
    0    0   13     -4.85      0.00
    1    0   13      0.43      0.00
    2    0   13      1.53      0.00
    3    0   13      2.04      0.00
    4    0   13     -5.47      0.00
    5    0   13     -1.55      0.00
    6    0   13     -3.11      0.00
    7    0   13     -0.93      0.00
    8    0   13      8.65      0.00
    9    0   13      8.14      0.00
   10    0   13      0.08      0.00
   11    0   13     -3.04      0.00
   12    0   13      1.16      0.00
   13    0   13     -1.09      0.00
   14    0   13     -1.28      0.00
   15    0   13      1.01      0.00
   16    0   13     -1.23      0.00
   17    0   13      3.04      0.00
   18    0   13     -3.82      0.00
   19    0   13      1.04      0.00
  -11    1   13      1.39      0.00
  -10    1   13      1.04      0.00
   -9    1   13      1.34      0.00
   -8    1   13     -3.47      0.00
   -7    1   13     -5.28      0.00
   -6    1   13      2.37      0.00
   -5    1   13      0.68      0.00
   -4    1   13     -1.24      0.00
   -3    1   13      0.71      0.00
   -2    1   13     -4.14      0.00
   -1    1   13     -1.02      0.00
    0    1   13      4.50      0.00
    1    1   13      2.38      0.00
    2    1   13     -6.81      0.00
    3    1   13      2.14      0.00
    4    1   13     -8.61      0.00
    5    1   13      1.07      0.00
    6    1   13     -4.12      0.00
    7    1   13     -2.00      0.00
    8    1   13     10.05      0.00
    9    1   13      1.37      0.00
   10    1   13     -0.66      0.00
   11    1   13      1.87      0.00
   12    1   13      1.47      0.00
   13    1   13     -1.09      0.00
   14    1   13      1.35      0.00
   15    1   13      0.29      0.00
   16    1   13     -0.34      0.00
   17    1   13     -0.27      0.00
   18    1   13      1.01      0.00
   19    1   13     -1.02      0.00
  -10    2   13      0.45      0.00
   -9    2   13      0.23      0.00
   -8    2   13     -1.70      0.00
   -7    2   13      1.06      0.00
   -6    2   13     -0.66      0.00
   -5    2   13     -4.75      0.00
   -4    2   13     -1.35      0.00
   -3    2   13      0.90      0.00
   -2    2   13     -1.28      0.00
   -1    2   13     -5.46      0.00
    0    2   13      3.61      0.00
    1    2   13      7.13      0.00
    2    2   13     -8.40      0.00
    3    2   13     -0.72      0.00
    4    2   13      0.51      0.00
    5    2   13    -10.79      0.00
    6    2   13     -0.89      0.00
    7    2   13      5.35      0.00
    8    2   13      3.67      0.00
    9    2   13     -5.13      0.00
   10    2   13     -0.19      0.00
   11    2   13      2.67      0.00
   12    2   13      0.58      0.00
   13    2   13      1.02      0.00
   14    2   13      0.80      0.00
   15    2   13      2.72      0.00
   16    2   13     -1.09      0.00
   17    2   13      1.27      0.00
   18    2   13      1.40      0.00
   19    2   13     -1.74      0.00
   20    2   13     -0.71      0.00
  -10    3   13      0.28      0.00
   -9    3   13     -2.52      0.00
   -8    3   13     -1.01      0.00
   -7    3   13      2.40      0.00
   -6    3   13     -0.09      0.00
   -5    3   13     -2.12      0.00
   -4    3   13     -3.48      0.00
   -3    3   13     -2.22      0.00
   -2    3   13     -3.19      0.00
   -1    3   13      4.37      0.00
    0    3   13      2.31      0.00
    1    3   13     -2.74      0.00
    2    3   13     -4.30      0.00
    3    3   13      0.82      0.00
    4    3   13     -0.39      0.00
    5    3   13     -4.95      0.00
    6    3   13     -5.71      0.00
    7    3   13      9.37      0.00
    8    3   13     -0.10      0.00
    9    3   13     -8.11      0.00
   10    3   13      1.64      0.00
   11    3   13     -1.17      0.00
   12    3   13      1.07      0.00
   13    3   13      4.93      0.00
   14    3   13     -2.07      0.00
   15    3   13      0.80      0.00
   16    3   13      2.24      0.00
   17    3   13      1.43      0.00
   18    3   13      1.52      0.00
   19    3   13     -3.00      0.00
   20    3   13      2.93      0.00
   -9    4   13      0.29      0.00
   -8    4   13      0.66      0.00
   -7    4   13     -1.06      0.00
   -6    4   13     -1.50      0.00
   -5    4   13     -0.45      0.00
   -4    4   13     -1.49      0.00
   -3    4   13     -4.85      0.00
   -2    4   13     -1.58      0.00
   -1    4   13      4.19      0.00
    0    4   13      7.09      0.00
    1    4   13     -2.64      0.00
    2    4   13     -7.05      0.00
    3    4   13      1.69      0.00
    4    4   13     -3.02      0.00
    5    4   13     -4.23      0.00
    6    4   13      8.77      0.00
    7    4   13      0.03      0.00
    8    4   13     -6.01      0.00
    9    4   13     -3.40      0.00
   10    4   13      1.56      0.00
   11    4   13     -2.27      0.00
   12    4   13      2.73      0.00
   13    4   13      4.44      0.00
   14    4   13     -1.43      0.00
   15    4   13     -0.29      0.00
   16    4   13      2.07      0.00
   17    4   13      3.77      0.00
   18    4   13     -3.41      0.00
   19    4   13      0.43      0.00
   20    4   13      2.86      0.00
   -9    5   13      0.83      0.00
   -8    5   13      1.71      0.00
   -7    5   13      0.70      0.00
   -6    5   13     -1.27      0.00
   -5    5   13     -2.17      0.00
   -4    5   13     -2.72      0.00
   -3    5   13     -2.55      0.00
   -2    5   13      1.49      0.00
   -1    5   13      5.43      0.00
    0    5   13     -4.77      0.00
    1    5   13      5.86      0.00
    2    5   13      4.47      0.00
    3    5   13     -8.67      0.00
    4    5   13     -2.20      0.00
    5    5   13      2.48      0.00
    6    5   13      3.26      0.00
    7    5   13      2.49      0.00
    8    5   13     -6.30      0.00
    9    5   13     -1.85      0.00
   10    5   13      1.47      0.00
   11    5   13     -1.57      0.00
   12    5   13      2.31      0.00
   13    5   13      4.16      0.00
   14    5   13      1.02      0.00
   15    5   13     -0.82      0.00
   16    5   13      1.37      0.00
   17    5   13      2.24      0.00
   18    5   13      0.36      0.00
   19    5   13     -1.81      0.00
   20    5   13      1.82      0.00
   -8    6   13     -0.89      0.00
   -7    6   13      2.31      0.00
   -6    6   13      1.61      0.00
   -5    6   13     -1.47      0.00
   -4    6   13     -1.63      0.00
   -3    6   13     -0.61      0.00
   -2    6   13      3.47      0.00
   -1    6   13      0.93      0.00
    0    6   13     -4.35      0.00
    1    6   13      3.89      0.00
    2    6   13      6.81      0.00
    3    6   13     -6.38      0.00
    4    6   13      0.16      0.00
    5    6   13      7.53      0.00
    6    6   13     -3.91      0.00
    7    6   13     -4.45      0.00
    8    6   13      4.79      0.00
    9    6   13     -3.46      0.00
   10    6   13      0.32      0.00
   11    6   13      1.74      0.00
   12    6   13      1.07      0.00
   13    6   13      3.93      0.00
   14    6   13      0.94      0.00
   15    6   13      0.58      0.00
   16    6   13      0.41      0.00
   17    6   13      0.04      0.00
   18    6   13      1.87      0.00
   19    6   13      2.71      0.00
   20    6   13     -1.46      0.00
   21    6   13     -0.17      0.00
   -7    7   13      1.20      0.00
   -6    7   13      0.50      0.00
   -5    7   13      0.13      0.00
   -4    7   13     -0.06      0.00
   -3    7   13      2.25      0.00
   -2    7   13      2.12      0.00
   -1    7   13      1.64      0.00
    0    7   13     -2.59      0.00
    1    7   13      4.15      0.00
    2    7   13     -0.60      0.00
    3    7   13     -3.52      0.00
    4    7   13      6.84      0.00
    5    7   13      4.50      0.00
    6    7   13     -5.47      0.00
    7    7   13     -1.54      0.00
    8    7   13     -0.08      0.00
    9    7   13     -1.49      0.00
   10    7   13     -0.49      0.00
   11    7   13      3.95      0.00
   12    7   13      2.73      0.00
   13    7   13     -0.87      0.00
   14    7   13      2.85      0.00
   15    7   13     -0.02      0.00
   16    7   13      0.45      0.00
   17    7   13      1.30      0.00
   18    7   13      0.40      0.00
   19    7   13      1.04      0.00
   20    7   13      3.15      0.00
   21    7   13     -1.51      0.00
   -7    8   13      2.98      0.00
   -6    8   13      1.96      0.00
   -5    8   13     -3.38      0.00
   -4    8   13      1.09      0.00
   -3    8   13      3.13      0.00
   -2    8   13     -0.35      0.00
   -1    8   13      2.00      0.00
    0    8   13      1.70      0.00
    1    8   13      1.55      0.00
    2    8   13     -1.83      0.00
    3    8   13      0.31      0.00
    4    8   13      6.77      0.00
    5    8   13     -0.24      0.00
    6    8   13     -3.45      0.00
    7    8   13      1.23      0.00
    8    8   13     -0.64      0.00
    9    8   13     -6.75      0.00
   10    8   13      3.86      0.00
   11    8   13      4.10      0.00
   12    8   13     -1.39      0.00
   13    8   13     -2.09      0.00
   14    8   13      2.43      0.00
   15    8   13      1.82      0.00
   16    8   13     -1.11      0.00
   17    8   13      2.17      0.00
   18    8   13      0.38      0.00
   19    8   13      0.56      0.00
   20    8   13     -0.08      0.00
   21    8   13      1.34      0.00
   -6    9   13      3.02      0.00
   -5    9   13      0.17      0.00
   -4    9   13     -1.16      0.00
   -3    9   13      3.67      0.00
   -2    9   13     -2.82      0.00
   -1    9   13     -0.88      0.00
    0    9   13      3.80      0.00
    1    9   13     -1.65      0.00
    2    9   13      0.16      0.00
    3    9   13      4.67      0.00
    4    9   13      2.33      0.00
    5    9   13      1.90      0.00
    6    9   13     -3.26      0.00
    7    9   13      0.20      0.00
    8    9   13     -0.48      0.00
    9    9   13     -3.28      0.00
   10    9   13     -1.20      0.00
   11    9   13      4.18      0.00
   12    9   13     -1.37      0.00
   13    9   13     -3.13      0.00
   14    9   13      2.18      0.00
   15    9   13     -0.84      0.00
   16    9   13      3.15      0.00
   17    9   13     -3.57      0.00
   18    9   13      1.19      0.00
   19    9   13      1.44      0.00
   20    9   13     -0.61      0.00
   21    9   13     -1.22      0.00
   -5   10   13      1.17      0.00
   -4   10   13      4.88      0.00
   -3   10   13     -0.35      0.00
   -2   10   13     -3.54      0.00
   -1   10   13      1.24      0.00
    0   10   13     -0.97      0.00
    1   10   13     -2.67      0.00
    2   10   13      3.31      0.00
    3   10   13      3.27      0.00
    4   10   13     -1.86      0.00
    5   10   13      3.17      0.00
    6   10   13      2.62      0.00
    7   10   13     -4.56      0.00
    8   10   13      1.89      0.00
    9   10   13     -1.23      0.00
   10   10   13     -1.92      0.00
   11   10   13     -3.72      0.00
   12   10   13      0.96      0.00
   13   10   13      1.59      0.00
   14   10   13     -0.51      0.00
   15   10   13     -0.50      0.00
   16   10   13      0.29      0.00
   17   10   13      0.33      0.00
   18   10   13     -2.57      0.00
   19   10   13     -0.53      0.00
   20   10   13     -0.66      0.00
   21   10   13     -0.98      0.00
   -4   11   13      2.69      0.00
   -3   11   13      3.53      0.00
   -2   11   13     -1.18      0.00
   -1   11   13      1.33      0.00
    0   11   13     -2.88      0.00
    1   11   13     -3.35      0.00
    2   11   13      5.54      0.00
    3   11   13     -0.78      0.00
    4   11   13     -3.33      0.00
    5   11   13      3.84      0.00
    6   11   13     -0.43      0.00
    7   11   13      0.63      0.00
    8   11   13      0.51      0.00
    9   11   13     -0.34      0.00
   10   11   13     -2.62      0.00
   11   11   13     -3.00      0.00
   12   11   13     -1.60      0.00
   13   11   13      1.34      0.00
   14   11   13      0.99      0.00
   15   11   13     -2.45      0.00
   16   11   13      2.39      0.00
   17   11   13     -0.44      0.00
   18   11   13      0.51      0.00
   19   11   13     -2.71      0.00
   20   11   13     -3.23      0.00
   21   11   13     -3.11      0.00
   -3   12   13      2.28      0.00
   -2   12   13      4.30      0.00
   -1   12   13      0.12      0.00
    0   12   13     -0.09      0.00
    1   12   13     -1.62      0.00
    2   12   13      0.58      0.00
    3   12   13     -2.55      0.00
    4   12   13      1.01      0.00
    5   12   13      1.16      0.00
    6   12   13     -1.23      0.00
    7   12   13     -1.27      0.00
    8   12   13      3.73      0.00
    9   12   13     -3.04      0.00
   10   12   13      0.67      0.00
   11   12   13     -2.91      0.00
   12   12   13      0.78      0.00
   13   12   13     -1.59      0.00
   14   12   13     -0.89      0.00
   15   12   13     -0.37      0.00
   16   12   13      2.23      0.00
   17   12   13     -0.19      0.00
   18   12   13     -1.48      0.00
   19   12   13      1.31      0.00
   20   12   13     -3.81      0.00
   21   12   13     -2.86      0.00
   -2   13   13      2.23      0.00
   -1   13   13     -0.21      0.00
    0   13   13      1.17      0.00
    1   13   13      1.15      0.00
    2   13   13      0.89      0.00
    3   13   13     -0.88      0.00
    4   13   13     -3.44      0.00
    5   13   13      0.93      0.00
    6   13   13     -1.23      0.00
    7   13   13      1.97      0.00
    8   13   13     -1.52      0.00
    9   13   13     -0.41      0.00
   10   13   13      2.34      0.00
   11   13   13      0.49      0.00
   12   13   13     -0.59      0.00
   13   13   13     -1.52      0.00
   14   13   13     -0.22      0.00
   15   13   13     -1.42      0.00
   16   13   13      3.79      0.00
   17   13   13      0.06      0.00
   18   13   13     -2.39      0.00
   19   13   13     -0.83      0.00
   20   13   13     -1.11      0.00
   21   13   13      0.14      0.00
   -1   14   13     -1.36      0.00
    0   14   13     -0.46      0.00
    1   14   13     -0.48      0.00
    2   14   13      6.92      0.00
    3   14   13     -1.79      0.00
    4   14   13     -2.97      0.00
    5   14   13     -6.09      0.00
    6   14   13      3.41      0.00
    7   14   13      1.76      0.00
    8   14   13      0.29      0.00
    9   14   13     -2.62      0.00
   10   14   13      3.97      0.00
   11   14   13     -0.80      0.00
   12   14   13      2.88      0.00
   13   14   13     -0.16      0.00
   14   14   13      0.69      0.00
   15   14   13     -2.28      0.00
   16   14   13      1.28      0.00
   17   14   13      2.18      0.00
   18   14   13     -0.65      0.00
   19   14   13     -0.72      0.00
   20   14   13     -1.26      0.00
    0   15   13      1.80      0.00
    1   15   13      0.17      0.00
    2   15   13     -0.33      0.00
    3   15   13     -0.61      0.00
    4   15   13     -4.22      0.00
    5   15   13     -0.30      0.00
    6   15   13     -1.31      0.00
    7   15   13      3.88      0.00
    8   15   13     -2.91      0.00
    9   15   13      2.16      0.00
   10   15   13      1.12      0.00
   11   15   13     -1.45      0.00
   12   15   13      3.17      0.00
   13   15   13     -1.15      0.00
   14   15   13      2.80      0.00
   15   15   13      2.32      0.00
   16   15   13     -2.78      0.00
   17   15   13     -0.84      0.00
   18   15   13      0.13      0.00
   19   15   13      1.78      0.00
   20   15   13      0.73      0.00
    2   16   13      0.56      0.00
    3   16   13     -5.66      0.00
    4   16   13      1.67      0.00
    5   16   13     -4.04      0.00
    6   16   13      0.15      0.00
    7   16   13     -1.81      0.00
    8   16   13      0.83      0.00
    9   16   13     -1.25      0.00
   10   16   13      2.84      0.00
   11   16   13      2.30      0.00
   12   16   13      1.61      0.00
   13   16   13     -6.11      0.00
   14   16   13      0.12      0.00
   15   16   13      2.99      0.00
   16   16   13      1.19      0.00
   17   16   13     -0.73      0.00
   18   16   13     -3.81      0.00
   19   16   13     -0.42      0.00
    3   17   13      2.64      0.00
    4   17   13     -1.63      0.00
    5   17   13     -1.91      0.00
    6   17   13     -7.38      0.00
    7   17   13      2.23      0.00
    8   17   13     -2.38      0.00
    9   17   13      0.56      0.00
   10   17   13      0.88      0.00
   11   17   13      0.98      0.00
   12   17   13      2.86      0.00
   13   17   13     -1.95      0.00
   14   17   13     -2.97      0.00
   15   17   13     -4.22      0.00
   16   17   13     -1.38      0.00
   17   17   13      4.84      0.00
   18   17   13     -4.32      0.00
   19   17   13     -0.97      0.00
    5   18   13     -3.56      0.00
    6   18   13     -3.05      0.00
    7   18   13     -2.03      0.00
    8   18   13      2.04      0.00
    9   18   13     -1.52      0.00
   10   18   13     -0.12      0.00
   11   18   13     -2.53      0.00
   12   18   13      1.27      0.00
   13   18   13      1.92      0.00
   14   18   13      0.23      0.00
   15   18   13     -1.73      0.00
   16   18   13     -7.92      0.00
   17   18   13     -1.97      0.00
   18   18   13      2.31      0.00
    8   19   13     -2.86      0.00
    9   19   13      2.92      0.00
   10   19   13     -1.86      0.00
   11   19   13     -1.82      0.00
   12   19   13      1.81      0.00
   13   19   13     -1.40      0.00
   14   19   13      2.83      0.00
   15   19   13      0.90      0.00
   16   19   13     -5.73      0.00
   -5  -19   14      3.37      0.00
   -4  -19   14     -2.23      0.00
   -8  -18   14     -3.32      0.00
   -7  -18   14      0.55      0.00
   -6  -18   14      6.26      0.00
   -5  -18   14      0.91      0.00
   -4  -18   14      0.67      0.00
   -3  -18   14      0.74      0.00
   -2  -18   14     -0.26      0.00
   -1  -18   14      0.57      0.00
    0  -18   14      2.28      0.00
  -10  -17   14     -1.27      0.00
   -9  -17   14     -0.21      0.00
   -8  -17   14     -3.73      0.00
   -7  -17   14     -0.84      0.00
   -6  -17   14      3.95      0.00
   -5  -17   14      2.14      0.00
   -4  -17   14      1.92      0.00
   -3  -17   14      3.28      0.00
   -2  -17   14     -2.84      0.00
   -1  -17   14      3.00      0.00
    0  -17   14     -1.42      0.00
    1  -17   14      3.21      0.00
    2  -17   14      8.55      0.00
    3  -17   14      1.97      0.00
  -11  -16   14      2.49      0.00
  -10  -16   14     -0.68      0.00
   -9  -16   14      1.33      0.00
   -8  -16   14     -2.92      0.00
   -7  -16   14     -0.74      0.00
   -6  -16   14     -0.10      0.00
   -5  -16   14      0.78      0.00
   -4  -16   14      3.70      0.00
   -3  -16   14     -0.43      0.00
   -2  -16   14      2.98      0.00
   -1  -16   14      1.98      0.00
    0  -16   14     -1.11      0.00
    1  -16   14      1.29      0.00
    2  -16   14      9.14      0.00
    3  -16   14     -0.02      0.00
    4  -16   14     -3.19      0.00
    5  -16   14      0.67      0.00
  -11  -15   14      0.14      0.00
  -10  -15   14     -0.91      0.00
   -9  -15   14      0.21      0.00
   -8  -15   14     -0.75      0.00
   -7  -15   14      2.11      0.00
   -6  -15   14     -0.45      0.00
   -5  -15   14     -0.63      0.00
   -4  -15   14     -0.70      0.00
   -3  -15   14      2.73      0.00
   -2  -15   14      2.09      0.00
   -1  -15   14      3.65      0.00
    0  -15   14     -2.07      0.00
    1  -15   14      4.72      0.00
    2  -15   14     -1.96      0.00
    3  -15   14     -0.28      0.00
    4  -15   14      1.83      0.00
    5  -15   14      1.10      0.00
    6  -15   14     -3.04      0.00
  -12  -14   14     -2.04      0.00
  -11  -14   14      1.39      0.00
  -10  -14   14     -3.25      0.00
   -9  -14   14      1.12      0.00
   -8  -14   14     -1.03      0.00
   -7  -14   14      0.44      0.00
   -6  -14   14      0.94      0.00
   -5  -14   14      0.07      0.00
   -4  -14   14      0.06      0.00
   -3  -14   14      2.36      0.00
   -2  -14   14      2.70      0.00
   -1  -14   14      0.26      0.00
    0  -14   14     -1.17      0.00
    1  -14   14      3.12      0.00
    2  -14   14     -0.85      0.00
    3  -14   14     -3.65      0.00
    4  -14   14      3.31      0.00
    5  -14   14     -1.54      0.00
    6  -14   14     -0.24      0.00
    7  -14   14      1.79      0.00
    8  -14   14     -1.18      0.00
  -12  -13   14     -3.80      0.00
  -11  -13   14     -0.11      0.00
  -10  -13   14     -1.58      0.00
   -9  -13   14      1.65      0.00
   -8  -13   14      1.70      0.00
   -7  -13   14     -3.65      0.00
   -6  -13   14     -0.64      0.00
   -5  -13   14      3.49      0.00
   -4  -13   14     -0.65      0.00
   -3  -13   14      1.11      0.00
   -2  -13   14      1.31      0.00
   -1  -13   14      3.39      0.00
    0  -13   14     -7.63      0.00
    1  -13   14      5.62      0.00
    2  -13   14     -1.73      0.00
    3  -13   14      0.99      0.00
    4  -13   14     -0.01      0.00
    5  -13   14     -0.17      0.00
    6  -13   14     -1.34      0.00
    7  -13   14      1.87      0.00
    8  -13   14     -0.11      0.00
    9  -13   14     -1.71      0.00
  -13  -12   14      0.67      0.00
  -12  -12   14     -3.40      0.00
  -11  -12   14     -0.95      0.00
  -10  -12   14     -1.92      0.00
   -9  -12   14      2.37      0.00
   -8  -12   14     -0.50      0.00
   -7  -12   14      1.02      0.00
   -6  -12   14      0.81      0.00
   -5  -12   14     -0.23      0.00
   -4  -12   14     -0.47      0.00
   -3  -12   14     -1.49      0.00
   -2  -12   14      0.99      0.00
   -1  -12   14      0.73      0.00
    0  -12   14     -2.98      0.00
    1  -12   14      2.75      0.00
    2  -12   14     -3.03      0.00
    3  -12   14      0.00      0.00
    4  -12   14      5.65      0.00
    5  -12   14     -1.68      0.00
    6  -12   14      1.58      0.00
    7  -12   14     -0.75      0.00
    8  -12   14     -2.64      0.00
    9  -12   14     -0.38      0.00
   10  -12   14      0.53      0.00
  -13  -11   14     -0.13      0.00
  -12  -11   14     -1.83      0.00
  -11  -11   14      3.49      0.00
  -10  -11   14     -1.42      0.00
   -9  -11   14     -3.14      0.00
   -8  -11   14      1.28      0.00
   -7  -11   14      0.30      0.00
   -6  -11   14      4.43      0.00
   -5  -11   14     -0.88      0.00
   -4  -11   14     -3.29      0.00
   -3  -11   14      0.64      0.00
   -2  -11   14     -2.02      0.00
   -1  -11   14     -1.20      0.00
    0  -11   14     -2.55      0.00
    1  -11   14      6.17      0.00
    2  -11   14     -8.08      0.00
    3  -11   14      4.03      0.00
    4  -11   14     -0.78      0.00
    5  -11   14     -0.39      0.00
    6  -11   14      3.29      0.00
    7  -11   14      1.76      0.00
    8  -11   14     -2.12      0.00
    9  -11   14     -0.13      0.00
   10  -11   14     -0.67      0.00
   11  -11   14      0.67      0.00
  -13  -10   14     -1.78      0.00
  -12  -10   14     -1.80      0.00
  -11  -10   14      5.34      0.00
  -10  -10   14     -0.07      0.00
   -9  -10   14      1.28      0.00
   -8  -10   14     -3.00      0.00
   -7  -10   14     -0.24      0.00
   -6  -10   14      2.57      0.00
   -5  -10   14     -0.03      0.00
   -4  -10   14     -0.28      0.00
   -3  -10   14     -2.54      0.00
   -2  -10   14     -0.24      0.00
   -1  -10   14      0.17      0.00
    0  -10   14     -3.60      0.00
    1  -10   14      0.48      0.00
    2  -10   14     -2.81      0.00
    3  -10   14      0.53      0.00
    4  -10   14     -2.81      0.00
    5  -10   14     -0.33      0.00
    6  -10   14      3.04      0.00
    7  -10   14     -0.39      0.00
    8  -10   14      4.31      0.00
    9  -10   14      0.18      0.00
   10  -10   14     -5.71      0.00
   11  -10   14      0.92      0.00
   12  -10   14      0.42      0.00
  -13   -9   14      3.11      0.00
  -12   -9   14     -1.66      0.00
  -11   -9   14     -0.40      0.00
  -10   -9   14      2.44      0.00
   -9   -9   14      1.22      0.00
   -8   -9   14      0.74      0.00
   -7   -9   14     -0.17      0.00
   -6   -9   14      1.33      0.00
   -5   -9   14     -4.20      0.00
   -4   -9   14      1.17      0.00
   -3   -9   14      2.70      0.00
   -2   -9   14     -1.81      0.00
   -1   -9   14     -0.81      0.00
    0   -9   14      0.52      0.00
    1   -9   14     -2.85      0.00
    2   -9   14     -8.29      0.00
    3   -9   14      4.60      0.00
    4   -9   14     -4.21      0.00
    5   -9   14      2.41      0.00
    6   -9   14     -1.01      0.00
    7   -9   14      2.78      0.00
    8   -9   14     -0.40      0.00
    9   -9   14     -0.46      0.00
   10   -9   14     -1.69      0.00
   11   -9   14     -0.87      0.00
   12   -9   14     -1.03      0.00
   13   -9   14     -0.96      0.00
  -13   -8   14      1.72      0.00
  -12   -8   14      2.98      0.00
  -11   -8   14     -0.37      0.00
  -10   -8   14      0.94      0.00
   -9   -8   14     -1.15      0.00
   -8   -8   14     -1.61      0.00
   -7   -8   14      5.59      0.00
   -6   -8   14      0.68      0.00
   -5   -8   14     -5.81      0.00
   -4   -8   14      1.46      0.00
   -3   -8   14      4.17      0.00
   -2   -8   14      0.75      0.00
   -1   -8   14     -2.74      0.00
    0   -8   14     -2.38      0.00
    1   -8   14     -0.27      0.00
    2   -8   14     -4.35      0.00
    3   -8   14      2.20      0.00
    4   -8   14     -3.34      0.00
    5   -8   14      2.03      0.00
    6   -8   14     -2.49      0.00
    7   -8   14     -0.73      0.00
    8   -8   14      2.33      0.00
    9   -8   14      1.14      0.00
   10   -8   14     -1.20      0.00
   11   -8   14     -0.55      0.00
   12   -8   14     -3.48      0.00
   13   -8   14     -3.31      0.00
   14   -8   14     -1.30      0.00
  -13   -7   14     -1.15      0.00
  -12   -7   14     -1.44      0.00
  -11   -7   14      5.00      0.00
  -10   -7   14      0.34      0.00
   -9   -7   14     -0.85      0.00
   -8   -7   14      0.65      0.00
   -7   -7   14     -3.10      0.00
   -6   -7   14      3.66      0.00
   -5   -7   14     -2.61      0.00
   -4   -7   14      2.58      0.00
   -3   -7   14      2.40      0.00
   -2   -7   14     -1.28      0.00
   -1   -7   14     -1.04      0.00
    0   -7   14     -3.57      0.00
    1   -7   14     -0.11      0.00
    2   -7   14     -0.63      0.00
    3   -7   14      3.76      0.00
    4   -7   14     -5.47      0.00
    5   -7   14      1.94      0.00
    6   -7   14     -2.59      0.00
    7   -7   14     -1.03      0.00
    8   -7   14     -2.75      0.00
    9   -7   14      8.46      0.00
   10   -7   14      0.02      0.00
   11   -7   14     -2.33      0.00
   12   -7   14     -1.43      0.00
   13   -7   14     -4.84      0.00
   14   -7   14     -4.08      0.00
  -12   -6   14     -0.75      0.00
  -11   -6   14     -0.47      0.00
  -10   -6   14      0.20      0.00
   -9   -6   14      0.49      0.00
   -8   -6   14      0.12      0.00
   -7   -6   14      1.03      0.00
   -6   -6   14     -1.22      0.00
   -5   -6   14     -3.05      0.00
   -4   -6   14      3.63      0.00
   -3   -6   14      1.96      0.00
   -2   -6   14      0.68      0.00
   -1   -6   14     -6.47      0.00
    0   -6   14      0.01      0.00
    1   -6   14      2.80      0.00
    2   -6   14     -3.60      0.00
    3   -6   14      0.51      0.00
    4   -6   14     -2.28      0.00
    5   -6   14      2.15      0.00
    6   -6   14     -7.23      0.00
    7   -6   14      4.95      0.00
    8   -6   14      0.31      0.00
    9   -6   14     -3.43      0.00
   10   -6   14      6.95      0.00
   11   -6   14      2.37      0.00
   12   -6   14     -4.45      0.00
   13   -6   14     -2.36      0.00
   14   -6   14     -2.34      0.00
   15   -6   14     -3.12      0.00
  -12   -5   14      2.73      0.00
  -11   -5   14      1.60      0.00
  -10   -5   14     -2.78      0.00
   -9   -5   14     -2.32      0.00
   -8   -5   14     -0.06      0.00
   -7   -5   14      1.23      0.00
   -6   -5   14      3.43      0.00
   -5   -5   14     -5.85      0.00
   -4   -5   14      0.41      0.00
   -3   -5   14      2.71      0.00
   -2   -5   14     -0.49      0.00
   -1   -5   14     -4.07      0.00
    0   -5   14      2.31      0.00
    1   -5   14      1.52      0.00
    2   -5   14     -6.37      0.00
    3   -5   14      2.62      0.00
    4   -5   14     -2.45      0.00
    5   -5   14     -3.78      0.00
    6   -5   14     -7.22      0.00
    7   -5   14      7.68      0.00
    8   -5   14     -1.49      0.00
    9   -5   14     -0.05      0.00
   10   -5   14      4.01      0.00
   11   -5   14      5.48      0.00
   12   -5   14     -4.06      0.00
   13   -5   14     -5.10      0.00
   14   -5   14      2.40      0.00
   15   -5   14     -4.12      0.00
   16   -5   14     -1.59      0.00
  -12   -4   14     -1.29      0.00
  -11   -4   14      2.78      0.00
  -10   -4   14      0.06      0.00
   -9   -4   14     -1.58      0.00
   -8   -4   14      0.10      0.00
   -7   -4   14     -1.24      0.00
   -6   -4   14     -0.89      0.00
   -5   -4   14     -0.03      0.00
   -4   -4   14      2.94      0.00
   -3   -4   14     -1.88      0.00
   -2   -4   14     -7.30      0.00
   -1   -4   14      2.43      0.00
    0   -4   14      8.09      0.00
    1   -4   14     -3.79      0.00
    2   -4   14     -3.03      0.00
    3   -4   14     -0.05      0.00
    4   -4   14      0.99      0.00
    5   -4   14     -8.29      0.00
    6   -4   14     -8.79      0.00
    7   -4   14      9.78      0.00
    8   -4   14     -4.12      0.00
    9   -4   14     -2.19      0.00
   10   -4   14      8.27      0.00
   11   -4   14      0.18      0.00
   12   -4   14      0.04      0.00
   13   -4   14     -2.78      0.00
   14   -4   14     -1.13      0.00
   15   -4   14      1.16      0.00
   16   -4   14     -4.38      0.00
   17   -4   14      1.52      0.00
  -12   -3   14     -0.59      0.00
  -11   -3   14     -2.34      0.00
  -10   -3   14     -0.63      0.00
   -9   -3   14      1.30      0.00
   -8   -3   14      2.38      0.00
   -7   -3   14     -2.75      0.00
   -6   -3   14     -1.57      0.00
   -5   -3   14     -2.41      0.00
   -4   -3   14      7.94      0.00
   -3   -3   14     -6.89      0.00
   -2   -3   14     -3.65      0.00
   -1   -3   14      1.90      0.00
    0   -3   14      4.91      0.00
    1   -3   14     -0.29      0.00
    2   -3   14     -0.29      0.00
    3   -3   14      1.47      0.00
    4   -3   14     -3.60      0.00
    5   -3   14     -4.86      0.00
    6   -3   14     -6.28      0.00
    7   -3   14      4.81      0.00
    8   -3   14     -1.27      0.00
    9   -3   14     -1.46      0.00
   10   -3   14     -1.13      0.00
   11   -3   14      0.94      0.00
   12   -3   14     -0.51      0.00
   13   -3   14      2.81      0.00
   14   -3   14      2.42      0.00
   15   -3   14     -2.71      0.00
   16   -3   14     -1.21      0.00
   17   -3   14     -1.46      0.00
  -11   -2   14     -1.11      0.00
  -10   -2   14     -1.32      0.00
   -9   -2   14      0.44      0.00
   -8   -2   14     -0.23      0.00
   -7   -2   14     -0.46      0.00
   -6   -2   14     -1.10      0.00
   -5   -2   14      2.14      0.00
   -4   -2   14     -0.19      0.00
   -3   -2   14     -8.16      0.00
   -2   -2   14      1.83      0.00
   -1   -2   14      6.02      0.00
    0   -2   14     -2.99      0.00
    1   -2   14      1.26      0.00
    2   -2   14      5.96      0.00
    3   -2   14     -2.81      0.00
    4   -2   14     -0.85      0.00
    5   -2   14     -4.33      0.00
    6   -2   14     -2.79      0.00
    7   -2   14      1.12      0.00
    8   -2   14      0.11      0.00
    9   -2   14     -0.41      0.00
   10   -2   14     -2.26      0.00
   11   -2   14     -7.60      0.00
   12   -2   14      3.21      0.00
   13   -2   14      3.91      0.00
   14   -2   14      3.47      0.00
   15   -2   14     -1.21      0.00
   16   -2   14     -3.06      0.00
   17   -2   14      3.39      0.00
   18   -2   14     -2.94      0.00
  -11   -1   14     -1.40      0.00
  -10   -1   14      2.25      0.00
   -9   -1   14      0.35      0.00
   -8   -1   14     -0.44      0.00
   -7   -1   14     -3.79      0.00
   -6   -1   14      3.29      0.00
   -5   -1   14      1.59      0.00
   -4   -1   14     -0.92      0.00
   -3   -1   14     -8.40      0.00
   -2   -1   14      1.52      0.00
   -1   -1   14      0.44      0.00
    0   -1   14      7.12      0.00
    1   -1   14     -3.75      0.00
    2   -1   14      7.53      0.00
    3   -1   14     -3.26      0.00
    4   -1   14     -6.16      0.00
    5   -1   14      5.56      0.00
    6   -1   14     -1.84      0.00
    7   -1   14     -0.20      0.00
    8   -1   14      0.54      0.00
    9   -1   14     -3.23      0.00
   10   -1   14     -5.51      0.00
   11   -1   14     -2.42      0.00
   12   -1   14     -0.76      0.00
   13   -1   14      6.40      0.00
   14   -1   14      0.35      0.00
   15   -1   14     -1.85      0.00
   16   -1   14      2.21      0.00
   17   -1   14     -0.26      0.00
   18   -1   14     -0.25      0.00
  -11    0   14     -0.58      0.00
  -10    0   14      0.19      0.00
   -9    0   14      0.69      0.00
   -8    0   14     -0.17      0.00
   -7    0   14      0.85      0.00
   -6    0   14      2.18      0.00
   -5    0   14     -1.06      0.00
   -4    0   14     -1.21      0.00
   -3    0   14     -0.78      0.00
   -2    0   14      0.89      0.00
   -1    0   14     -1.68      0.00
    0    0   14      0.42      0.00
    1    0   14      3.53      0.00
    2    0   14      1.00      0.00
    3    0   14     -3.23      0.00
    4    0   14      0.19      0.00
    5    0   14      0.94      0.00
    6    0   14      3.32      0.00
    7    0   14      1.93      0.00
    8    0   14     -0.04      0.00
    9    0   14     -8.13      0.00
   10    0   14     -4.83      0.00
   11    0   14      0.35      0.00
   12    0   14      1.60      0.00
   13    0   14     -0.50      0.00
   14    0   14      0.93      0.00
   15    0   14      0.03      0.00
   16    0   14      2.56      0.00
   17    0   14     -0.46      0.00
   18    0   14     -0.91      0.00
   19    0   14      2.70      0.00
  -10    1   14      0.55      0.00
   -9    1   14     -2.80      0.00
   -8    1   14     -0.05      0.00
   -7    1   14      2.37      0.00
   -6    1   14      3.47      0.00
   -5    1   14     -3.62      0.00
   -4    1   14      1.75      0.00
   -3    1   14      0.94      0.00
   -2    1   14      3.59      0.00
   -1    1   14      0.75      0.00
    0    1   14     -0.17      0.00
    1    1   14     -6.38      0.00
    2    1   14      5.78      0.00
    3    1   14     -5.94      0.00
    4    1   14      5.83      0.00
    5    1   14      2.58      0.00
    6    1   14     -2.06      0.00
    7    1   14      4.99      0.00
    8    1   14     -3.45      0.00
    9    1   14     -5.43      0.00
   10    1   14     -0.31      0.00
   11    1   14      1.40      0.00
   12    1   14     -3.24      0.00
   13    1   14      1.76      0.00
   14    1   14     -1.26      0.00
   15    1   14     -0.40      0.00
   16    1   14      2.12      0.00
   17    1   14      0.52      0.00
   18    1   14     -0.14      0.00
   19    1   14      0.71      0.00
  -10    2   14      0.06      0.00
   -9    2   14     -0.26      0.00
   -8    2   14      0.57      0.00
   -7    2   14      0.41      0.00
   -6    2   14     -2.17      0.00
   -5    2   14      0.12      0.00
   -4    2   14      3.85      0.00
   -3    2   14      3.03      0.00
   -2    2   14     -0.60      0.00
   -1    2   14      0.38      0.00
    0    2   14      6.65      0.00
    1    2   14     -7.15      0.00
    2    2   14     -2.29      0.00
    3    2   14      6.82      0.00
    4    2   14     -3.26      0.00
    5    2   14      1.68      0.00
    6    2   14      8.25      0.00
    7    2   14     -3.22      0.00
    8    2   14     -7.94      0.00
    9    2   14      0.46      0.00
   10    2   14      3.38      0.00
   11    2   14     -0.20      0.00
   12    2   14     -1.63      0.00
   13    2   14     -1.05      0.00
   14    2   14      1.76      0.00
   15    2   14     -1.57      0.00
   16    2   14     -0.66      0.00
   17    2   14      1.81      0.00
   18    2   14     -1.19      0.00
   19    2   14      1.92      0.00
   -9    3   14      0.36      0.00
   -8    3   14      4.44      0.00
   -7    3   14     -2.03      0.00
   -6    3   14     -2.32      0.00
   -5    3   14     -0.68      0.00
   -4    3   14      3.13      0.00
   -3    3   14      1.64      0.00
   -2    3   14      1.55      0.00
   -1    3   14      1.02      0.00
    0    3   14     -1.13      0.00
    1    3   14     -3.73      0.00
    2    3   14      4.23      0.00
    3    3   14      0.33      0.00
    4    3   14      1.42      0.00
    5    3   14     -1.44      0.00
    6    3   14      7.97      0.00
    7    3   14     -1.52      0.00
    8    3   14     -8.31      0.00
    9    3   14      2.46      0.00
   10    3   14      0.94      0.00
   11    3   14      0.21      0.00
   12    3   14      1.21      0.00
   13    3   14     -2.53      0.00
   14    3   14     -1.51      0.00
   15    3   14      1.59      0.00
   16    3   14     -0.83      0.00
   17    3   14     -0.24      0.00
   18    3   14      0.06      0.00
   19    3   14      2.73      0.00
   20    3   14      1.56      0.00
   -9    4   14      0.93      0.00
   -8    4   14     -0.28      0.00
   -7    4   14     -1.12      0.00
   -6    4   14      0.52      0.00
   -5    4   14      0.61      0.00
   -4    4   14     -0.28      0.00
   -3    4   14      1.22      0.00
   -2    4   14      3.41      0.00
   -1    4   14      1.01      0.00
    0    4   14     -4.02      0.00
    1    4   14     -6.61      0.00
    2    4   14      3.72      0.00
    3    4   14      1.36      0.00
    4    4   14     -0.69      0.00
    5    4   14      6.60      0.00
    6    4   14     -0.68      0.00
    7    4   14     -5.09      0.00
    8    4   14     -1.22      0.00
    9    4   14      5.67      0.00
   10    4   14     -1.02      0.00
   11    4   14     -0.83      0.00
   12    4   14      2.17      0.00
   13    4   14     -4.85      0.00
   14    4   14     -2.37      0.00
   15    4   14      0.14      0.00
   16    4   14      1.06      0.00
   17    4   14     -2.61      0.00
   18    4   14      0.76      0.00
   19    4   14      6.66      0.00
   20    4   14     -0.59      0.00
   -8    5   14     -1.44      0.00
   -7    5   14     -3.16      0.00
   -6    5   14     -0.63      0.00
   -5    5   14      0.88      0.00
   -4    5   14      0.47      0.00
   -3    5   14      2.49      0.00
   -2    5   14      1.60      0.00
   -1    5   14     -2.42      0.00
    0    5   14     -0.50      0.00
    1    5   14      0.09      0.00
    2    5   14     -7.33      0.00
    3    5   14     -0.64      0.00
    4    5   14      5.66      0.00
    5    5   14      0.44      0.00
    6    5   14      0.18      0.00
    7    5   14     -5.01      0.00
    8    5   14     -0.92      0.00
    9    5   14      7.20      0.00
   10    5   14     -1.35      0.00
   11    5   14      0.33      0.00
   12    5   14      2.63      0.00
   13    5   14     -5.81      0.00
   14    5   14     -3.07      0.00
   15    5   14     -0.93      0.00
   16    5   14      0.15      0.00
   17    5   14     -0.73      0.00
   18    5   14     -1.00      0.00
   19    5   14      4.74      0.00
   20    5   14      1.65      0.00
   -7    6   14     -1.27      0.00
   -6    6   14     -2.78      0.00
   -5    6   14     -0.80      0.00
   -4    6   14      1.07      0.00
   -3    6   14     -0.61      0.00
   -2    6   14      0.72      0.00
   -1    6   14     -3.75      0.00
    0    6   14      2.14      0.00
    1    6   14      2.58      0.00
    2    6   14     -5.76      0.00
    3    6   14     -2.23      0.00
    4    6   14      4.31      0.00
    5    6   14     -2.79      0.00
    6    6   14     -4.14      0.00
    7    6   14      3.93      0.00
    8    6   14      0.14      0.00
    9    6   14      1.50      0.00
   10    6   14     -0.27      0.00
   11    6   14      1.81      0.00
   12    6   14      0.66      0.00
   13    6   14     -3.01      0.00
   14    6   14     -1.46      0.00
   15    6   14     -1.81      0.00
   16    6   14     -0.84      0.00
   17    6   14      0.73      0.00
   18    6   14      0.54      0.00
   19    6   14      0.44      0.00
   20    6   14     -1.75      0.00
   -7    7   14     -3.31      0.00
   -6    7   14      0.17      0.00
   -5    7   14      1.00      0.00
   -4    7   14     -2.25      0.00
   -3    7   14      0.16      0.00
   -2    7   14     -2.29      0.00
   -1    7   14     -2.53      0.00
    0    7   14      0.24      0.00
    1    7   14      1.26      0.00
    2    7   14     -3.39      0.00
    3    7   14      3.45      0.00
    4    7   14      1.67      0.00
    5    7   14     -7.74      0.00
    6    7   14     -1.97      0.00
    7    7   14      5.94      0.00
    8    7   14      0.22      0.00
    9    7   14      0.40      0.00
   10    7   14      2.66      0.00
   11    7   14     -0.20      0.00
   12    7   14     -2.07      0.00
   13    7   14      1.01      0.00
   14    7   14      1.12      0.00
   15    7   14     -2.09      0.00
   16    7   14      1.97      0.00
   17    7   14     -1.21      0.00
   18    7   14     -0.63      0.00
   19    7   14      2.04      0.00
   20    7   14     -2.34      0.00
   21    7   14     -0.07      0.00
   -6    8   14     -3.11      0.00
   -5    8   14      0.86      0.00
   -4    8   14      3.56      0.00
   -3    8   14     -3.43      0.00
   -2    8   14     -0.71      0.00
   -1    8   14     -0.71      0.00
    0    8   14      0.06      0.00
    1    8   14     -4.16      0.00
    2    8   14     -0.27      0.00
    3    8   14      4.76      0.00
    4    8   14     -2.87      0.00
    5    8   14     -5.42      0.00
    6    8   14      1.72      0.00
    7    8   14      3.76      0.00
    8    8   14     -4.12      0.00
    9    8   14      5.92      0.00
   10    8   14      4.12      0.00
   11    8   14     -4.22      0.00
   12    8   14     -1.99      0.00
   13    8   14      5.00      0.00
   14    8   14      2.56      0.00
   15    8   14     -0.28      0.00
   16    8   14      0.36      0.00
   17    8   14      1.76      0.00
   18    8   14     -2.23      0.00
   19    8   14      1.28      0.00
   20    8   14     -1.23      0.00
   21    8   14      1.00      0.00
   -5    9   14     -0.82      0.00
   -4    9   14      1.33      0.00
   -3    9   14     -0.85      0.00
   -2    9   14     -2.41      0.00
   -1    9   14      4.19      0.00
    0    9   14     -1.80      0.00
    1    9   14     -2.03      0.00
    2    9   14      1.38      0.00
    3    9   14     -0.66      0.00
    4    9   14     -2.51      0.00
    5    9   14     -3.87      0.00
    6    9   14      1.39      0.00
    7    9   14      2.25      0.00
    8    9   14     -2.53      0.00
    9    9   14      3.10      0.00
   10    9   14      4.64      0.00
   11    9   14     -0.86      0.00
   12    9   14     -1.11      0.00
   13    9   14      2.81      0.00
   14    9   14      3.77      0.00
   15    9   14      1.50      0.00
   16    9   14      0.43      0.00
   17    9   14      0.29      0.00
   18    9   14      2.40      0.00
   19    9   14     -0.06      0.00
   20    9   14     -1.39      0.00
   21    9   14      1.11      0.00
   -4   10   14     -2.79      0.00
   -3   10   14     -2.74      0.00
   -2   10   14      2.30      0.00
   -1   10   14     -0.85      0.00
    0   10   14     -0.50      0.00
    1   10   14      2.24      0.00
    2   10   14      1.06      0.00
    3   10   14     -4.64      0.00
    4   10   14     -0.05      0.00
    5   10   14      0.79      0.00
    6   10   14     -5.23      0.00
    7   10   14      3.04      0.00
    8   10   14     -0.41      0.00
    9   10   14      0.34      0.00
   10   10   14      1.07      0.00
   11   10   14      2.77      0.00
   12   10   14      3.96      0.00
   13   10   14      0.84      0.00
   14   10   14     -1.07      0.00
   15   10   14      3.39      0.00
   16   10   14      1.08      0.00
   17   10   14      1.11      0.00
   18   10   14     -0.19      0.00
   19   10   14      3.07      0.00
   20   10   14     -0.52      0.00
   21   10   14      2.59      0.00
   -3   11   14     -1.35      0.00
   -2   11   14     -1.61      0.00
   -1   11   14     -0.60      0.00
    0   11   14     -2.35      0.00
    1   11   14      3.41      0.00
    2   11   14     -0.35      0.00
    3   11   14     -4.09      0.00
    4   11   14      0.44      0.00
    5   11   14      0.22      0.00
    6   11   14     -0.98      0.00
    7   11   14     -0.56      0.00
    8   11   14     -0.32      0.00
    9   11   14      0.93      0.00
   10   11   14     -0.11      0.00
   11   11   14      1.37      0.00
   12   11   14      4.78      0.00
   13   11   14     -0.95      0.00
   14   11   14      0.56      0.00
   15   11   14      1.75      0.00
   16   11   14      1.34      0.00
   17   11   14     -0.07      0.00
   18   11   14      0.59      0.00
   19   11   14      0.71      0.00
   20   11   14      0.19      0.00
   21   11   14      5.48      0.00
   -2   12   14     -1.79      0.00
   -1   12   14     -0.76      0.00
    0   12   14     -2.60      0.00
    1   12   14      0.62      0.00
    2   12   14     -1.63      0.00
    3   12   14     -2.72      0.00
    4   12   14      2.14      0.00
    5   12   14     -2.62      0.00
    6   12   14     -3.06      0.00
    7   12   14      3.31      0.00
    8   12   14     -1.29      0.00
    9   12   14      0.80      0.00
   10   12   14     -0.21      0.00
   11   12   14      1.84      0.00
   12   12   14      0.66      0.00
   13   12   14     -1.98      0.00
   14   12   14      1.25      0.00
   15   12   14      0.97      0.00
   16   12   14     -1.89      0.00
   17   12   14      1.96      0.00
   18   12   14      0.77      0.00
   19   12   14      0.17      0.00
   20   12   14      0.01      0.00
   21   12   14      3.86      0.00
   -1   13   14     -0.89      0.00
    0   13   14      1.08      0.00
    1   13   14      1.06      0.00
    2   13   14     -4.91      0.00
    3   13   14     -3.39      0.00
    4   13   14      1.39      0.00
    5   13   14     -1.32      0.00
    6   13   14     -3.18      0.00
    7   13   14      0.67      0.00
    8   13   14     -1.92      0.00
    9   13   14      2.35      0.00
   10   13   14      1.22      0.00
   11   13   14     -2.53      0.00
   12   13   14     -0.27      0.00
   13   13   14     -0.47      0.00
   14   13   14      0.34      0.00
   15   13   14     -2.52      0.00
   16   13   14     -0.43      0.00
   17   13   14     -2.73      0.00
   18   13   14      1.84      0.00
   19   13   14      2.18      0.00
   20   13   14      0.21      0.00
    0   14   14      2.53      0.00
    1   14   14      3.77      0.00
    2   14   14     -4.11      0.00
    3   14   14     -3.57      0.00
    4   14   14     -2.06      0.00
    5   14   14      0.16      0.00
    6   14   14      2.77      0.00
    7   14   14     -5.40      0.00
    8   14   14     -3.79      0.00
    9   14   14      2.95      0.00
   10   14   14     -0.69      0.00
   11   14   14     -1.04      0.00
   12   14   14      0.05      0.00
   13   14   14     -1.29      0.00
   14   14   14     -2.64      0.00
   15   14   14     -0.49      0.00
   16   14   14     -0.59      0.00
   17   14   14     -2.40      0.00
   18   14   14     -2.27      0.00
   19   14   14      2.61      0.00
   20   14   14     -0.35      0.00
    1   15   14      0.56      0.00
    2   15   14     -0.38      0.00
    3   15   14     -0.31      0.00
    4   15   14      0.16      0.00
    5   15   14      1.99      0.00
    6   15   14     -0.45      0.00
    7   15   14     -4.13      0.00
    8   15   14     -3.80      0.00
    9   15   14      2.37      0.00
   10   15   14     -5.19      0.00
   11   15   14      0.96      0.00
   12   15   14      0.95      0.00
   13   15   14     -1.29      0.00
   14   15   14      1.81      0.00
   15   15   14     -5.45      0.00
   16   15   14     -0.80      0.00
   17   15   14      0.13      0.00
   18   15   14     -0.62      0.00
   19   15   14      0.43      0.00
   20   15   14     -1.90      0.00
    3   16   14      1.92      0.00
    4   16   14      3.16      0.00
    5   16   14     -1.00      0.00
    6   16   14      0.42      0.00
    7   16   14     -2.04      0.00
    8   16   14      1.09      0.00
    9   16   14     -2.47      0.00
   10   16   14     -0.79      0.00
   11   16   14     -1.92      0.00
   12   16   14     -4.84      0.00
   13   16   14      1.82      0.00
   14   16   14      4.34      0.00
   15   16   14      1.07      0.00
   16   16   14     -3.45      0.00
   17   16   14     -2.17      0.00
   18   16   14     -0.44      0.00
   19   16   14      2.71      0.00
    5   17   14     -1.47      0.00
    6   17   14      1.97      0.00
    7   17   14      2.15      0.00
    8   17   14     -1.40      0.00
    9   17   14      2.52      0.00
   10   17   14     -2.77      0.00
   11   17   14      0.20      0.00
   12   17   14     -3.17      0.00
   13   17   14     -3.33      0.00
   14   17   14      1.23      0.00
   15   17   14      3.00      0.00
   16   17   14      6.37      0.00
   17   17   14     -2.83      0.00
   18   17   14     -3.68      0.00
    7   18   14     -0.18      0.00
    8   18   14      0.36      0.00
    9   18   14     -3.02      0.00
   10   18   14      2.09      0.00
   11   18   14      1.32      0.00
   12   18   14      0.58      0.00
   13   18   14     -1.85      0.00
   14   18   14     -3.22      0.00
   15   18   14     -1.01      0.00
   16   18   14      2.68      0.00
   17   18   14      7.27      0.00
   10   19   14     -3.01      0.00
   11   19   14      3.70      0.00
   12   19   14      1.62      0.00
   13   19   14     -0.90      0.00
   14   19   14     -1.11      0.00
   15   19   14     -3.55      0.00
   -6  -18   15     -3.62      0.00
   -5  -18   15     -2.71      0.00
   -4  -18   15      0.34      0.00
   -3  -18   15     -2.36      0.00
   -2  -18   15      3.93      0.00
   -1  -18   15      0.14      0.00
   -8  -17   15      0.23      0.00
   -7  -17   15      5.86      0.00
   -6  -17   15     -0.67      0.00
   -5  -17   15     -0.84      0.00
   -4  -17   15     -1.43      0.00
   -3  -17   15     -1.32      0.00
   -2  -17   15     -0.37      0.00
   -1  -17   15      0.72      0.00
    0  -17   15      2.07      0.00
    1  -17   15      4.05      0.00
    2  -17   15     -7.57      0.00
  -10  -16   15     -2.25      0.00
   -9  -16   15     -0.50      0.00
   -8  -16   15     -1.63      0.00
   -7  -16   15      1.43      0.00
   -6  -16   15     -0.27      0.00
   -5  -16   15      4.25      0.00
   -4  -16   15     -0.55      0.00
   -3  -16   15     -0.25      0.00
   -2  -16   15     -0.85      0.00
   -1  -16   15     -2.55      0.00
    0  -16   15      2.69      0.00
    1  -16   15      2.01      0.00
    2  -16   15     -2.04      0.00
    3  -16   15     -6.22      0.00
    4  -16   15      2.61      0.00
  -10  -15   15      0.68      0.00
   -9  -15   15     -0.07      0.00
   -8  -15   15     -1.04      0.00
   -7  -15   15     -1.16      0.00
   -6  -15   15     -3.92      0.00
   -5  -15   15      1.35      0.00
   -4  -15   15      3.68      0.00
   -3  -15   15      1.88      0.00
   -2  -15   15     -2.22      0.00
   -1  -15   15      0.02      0.00
    0  -15   15     -2.14      0.00
    1  -15   15      0.02      0.00
    2  -15   15     -1.34      0.00
    3  -15   15      3.66      0.00
    4  -15   15      0.29      0.00
    5  -15   15     -1.95      0.00
    6  -15   15      1.48      0.00
  -11  -14   15     -1.15      0.00
  -10  -14   15      1.33      0.00
   -9  -14   15      2.05      0.00
   -8  -14   15     -3.87      0.00
   -7  -14   15      1.93      0.00
   -6  -14   15     -4.02      0.00
   -5  -14   15     -1.56      0.00
   -4  -14   15      1.25      0.00
   -3  -14   15      1.34      0.00
   -2  -14   15     -1.74      0.00
   -1  -14   15     -1.22      0.00
    0  -14   15      2.65      0.00
    1  -14   15     -2.88      0.00
    2  -14   15     -1.18      0.00
    3  -14   15      3.11      0.00
    4  -14   15      2.85      0.00
    5  -14   15     -2.86      0.00
    6  -14   15      4.14      0.00
    7  -14   15     -4.21      0.00
  -11  -13   15      0.67      0.00
  -10  -13   15      0.62      0.00
   -9  -13   15      0.86      0.00
   -8  -13   15     -3.54      0.00
   -7  -13   15     -1.14      0.00
   -6  -13   15      0.37      0.00
   -5  -13   15     -1.99      0.00
   -4  -13   15     -1.13      0.00
   -3  -13   15     -0.75      0.00
   -2  -13   15     -0.36      0.00
   -1  -13   15     -2.09      0.00
    0  -13   15      2.91      0.00
    1  -13   15      1.67      0.00
    2  -13   15     -2.31      0.00
    3  -13   15      2.28      0.00
    4  -13   15     -4.65      0.00
    5  -13   15      3.15      0.00
    6  -13   15      3.46      0.00
    7  -13   15     -3.07      0.00
    8  -13   15     -0.64      0.00
    9  -13   15     -1.11      0.00
  -12  -12   15      0.97      0.00
  -11  -12   15      0.12      0.00
  -10  -12   15     -0.07      0.00
   -9  -12   15      1.94      0.00
   -8  -12   15     -3.29      0.00
   -7  -12   15      0.51      0.00
   -6  -12   15     -5.35      0.00
   -5  -12   15     -0.15      0.00
   -4  -12   15     -1.61      0.00
   -3  -12   15     -0.91      0.00
   -2  -12   15      3.00      0.00
   -1  -12   15     -2.84      0.00
    0  -12   15      2.44      0.00
    1  -12   15      0.18      0.00
    2  -12   15      2.29      0.00
    3  -12   15      0.08      0.00
    4  -12   15     -1.92      0.00
    5  -12   15     -0.46      0.00
    6  -12   15      0.47      0.00
    7  -12   15     -3.02      0.00
    8  -12   15      3.95      0.00
    9  -12   15      0.11      0.00
   10  -12   15     -1.60      0.00
  -12  -11   15      0.94      0.00
  -11  -11   15     -2.13      0.00
  -10  -11   15     -2.73      0.00
   -9  -11   15      2.05      0.00
   -8  -11   15      0.99      0.00
   -7  -11   15     -0.07      0.00
   -6  -11   15     -3.97      0.00
   -5  -11   15     -5.41      0.00
   -4  -11   15      1.71      0.00
   -3  -11   15     -0.13      0.00
   -2  -11   15      0.23      0.00
   -1  -11   15     -1.76      0.00
    0  -11   15      7.21      0.00
    1  -11   15     -3.72      0.00
    2  -11   15      0.85      0.00
    3  -11   15      5.53      0.00
    4  -11   15     -4.60      0.00
    5  -11   15      4.70      0.00
    6  -11   15     -2.69      0.00
    7  -11   15     -1.79      0.00
    8  -11   15      1.94      0.00
    9  -11   15      0.61      0.00
   10  -11   15      0.39      0.00
   11  -11   15     -2.84      0.00
  -12  -10   15      3.31      0.00
  -11  -10   15     -1.97      0.00
  -10  -10   15     -4.33      0.00
   -9  -10   15      0.16      0.00
   -8  -10   15     -1.76      0.00
   -7  -10   15      3.87      0.00
   -6  -10   15     -3.80      0.00
   -5  -10   15     -1.00      0.00
   -4  -10   15     -1.13      0.00
   -3  -10   15     -1.62      0.00
   -2  -10   15      1.29      0.00
   -1  -10   15     -2.44      0.00
    0  -10   15      4.36      0.00
    1  -10   15     -1.01      0.00
    2  -10   15      3.06      0.00
    3  -10   15      1.52      0.00
    4  -10   15     -0.09      0.00
    5  -10   15      4.65      0.00
    6  -10   15     -1.44      0.00
    7  -10   15      1.11      0.00
    8  -10   15      1.62      0.00
    9  -10   15     -4.82      0.00
   10  -10   15      1.77      0.00
   11  -10   15      2.50      0.00
   12  -10   15     -0.73      0.00
  -12   -9   15     -0.72      0.00
  -11   -9   15      1.39      0.00
  -10   -9   15     -2.39      0.00
   -9   -9   15     -0.58      0.00
   -8   -9   15     -1.61      0.00
   -7   -9   15     -1.94      0.00
   -6   -9   15     -0.74      0.00
   -5   -9   15      1.28      0.00
   -4   -9   15      3.09      0.00
   -3   -9   15     -6.99      0.00
   -2   -9   15      0.48      0.00
   -1   -9   15      1.19      0.00
    0   -9   15     -0.56      0.00
    1   -9   15     -2.74      0.00
    2   -9   15      6.85      0.00
    3   -9   15      2.29      0.00
    4   -9   15     -1.87      0.00
    5   -9   15      5.93      0.00
    6   -9   15     -1.45      0.00
    7   -9   15      1.03      0.00
    8   -9   15     -1.26      0.00
    9   -9   15      1.66      0.00
   10   -9   15      0.94      0.00
   11   -9   15      2.35      0.00
   12   -9   15      1.26      0.00
   13   -9   15     -0.68      0.00
  -12   -8   15     -1.58      0.00
  -11   -8   15     -2.02      0.00
  -10   -8   15      0.21      0.00
   -9   -8   15     -1.02      0.00
   -8   -8   15      0.88      0.00
   -7   -8   15     -0.31      0.00
   -6   -8   15     -6.53      0.00
   -5   -8   15      4.73      0.00
   -4   -8   15      2.71      0.00
   -3   -8   15     -4.66      0.00
   -2   -8   15     -0.52      0.00
   -1   -8   15     -3.91      0.00
    0   -8   15      4.59      0.00
    1   -8   15     -0.71      0.00
    2   -8   15      2.39      0.00
    3   -8   15      0.05      0.00
    4   -8   15      0.46      0.00
    5   -8   15      2.49      0.00
    6   -8   15     -1.46      0.00
    7   -8   15      4.33      0.00
    8   -8   15      0.50      0.00
    9   -8   15     -2.73      0.00
   10   -8   15      5.07      0.00
   11   -8   15     -0.90      0.00
   12   -8   15     -0.10      0.00
   13   -8   15      4.69      0.00
   14   -8   15      2.36      0.00
  -12   -7   15      2.64      0.00
  -11   -7   15      0.79      0.00
  -10   -7   15     -2.91      0.00
   -9   -7   15     -0.10      0.00
   -8   -7   15     -1.32      0.00
   -7   -7   15      1.03      0.00
   -6   -7   15      0.97      0.00
   -5   -7   15     -1.06      0.00
   -4   -7   15      2.69      0.00
   -3   -7   15     -4.57      0.00
   -2   -7   15      0.57      0.00
   -1   -7   15     -1.86      0.00
    0   -7   15      3.20      0.00
    1   -7   15      1.20      0.00
    2   -7   15      0.72      0.00
    3   -7   15      0.23      0.00
    4   -7   15     -3.78      0.00
    5   -7   15      4.27      0.00
    6   -7   15     -1.26      0.00
    7   -7   15      2.25      0.00
    8   -7   15      5.23      0.00
    9   -7   15     -0.20      0.00
   10   -7   15     -3.99      0.00
   11   -7   15      0.91      0.00
   12   -7   15      1.26      0.00
   13   -7   15      3.03      0.00
   14   -7   15      3.73      0.00
  -12   -6   15     -0.01      0.00
  -11   -6   15      1.75      0.00
  -10   -6   15     -0.29      0.00
   -9   -6   15      1.86      0.00
   -8   -6   15     -1.49      0.00
   -7   -6   15     -0.27      0.00
   -6   -6   15      0.29      0.00
   -5   -6   15      2.97      0.00
   -4   -6   15      0.83      0.00
   -3   -6   15     -2.92      0.00
   -2   -6   15     -0.52      0.00
   -1   -6   15      0.75      0.00
    0   -6   15      4.27      0.00
    1   -6   15     -3.53      0.00
    2   -6   15      1.92      0.00
    3   -6   15     -1.77      0.00
    4   -6   15      4.20      0.00
    5   -6   15     -2.19      0.00
    6   -6   15      2.76      0.00
    7   -6   15      3.62      0.00
    8   -6   15     -2.91      0.00
    9   -6   15      3.63      0.00
   10   -6   15      1.12      0.00
   11   -6   15     -5.32      0.00
   12   -6   15      3.72      0.00
   13   -6   15      1.12      0.00
   14   -6   15      2.26      0.00
   15   -6   15      1.91      0.00
  -12   -5   15      0.78      0.00
  -11   -5   15     -3.95      0.00
  -10   -5   15      0.83      0.00
   -9   -5   15      2.67      0.00
   -8   -5   15      1.62      0.00
   -7   -5   15      1.36      0.00
   -6   -5   15     -2.39      0.00
   -5   -5   15     -0.92      0.00
   -4   -5   15      5.37      0.00
   -3   -5   15     -1.62      0.00
   -2   -5   15      2.33      0.00
   -1   -5   15     -1.24      0.00
    0   -5   15      2.53      0.00
    1   -5   15     -4.61      0.00
    2   -5   15      1.51      0.00
    3   -5   15      1.71      0.00
    4   -5   15     -3.41      0.00
    5   -5   15      4.10      0.00
    6   -5   15      5.82      0.00
    7   -5   15      0.90      0.00
    8   -5   15     -1.67      0.00
    9   -5   15      2.96      0.00
   10   -5   15     -0.41      0.00
   11   -5   15     -1.77      0.00
   12   -5   15     -3.34      0.00
   13   -5   15      7.62      0.00
   14   -5   15      0.72      0.00
   15   -5   15     -2.49      0.00
   16   -5   15      5.49      0.00
  -11   -4   15      0.86      0.00
  -10   -4   15     -1.12      0.00
   -9   -4   15      1.05      0.00
   -8   -4   15      0.00      0.00
   -7   -4   15      1.93      0.00
   -6   -4   15     -0.26      0.00
   -5   -4   15      1.27      0.00
   -4   -4   15     -1.23      0.00
   -3   -4   15     -1.45      0.00
   -2   -4   15      7.12      0.00
   -1   -4   15      3.11      0.00
    0   -4   15     -4.36      0.00
    1   -4   15     -4.07      0.00
    2   -4   15      2.15      0.00
    3   -4   15     -0.33      0.00
    4   -4   15     -2.01      0.00
    5   -4   15     -3.72      0.00
    6   -4   15     14.99      0.00
    7   -4   15     -1.62      0.00
    8   -4   15     -3.93      0.00
    9   -4   15      6.56      0.00
   10   -4   15     -0.16      0.00
   11   -4   15     -4.26      0.00
   12   -4   15      0.72      0.00
   13   -4   15      1.70      0.00
   14   -4   15      2.28      0.00
   15   -4   15     -1.22      0.00
   16   -4   15      3.61      0.00
  -11   -3   15      1.40      0.00
  -10   -3   15      2.41      0.00
   -9   -3   15      1.33      0.00
   -8   -3   15     -0.67      0.00
   -7   -3   15     -1.93      0.00
   -6   -3   15      3.01      0.00
   -5   -3   15      1.76      0.00
   -4   -3   15     -1.61      0.00
   -3   -3   15     -3.26      0.00
   -2   -3   15      6.94      0.00
   -1   -3   15      1.63      0.00
    0   -3   15      0.90      0.00
    1   -3   15     -6.92      0.00
    2   -3   15      3.41      0.00
    3   -3   15     -3.93      0.00
    4   -3   15     -3.27      0.00
    5   -3   15      2.43      0.00
    6   -3   15      6.02      0.00
    7   -3   15      2.01      0.00
    8   -3   15     -4.97      0.00
    9   -3   15      2.31      0.00
   10   -3   15      1.08      0.00
   11   -3   15      2.78      0.00
   12   -3   15      0.35      0.00
   13   -3   15      0.81      0.00
   14   -3   15     -4.96      0.00
   15   -3   15      1.43      0.00
   16   -3   15      2.20      0.00
   17   -3   15      0.77      0.00
  -11   -2   15     -0.11      0.00
  -10   -2   15      0.87      0.00
   -9   -2   15      2.22      0.00
   -8   -2   15     -0.13      0.00
   -7   -2   15      1.59      0.00
   -6   -2   15      0.26      0.00
   -5   -2   15      0.91      0.00
   -4   -2   15     -2.93      0.00
   -3   -2   15      2.65      0.00
   -2   -2   15      7.43      0.00
   -1   -2   15     -5.94      0.00
    0   -2   15      0.49      0.00
    1   -2   15      3.51      0.00
    2   -2   15     -4.56      0.00
    3   -2   15     -3.80      0.00
    4   -2   15      0.08      0.00
    5   -2   15      0.46      0.00
    6   -2   15      5.30      0.00
    7   -2   15     -2.33      0.00
    8   -2   15     -0.29      0.00
    9   -2   15      0.62      0.00
   10   -2   15     -2.91      0.00
   11   -2   15      5.33      0.00
   12   -2   15      5.10      0.00
   13   -2   15     -4.05      0.00
   14   -2   15     -2.15      0.00
   15   -2   15     -3.82      0.00
   16   -2   15      3.65      0.00
   17   -2   15     -0.89      0.00
   18   -2   15      0.99      0.00
  -10   -1   15      0.24      0.00
   -9   -1   15     -1.85      0.00
   -8   -1   15      0.11      0.00
   -7   -1   15      2.67      0.00
   -6   -1   15      2.14      0.00
   -5   -1   15     -2.82      0.00
   -4   -1   15     -1.10      0.00
   -3   -1   15      2.76      0.00
   -2   -1   15      5.89      0.00
   -1   -1   15     -1.64      0.00
    0   -1   15     -0.56      0.00
    1   -1   15      0.36      0.00
    2   -1   15      0.77      0.00
    3   -1   15     -9.90      0.00
    4   -1   15      7.51      0.00
    5   -1   15      1.51      0.00
    6   -1   15     -4.87      0.00
    7   -1   15      1.74      0.00
    8   -1   15     -1.52      0.00
    9   -1   15      0.90      0.00
   10   -1   15      0.54      0.00
   11   -1   15      3.81      0.00
   12   -1   15      1.80      0.00
   13   -1   15     -0.17      0.00
   14   -1   15     -5.86      0.00
   15   -1   15      0.29      0.00
   16   -1   15      1.12      0.00
   17   -1   15     -3.28      0.00
   18   -1   15      1.85      0.00
  -10    0   15     -0.70      0.00
   -9    0   15     -0.17      0.00
   -8    0   15     -1.54      0.00
   -7    0   15      1.44      0.00
   -6    0   15     -0.58      0.00
   -5    0   15     -0.44      0.00
   -4    0   15      0.49      0.00
   -3    0   15      2.32      0.00
   -2    0   15     -1.05      0.00
   -1    0   15     -2.31      0.00
    0    0   15      7.03      0.00
    1    0   15     -2.02      0.00
    2    0   15     -3.31      0.00
    3    0   15      3.34      0.00
    4    0   15     -0.11      0.00
    5    0   15      1.41      0.00
    6    0   15     -2.67      0.00
    7    0   15     -2.16      0.00
    8    0   15     -2.97      0.00
    9    0   15      1.01      0.00
   10    0   15      4.13      0.00
   11    0   15      4.12      0.00
   12    0   15     -0.87      0.00
   13    0   15     -2.04      0.00
   14    0   15     -0.37      0.00
   15    0   15     -0.16      0.00
   16    0   15     -1.45      0.00
   17    0   15     -4.56      0.00
   18    0   15      3.45      0.00
   -9    1   15      0.26      0.00
   -8    1   15      0.67      0.00
   -7    1   15      0.03      0.00
   -6    1   15     -1.84      0.00
   -5    1   15     -0.45      0.00
   -4    1   15      4.56      0.00
   -3    1   15     -1.90      0.00
   -2    1   15     -1.40      0.00
   -1    1   15     -3.30      0.00
    0    1   15      0.54      0.00
    1    1   15      2.64      0.00
    2    1   15      1.00      0.00
    3    1   15      1.40      0.00
    4    1   15      3.73      0.00
    5    1   15     -5.65      0.00
    6    1   15      0.10      0.00
    7    1   15     -1.74      0.00
    8    1   15     -2.47      0.00
    9    1   15      3.16      0.00
   10    1   15      2.00      0.00
   11    1   15     -0.18      0.00
   12    1   15      0.39      0.00
   13    1   15      0.76      0.00
   14    1   15     -2.01      0.00
   15    1   15      1.51      0.00
   16    1   15     -1.65      0.00
   17    1   15     -3.87      0.00
   18    1   15      1.02      0.00
   19    1   15     -1.29      0.00
   -9    2   15     -1.02      0.00
   -8    2   15     -0.78      0.00
   -7    2   15     -0.57      0.00
   -6    2   15      0.03      0.00
   -5    2   15      4.02      0.00
   -4    2   15      0.33      0.00
   -3    2   15     -2.78      0.00
   -2    2   15     -0.66      0.00
   -1    2   15      2.21      0.00
    0    2   15     -3.18      0.00
    1    2   15     -2.69      0.00
    2    2   15      7.83      0.00
    3    2   15     -0.72      0.00
    4    2   15     -3.53      0.00
    5    2   15      6.14      0.00
    6    2   15     -7.71      0.00
    7    2   15     -3.40      0.00
    8    2   15      3.68      0.00
    9    2   15      4.87      0.00
   10    2   15     -0.87      0.00
   11    2   15     -2.68      0.00
   12    2   15     -0.10      0.00
   13    2   15      3.09      0.00
   14    2   15     -0.65      0.00
   15    2   15     -2.51      0.00
   16    2   15      1.01      0.00
   17    2   15     -2.45      0.00
   18    2   15     -0.49      0.00
   19    2   15     -2.39      0.00
   -8    3   15     -2.93      0.00
   -7    3   15     -3.31      0.00
   -6    3   15      2.60      0.00
   -5    3   15      3.13      0.00
   -4    3   15      0.70      0.00
   -3    3   15     -2.48      0.00
   -2    3   15      1.50      0.00
   -1    3   15     -0.20      0.00
    0    3   15      0.49      0.00
    1    3   15      0.42      0.00
    2    3   15      2.59      0.00
    3    3   15      0.81      0.00
    4    3   15     -1.92      0.00
    5    3   15      1.55      0.00
    6    3   15     -1.46      0.00
    7    3   15     -6.44      0.00
    8    3   15      4.24      0.00
    9    3   15      3.02      0.00
   10    3   15     -1.39      0.00
   11    3   15     -0.46      0.00
   12    3   15      0.72      0.00
   13    3   15     -0.59      0.00
   14    3   15      2.15      0.00
   15    3   15      1.11      0.00
   16    3   15     -2.31      0.00
   17    3   15     -0.38      0.00
   18    3   15     -1.37      0.00
   19    3   15     -3.22      0.00
   20    3   15     -2.69      0.00
   -8    4   15     -1.35      0.00
   -7    4   15      0.33      0.00
   -6    4   15      1.22      0.00
   -5    4   15     -0.67      0.00
   -4    4   15      1.01      0.00
   -3    4   15      0.34      0.00
   -2    4   15      0.90      0.00
   -1    4   15     -2.63      0.00
    0    4   15     -1.36      0.00
    1    4   15      5.56      0.00
    2    4   15      3.63      0.00
    3    4   15     -0.20      0.00
    4    4   15      0.10      0.00
    5    4   15      0.90      0.00
    6    4   15     -4.75      0.00
    7    4   15      1.08      0.00
    8    4   15      4.70      0.00
    9    4   15     -0.94      0.00
   10    4   15     -5.19      0.00
   11    4   15      3.04      0.00
   12    4   15     -2.58      0.00
   13    4   15     -0.21      0.00
   14    4   15      5.47      0.00
   15    4   15      1.14      0.00
   16    4   15      0.10      0.00
   17    4   15     -0.42      0.00
   18    4   15      1.60      0.00
   19    4   15     -6.76      0.00
   20    4   15     -4.21      0.00
   -7    5   15      2.64      0.00
   -6    5   15      2.40      0.00
   -5    5   15      0.14      0.00
   -4    5   15     -0.46      0.00
   -3    5   15      0.34      0.00
   -2    5   15     -0.39      0.00
   -1    5   15     -2.42      0.00
    0    5   15      0.64      0.00
    1    5   15     -0.28      0.00
    2    5   15      3.72      0.00
    3    5   15      3.56      0.00
    4    5   15     -0.70      0.00
    5    5   15     -0.52      0.00
    6    5   15     -2.32      0.00
    7    5   15      1.93      0.00
    8    5   15      7.90      0.00
    9    5   15     -4.65      0.00
   10    5   15     -2.29      0.00
   11    5   15      0.87      0.00
   12    5   15     -5.57      0.00
   13    5   15      0.47      0.00
   14    5   15      4.63      0.00
   15    5   15      3.19      0.00
   16    5   15      0.94      0.00
   17    5   15      0.49      0.00
   18    5   15      1.40      0.00
   19    5   15     -3.37      0.00
   20    5   15     -4.43      0.00
   -7    6   15      1.78      0.00
   -6    6   15      0.20      0.00
   -5    6   15      1.30      0.00
   -4    6   15      0.85      0.00
   -3    6   15     -0.31      0.00
   -2    6   15      0.34      0.00
   -1    6   15     -1.42      0.00
    0    6   15      3.73      0.00
    1    6   15     -3.72      0.00
    2    6   15     -2.32      0.00
    3    6   15      5.62      0.00
    4    6   15     -2.34      0.00
    5    6   15     -1.12      0.00
    6    6   15      2.56      0.00
    7    6   15      2.77      0.00
    8    6   15     -0.20      0.00
    9    6   15     -0.58      0.00
   10    6   15      0.24      0.00
   11    6   15     -1.10      0.00
   12    6   15     -3.69      0.00
   13    6   15      1.13      0.00
   14    6   15     -0.01      0.00
   15    6   15      2.56      0.00
   16    6   15      1.94      0.00
   17    6   15      0.68      0.00
   18    6   15      0.71      0.00
   19    6   15     -3.44      0.00
   20    6   15      2.15      0.00
   -6    7   15      1.86      0.00
   -5    7   15     -3.11      0.00
   -4    7   15     -0.71      0.00
   -3    7   15      1.15      0.00
   -2    7   15      0.63      0.00
   -1    7   15      1.54      0.00
    0    7   15      1.38      0.00
    1    7   15     -1.86      0.00
    2    7   15      0.83      0.00
    3    7   15     -0.19      0.00
    4    7   15     -5.18      0.00
    5    7   15      0.60      0.00
    6    7   15      7.67      0.00
    7    7   15     -2.28      0.00
    8    7   15     -2.40      0.00
    9    7   15      0.96      0.00
   10    7   15     -1.17      0.00
   11    7   15     -2.07      0.00
   12    7   15      1.87      0.00
   13    7   15     -0.59      0.00
   14    7   15     -1.68      0.00
   15    7   15      1.62      0.00
   16    7   15     -2.08      0.00
   17    7   15      1.22      0.00
   18    7   15      1.06      0.00
   19    7   15     -0.54      0.00
   20    7   15      0.82      0.00
   -5    8   15      1.28      0.00
   -4    8   15     -4.75      0.00
   -3    8   15     -1.62      0.00
   -2    8   15      3.53      0.00
   -1    8   15     -0.27      0.00
    0    8   15     -0.48      0.00
    1    8   15      0.53      0.00
    2    8   15      3.53      0.00
    3    8   15     -1.49      0.00
    4    8   15     -5.62      0.00
    5    8   15      5.26      0.00
    6    8   15      2.56      0.00
    7    8   15     -2.96      0.00
    8    8   15      0.39      0.00
    9    8   15      1.24      0.00
   10    8   15     -6.10      0.00
   11    8   15     -1.21      0.00
   12    8   15      4.26      0.00
   13    8   15      0.12      0.00
   14    8   15     -4.86      0.00
   15    8   15     -1.25      0.00
   16    8   15      0.31      0.00
   17    8   15     -1.89      0.00
   18    8   15      0.71      0.00
   19    8   15      1.02      0.00
   20    8   15      1.47      0.00
   21    8   15      0.39      0.00
   -4    9   15     -0.08      0.00
   -3    9   15     -2.20      0.00
   -2    9   15      1.66      0.00
   -1    9   15      0.57      0.00
    0    9   15     -1.34      0.00
    1    9   15      1.44      0.00
    2    9   15      1.31      0.00
    3    9   15     -0.13      0.00
    4    9   15     -1.42      0.00
    5    9   15      3.54      0.00
    6    9   15      4.13      0.00
    7    9   15     -5.27      0.00
    8    9   15      2.43      0.00
    9    9   15      1.35      0.00
   10    9   15     -4.00      0.00
   11    9   15     -2.08      0.00
   12    9   15      0.93      0.00
   13    9   15     -0.84      0.00
   14    9   15     -3.13      0.00
   15    9   15     -1.53      0.00
   16    9   15     -2.81      0.00
   17    9   15      1.06      0.00
   18    9   15     -0.70      0.00
   19    9   15     -0.64      0.00
   20    9   15      0.26      0.00
   21    9   15      2.38      0.00
   -3   10   15      0.76      0.00
   -2   10   15      0.01      0.00
   -1   10   15      1.27      0.00
    0   10   15      1.05      0.00
    1   10   15      2.77      0.00
    2   10   15     -2.39      0.00
    3   10   15      2.63      0.00
    4   10   15      1.48      0.00
    5   10   15      1.23      0.00
    6   10   15      1.17      0.00
    7   10   15      2.20      0.00
    8   10   15     -1.84      0.00
    9   10   15      0.98      0.00
   10   10   15     -0.56      0.00
   11   10   15      0.51      0.00
   12   10   15     -1.84      0.00
   13   10   15     -4.83      0.00
   14   10   15     -0.45      0.00
   15   10   15     -0.28      0.00
   16   10   15     -3.38      0.00
   17   10   15      0.53      0.00
   18   10   15     -0.50      0.00
   19   10   15     -1.24      0.00
   20   10   15      1.77      0.00
   21   10   15     -2.03      0.00
   -2   11   15      0.81      0.00
   -1   11   15     -0.88      0.00
    0   11   15      4.23      0.00
    1   11   15      4.12      0.00
    2   11   15     -1.93      0.00
    3   11   15      2.93      0.00
    4   11   15      4.89      0.00
    5   11   15      1.33      0.00
    6   11   15      0.30      0.00
    7   11   15      0.29      0.00
    8   11   15      3.22      0.00
    9   11   15     -3.51      0.00
   10   11   15      0.19      0.00
   11   11   15      1.35      0.00
   12   11   15     -3.13      0.00
   13   11   15      0.32      0.00
   14   11   15     -0.23      0.00
   15   11   15     -2.18      0.00
   16   11   15     -1.84      0.00
   17   11   15      0.04      0.00
   18   11   15     -1.30      0.00
   19   11   15     -0.09      0.00
   20   11   15      1.21      0.00
   -1   12   15     -0.48      0.00
    0   12   15      1.29      0.00
    1   12   15      3.97      0.00
    2   12   15     -1.82      0.00
    3   12   15     11.19      0.00
    4   12   15     -0.51      0.00
    5   12   15      1.88      0.00
    6   12   15      5.01      0.00
    7   12   15      3.15      0.00
    8   12   15     -2.80      0.00
    9   12   15      0.24      0.00
   10   12   15     -1.31      0.00
   11   12   15     -0.68      0.00
   12   12   15     -2.74      0.00
   13   12   15      2.47      0.00
   14   12   15      0.73      0.00
   15   12   15     -0.31      0.00
   16   12   15      0.76      0.00
   17   12   15      0.34      0.00
   18   12   15     -3.40      0.00
   19   12   15     -0.24      0.00
   20   12   15      0.37      0.00
    0   13   15     -0.72      0.00
    1   13   15     -3.72      0.00
    2   13   15      2.01      0.00
    3   13   15      8.84      0.00
    4   13   15      3.29      0.00
    5   13   15      0.56      0.00
    6   13   15      7.35      0.00
    7   13   15      0.98      0.00
    8   13   15      3.79      0.00
    9   13   15     -1.69      0.00
   10   13   15     -2.44      0.00
   11   13   15     -1.11      0.00
   12   13   15     -0.39      0.00
   13   13   15      2.17      0.00
   14   13   15     -3.17      0.00
   15   13   15      2.98      0.00
   16   13   15      1.58      0.00
   17   13   15      2.60      0.00
   18   13   15      0.59      0.00
   19   13   15     -4.80      0.00
   20   13   15     -0.11      0.00
    1   14   15     -3.13      0.00
    2   14   15     -3.53      0.00
    3   14   15      6.35      0.00
    4   14   15      0.94      0.00
    5   14   15      9.21      0.00
    6   14   15     -1.95      0.00
    7   14   15      2.70      0.00
    8   14   15      6.08      0.00
    9   14   15      1.63      0.00
   10   14   15     -2.30      0.00
   11   14   15      0.60      0.00
   12   14   15     -2.16      0.00
   13   14   15      1.25      0.00
   14   14   15     -1.47      0.00
   15   14   15      3.61      0.00
   16   14   15     -1.23      0.00
   17   14   15      0.75      0.00
   18   14   15      3.44      0.00
   19   14   15     -1.08      0.00
   20   14   15     -2.25      0.00
    2   15   15     -2.16      0.00
    3   15   15      1.69      0.00
    4   15   15      0.97      0.00
    5   15   15      0.64      0.00
    6   15   15      2.08      0.00
    7   15   15     -1.26      0.00
    8   15   15      9.65      0.00
    9   15   15     -1.82      0.00
   10   15   15      2.62      0.00
   11   15   15      3.26      0.00
   12   15   15     -2.41      0.00
   13   15   15      0.62      0.00
   14   15   15     -3.32      0.00
   15   15   15      3.45      0.00
   16   15   15      0.96      0.00
   17   15   15     -1.00      0.00
   18   15   15      1.94      0.00
   19   15   15     -1.43      0.00
    4   16   15     -4.14      0.00
    5   16   15      0.51      0.00
    6   16   15     -0.03      0.00
    7   16   15      4.29      0.00
    8   16   15     -0.05      0.00
    9   16   15      0.70      0.00
   10   16   15      2.43      0.00
   11   16   15      1.39      0.00
   12   16   15      0.77      0.00
   13   16   15      5.74      0.00
   14   16   15     -3.21      0.00
   15   16   15     -2.01      0.00
   16   16   15     -1.32      0.00
   17   16   15      2.83      0.00
   18   16   15      2.22      0.00
    6   17   15      2.53      0.00
    7   17   15     -1.22      0.00
    8   17   15      3.99      0.00
    9   17   15     -3.89      0.00
   10   17   15      2.15      0.00
   11   17   15     -0.71      0.00
   12   17   15      0.31      0.00
   13   17   15      4.70      0.00
   14   17   15      1.65      0.00
   15   17   15      2.17      0.00
   16   17   15     -3.87      0.00
   17   17   15     -4.63      0.00
   18   17   15      5.62      0.00
    8   18   15      0.67      0.00
    9   18   15      2.91      0.00
   10   18   15      1.04      0.00
   11   18   15     -1.55      0.00
   12   18   15     -2.69      0.00
   13   18   15      0.71      0.00
   14   18   15      1.07      0.00
   15   18   15      4.86      0.00
   16   18   15      1.05      0.00
   -7  -17   16     -3.29      0.00
   -6  -17   16     -2.49      0.00
   -5  -17   16     -1.97      0.00
   -4  -17   16      0.79      0.00
   -3  -17   16     -1.43      0.00
   -2  -17   16      1.80      0.00
   -1  -17   16      1.03      0.00
    0  -17   16     -0.96      0.00
    1  -17   16     -7.54      0.00
   -8  -16   16      1.96      0.00
   -7  -16   16      0.55      0.00
   -6  -16   16      2.94      0.00
   -5  -16   16     -2.27      0.00
   -4  -16   16     -5.72      0.00
   -3  -16   16     -0.83      0.00
   -2  -16   16     -0.72      0.00
   -1  -16   16      1.97      0.00
    0  -16   16      0.35      0.00
    1  -16   16     -2.84      0.00
    2  -16   16     -1.84      0.00
    3  -16   16      1.77      0.00
   -9  -15   16     -1.38      0.00
   -8  -15   16      2.00      0.00
   -7  -15   16     -0.44      0.00
   -6  -15   16      4.20      0.00
   -5  -15   16      3.26      0.00
   -4  -15   16     -1.21      0.00
   -3  -15   16     -6.72      0.00
   -2  -15   16      0.24      0.00
   -1  -15   16     -2.40      0.00
    0  -15   16      2.32      0.00
    1  -15   16     -0.27      0.00
    2  -15   16      4.17      0.00
    3  -15   16     -3.12      0.00
    4  -15   16     -2.14      0.00
    5  -15   16      0.18      0.00
  -10  -14   16      1.96      0.00
   -9  -14   16     -3.43      0.00
   -8  -14   16      3.28      0.00
   -7  -14   16     -0.33      0.00
   -6  -14   16      1.04      0.00
   -5  -14   16      4.39      0.00
   -4  -14   16      1.45      0.00
   -3  -14   16     -2.48      0.00
   -2  -14   16     -0.85      0.00
   -1  -14   16      1.38      0.00
    0  -14   16     -2.89      0.00
    1  -14   16     -0.19      0.00
    2  -14   16      5.76      0.00
    3  -14   16     -1.79      0.00
    4  -14   16     -2.29      0.00
    5  -14   16     -0.17      0.00
    6  -14   16     -3.16      0.00
    7  -14   16      0.54      0.00
  -10  -13   16      1.59      0.00
   -9  -13   16     -1.43      0.00
   -8  -13   16      0.73      0.00
   -7  -13   16      2.85      0.00
   -6  -13   16      1.58      0.00
   -5  -13   16      1.37      0.00
   -4  -13   16      1.39      0.00
   -3  -13   16     -0.53      0.00
   -2  -13   16      3.68      0.00
   -1  -13   16     -2.24      0.00
    0  -13   16      2.67      0.00
    1  -13   16     -4.55      0.00
    2  -13   16      2.37      0.00
    3  -13   16     -3.72      0.00
    4  -13   16      4.58      0.00
    5  -13   16      3.50      0.00
    6  -13   16     -7.61      0.00
    7  -13   16      0.09      0.00
    8  -13   16      0.82      0.00
  -11  -12   16     -0.57      0.00
  -10  -12   16      2.31      0.00
   -9  -12   16     -3.06      0.00
   -8  -12   16      1.83      0.00
   -7  -12   16     -0.19      0.00
   -6  -12   16      2.83      0.00
   -5  -12   16      3.48      0.00
   -4  -12   16      0.25      0.00
   -3  -12   16      3.66      0.00
   -2  -12   16     -1.48      0.00
   -1  -12   16     -1.55      0.00
    0  -12   16      3.13      0.00
    1  -12   16     -1.50      0.00
    2  -12   16     -2.29      0.00
    3  -12   16     -2.01      0.00
    4  -12   16      2.42      0.00
    5  -12   16      0.01      0.00
    6  -12   16     -1.65      0.00
    7  -12   16      2.51      0.00
    8  -12   16     -2.83      0.00
    9  -12   16     -3.07      0.00
  -11  -11   16      0.35      0.00
  -10  -11   16      2.71      0.00
   -9  -11   16      1.10      0.00
   -8  -11   16     -1.08      0.00
   -7  -11   16     -2.80      0.00
   -6  -11   16      1.72      0.00
   -5  -11   16      5.15      0.00
   -4  -11   16      1.83      0.00
   -3  -11   16     -0.34      0.00
   -2  -11   16      0.10      0.00
   -1  -11   16      2.40      0.00
    0  -11   16     -0.65      0.00
    1  -11   16     -5.37      0.00
    2  -11   16      6.76      0.00
    3  -11   16     -6.77      0.00
    4  -11   16      1.34      0.00
    5  -11   16     -1.70      0.00
    6  -11   16     -3.68      0.00
    7  -11   16      3.57      0.00
    8  -11   16     -2.81      0.00
    9  -11   16     -2.64      0.00
   10  -11   16     -0.84      0.00
  -11  -10   16     -2.24      0.00
  -10  -10   16      5.32      0.00
   -9  -10   16      1.44      0.00
   -8  -10   16      0.47      0.00
   -7  -10   16     -1.03      0.00
   -6  -10   16      0.38      0.00
   -5  -10   16      1.62      0.00
   -4  -10   16     -0.77      0.00
   -3  -10   16      1.64      0.00
   -2  -10   16      1.18      0.00
   -1  -10   16      1.79      0.00
    0  -10   16      0.04      0.00
    1  -10   16     -1.50      0.00
    2  -10   16      1.13      0.00
    3  -10   16     -3.49      0.00
    4  -10   16      2.65      0.00
    5  -10   16     -3.85      0.00
    6  -10   16     -3.01      0.00
    7  -10   16      0.93      0.00
    8  -10   16     -6.25      0.00
    9  -10   16     -2.26      0.00
   10  -10   16      3.40      0.00
   11  -10   16     -1.28      0.00
  -11   -9   16     -1.24      0.00
  -10   -9   16      3.00      0.00
   -9   -9   16     -0.29      0.00
   -8   -9   16      0.77      0.00
   -7   -9   16      2.77      0.00
   -6   -9   16      2.01      0.00
   -5   -9   16     -0.91      0.00
   -4   -9   16     -5.03      0.00
   -3   -9   16      2.40      0.00
   -2   -9   16      3.97      0.00
   -1   -9   16     -0.53      0.00
    0   -9   16     -0.70      0.00
    1   -9   16      2.38      0.00
    2   -9   16      1.61      0.00
    3   -9   16     -5.52      0.00
    4   -9   16      4.91      0.00
    5   -9   16     -4.75      0.00
    6   -9   16     -0.79      0.00
    7   -9   16     -1.67      0.00
    8   -9   16     -1.53      0.00
    9   -9   16     -1.95      0.00
   10   -9   16     -2.57      0.00
   11   -9   16     -1.94      0.00
   12   -9   16     -1.40      0.00
  -11   -8   16      2.92      0.00
  -10   -8   16     -0.30      0.00
   -9   -8   16      0.03      0.00
   -8   -8   16      2.33      0.00
   -7   -8   16     -2.67      0.00
   -6   -8   16      4.53      0.00
   -5   -8   16      1.60      0.00
   -4   -8   16     -6.14      0.00
   -3   -8   16      1.17      0.00
   -2   -8   16      0.49      0.00
   -1   -8   16      3.49      0.00
    0   -8   16      0.42      0.00
    1   -8   16     -2.06      0.00
    2   -8   16      1.76      0.00
    3   -8   16     -2.30      0.00
    4   -8   16      4.30      0.00
    5   -8   16     -4.66      0.00
    6   -8   16      3.82      0.00
    7   -8   16     -1.70      0.00
    8   -8   16     -3.83      0.00
    9   -8   16      3.63      0.00
   10   -8   16     -5.71      0.00
   11   -8   16     -5.34      0.00
   12   -8   16      2.74      0.00
   13   -8   16     -0.80      0.00
  -11   -7   16     -3.08      0.00
  -10   -7   16      0.67      0.00
   -9   -7   16      0.16      0.00
   -8   -7   16      1.49      0.00
   -7   -7   16      0.10      0.00
   -6   -7   16     -0.61      0.00
   -5   -7   16      0.11      0.00
   -4   -7   16     -2.48      0.00
   -3   -7   16      0.48      0.00
   -2   -7   16      1.29      0.00
   -1   -7   16      0.87      0.00
    0   -7   16      0.26      0.00
    1   -7   16     -1.54      0.00
    2   -7   16      1.52      0.00
    3   -7   16     -3.71      0.00
    4   -7   16      5.01      0.00
    5   -7   16     -1.15      0.00
    6   -7   16      1.88      0.00
    7   -7   16     -0.58      0.00
    8   -7   16      0.73      0.00
    9   -7   16     -6.10      0.00
   10   -7   16      0.17      0.00
   11   -7   16      1.50      0.00
   12   -7   16     -1.77      0.00
   13   -7   16     -1.40      0.00
   14   -7   16     -1.32      0.00
  -11   -6   16     -0.73      0.00
  -10   -6   16      0.27      0.00
   -9   -6   16     -1.34      0.00
   -8   -6   16     -1.18      0.00
   -7   -6   16      2.16      0.00
   -6   -6   16     -1.65      0.00
   -5   -6   16     -0.44      0.00
   -4   -6   16     -3.16      0.00
   -3   -6   16      1.17      0.00
   -2   -6   16      0.99      0.00
   -1   -6   16      0.31      0.00
    0   -6   16     -2.06      0.00
    1   -6   16      0.69      0.00
    2   -6   16      0.30      0.00
    3   -6   16      1.93      0.00
    4   -6   16      2.32      0.00
    5   -6   16     -3.65      0.00
    6   -6   16      3.41      0.00
    7   -6   16     -4.43      0.00
    8   -6   16      1.22      0.00
    9   -6   16      0.87      0.00
   10   -6   16     -4.03      0.00
   11   -6   16      4.26      0.00
   12   -6   16     -1.91      0.00
   13   -6   16     -2.69      0.00
   14   -6   16     -0.74      0.00
   15   -6   16     -0.66      0.00
  -11   -5   16      1.16      0.00
  -10   -5   16      3.12      0.00
   -9   -5   16     -2.43      0.00
   -8   -5   16      1.60      0.00
   -7   -5   16     -3.70      0.00
   -6   -5   16     -1.13      0.00
   -5   -5   16      3.44      0.00
   -4   -5   16     -2.02      0.00
   -3   -5   16      0.87      0.00
   -2   -5   16     -4.91      0.00
   -1   -5   16      1.16      0.00
    0   -5   16      0.09      0.00
    1   -5   16     -1.03      0.00
    2   -5   16      5.34      0.00
    3   -5   16     -3.98      0.00
    4   -5   16      6.55      0.00
    5   -5   16      0.79      0.00
    6   -5   16     -2.56      0.00
    7   -5   16     -4.30      0.00
    8   -5   16      1.31      0.00
    9   -5   16     -0.15      0.00
   10   -5   16      1.08      0.00
   11   -5   16     -1.51      0.00
   12   -5   16      3.14      0.00
   13   -5   16     -1.55      0.00
   14   -5   16     -5.99      0.00
   15   -5   16      3.28      0.00
  -10   -4   16     -0.02      0.00
   -9   -4   16     -0.32      0.00
   -8   -4   16      0.94      0.00
   -7   -4   16     -1.12      0.00
   -6   -4   16     -0.85      0.00
   -5   -4   16      1.60      0.00
   -4   -4   16     -1.00      0.00
   -3   -4   16      3.41      0.00
   -2   -4   16     -2.08      0.00
   -1   -4   16     -5.08      0.00
    0   -4   16     -2.16      0.00
    1   -4   16      4.95      0.00
    2   -4   16      1.31      0.00
    3   -4   16     -1.33      0.00
    4   -4   16      0.85      0.00
    5   -4   16      8.73      0.00
    6   -4   16     -1.69      0.00
    7   -4   16     -8.33      0.00
    8   -4   16      4.78      0.00
    9   -4   16      2.56      0.00
   10   -4   16     -6.52      0.00
   11   -4   16      4.10      0.00
   12   -4   16      2.10      0.00
   13   -4   16     -2.50      0.00
   14   -4   16     -0.65      0.00
   15   -4   16      0.00      0.00
   16   -4   16     -1.27      0.00
  -10   -3   16     -0.55      0.00
   -9   -3   16     -2.51      0.00
   -8   -3   16     -1.40      0.00
   -7   -3   16      1.90      0.00
   -6   -3   16      0.46      0.00
   -5   -3   16     -0.61      0.00
   -4   -3   16     -1.56      0.00
   -3   -3   16      3.69      0.00
   -2   -3   16     -0.45      0.00
   -1   -3   16     -0.83      0.00
    0   -3   16     -7.03      0.00
    1   -3   16      4.98      0.00
    2   -3   16      0.79      0.00
    3   -3   16     -3.05      0.00
    4   -3   16      6.92      0.00
    5   -3   16      1.86      0.00
    6   -3   16     -1.06      0.00
    7   -3   16     -5.15      0.00
    8   -3   16      4.92      0.00
    9   -3   16      3.26      0.00
   10   -3   16     -0.01      0.00
   11   -3   16     -0.25      0.00
   12   -3   16     -0.49      0.00
   13   -3   16     -2.99      0.00
   14   -3   16      3.28      0.00
   15   -3   16      1.69      0.00
   16   -3   16     -1.88      0.00
   17   -3   16     -0.96      0.00
  -10   -2   16      0.43      0.00
   -9   -2   16     -1.36      0.00
   -8   -2   16     -0.31      0.00
   -7   -2   16     -0.46      0.00
   -6   -2   16     -0.85      0.00
   -5   -2   16      0.02      0.00
   -4   -2   16     -0.96      0.00
   -3   -2   16      4.73      0.00
   -2   -2   16     -6.18      0.00
   -1   -2   16     -2.18      0.00
    0   -2   16      5.84      0.00
    1   -2   16     -4.73      0.00
    2   -2   16     -2.12      0.00
    3   -2   16      5.69      0.00
    4   -2   16      1.62      0.00
    5   -2   16      2.42      0.00
    6   -2   16     -5.01      0.00
    7   -2   16      1.20      0.00
    8   -2   16      2.66      0.00
    9   -2   16      1.13      0.00
   10   -2   16      2.43      0.00
   11   -2   16      3.82      0.00
   12   -2   16     -5.47      0.00
   13   -2   16     -1.15      0.00
   14   -2   16      3.90      0.00
   15   -2   16      1.70      0.00
   16   -2   16      0.67      0.00
   17   -2   16     -0.95      0.00
  -10   -1   16     -1.00      0.00
   -9   -1   16      0.90      0.00
   -8   -1   16      2.25      0.00
   -7   -1   16      0.23      0.00
   -6   -1   16     -3.13      0.00
   -5   -1   16      0.27      0.00
   -4   -1   16      0.50      0.00
   -3   -1   16      2.66      0.00
   -2   -1   16     -5.96      0.00
   -1   -1   16      0.31      0.00
    0   -1   16     -1.59      0.00
    1   -1   16      0.98      0.00
    2   -1   16     -4.83      0.00
    3   -1   16      6.51      0.00
    4   -1   16      3.79      0.00
    5   -1   16     -5.90      0.00
    6   -1   16      1.88      0.00
    7   -1   16      3.15      0.00
    8   -1   16      1.23      0.00
    9   -1   16      0.43      0.00
   10   -1   16      2.25      0.00
   11   -1   16     -1.61      0.00
   12   -1   16      1.44      0.00
   13   -1   16     -3.29      0.00
   14   -1   16      3.38      0.00
   15   -1   16      4.01      0.00
   16   -1   16     -1.81      0.00
   17   -1   16      1.48      0.00
   18   -1   16      0.67      0.00
   -9    0   16     -0.75      0.00
   -8    0   16      1.91      0.00
   -7    0   16      2.45      0.00
   -6    0   16     -1.67      0.00
   -5    0   16      0.93      0.00
   -4    0   16     -0.60      0.00
   -3    0   16     -1.57      0.00
   -2    0   16     -2.33      0.00
   -1    0   16      4.85      0.00
    0    0   16     -3.47      0.00
    1    0   16     -5.01      0.00
    2    0   16      4.56      0.00
    3    0   16     -1.02      0.00
    4    0   16     -0.42      0.00
    5    0   16     -0.43      0.00
    6    0   16     -0.61      0.00
    7    0   16      5.75      0.00
    8    0   16      0.66      0.00
    9    0   16      3.77      0.00
   10    0   16      1.05      0.00
   11    0   16     -3.54      0.00
   12    0   16     -1.63      0.00
   13    0   16      0.33      0.00
   14    0   16      3.30      0.00
   15    0   16      0.21      0.00
   16    0   16     -1.28      0.00
   17    0   16      4.95      0.00
   18    0   16     -0.14      0.00
   -9    1   16      0.21      0.00
   -8    1   16      0.07      0.00
   -7    1   16      1.16      0.00
   -6    1   16     -0.08      0.00
   -5    1   16      2.63      0.00
   -4    1   16     -2.93      0.00
   -3    1   16     -2.34      0.00
   -2    1   16     -1.59      0.00
   -1    1   16      2.45      0.00
    0    1   16      0.70      0.00
    1    1   16      0.39      0.00
    2    1   16     -3.34      0.00
    3    1   16      1.67      0.00
    4    1   16     -4.99      0.00
    5    1   16     -0.04      0.00
    6    1   16      3.71      0.00
    7    1   16      1.55      0.00
    8    1   16      3.41      0.00
    9    1   16      1.64      0.00
   10    1   16      0.74      0.00
   11    1   16     -2.96      0.00
   12    1   16      1.86      0.00
   13    1   16     -3.49      0.00
   14    1   16      2.21      0.00
   15    1   16      1.83      0.00
   16    1   16     -2.60      0.00
   17    1   16      4.65      0.00
   18    1   16      0.50      0.00
   19    1   16      0.36      0.00
   -8    2   16      1.46      0.00
   -7    2   16      0.81      0.00
   -6    2   16      1.02      0.00
   -5    2   16     -0.93      0.00
   -4    2   16     -3.22      0.00
   -3    2   16      0.18      0.00
   -2    2   16     -0.09      0.00
   -1    2   16     -1.81      0.00
    0    2   16     -2.17      0.00
    1    2   16      3.92      0.00
    2    2   16     -0.95      0.00
    3    2   16     -6.97      0.00
    4    2   16      2.94      0.00
    5    2   16     -2.15      0.00
    6    2   16     -0.11      0.00
    7    2   16      6.00      0.00
    8    2   16      1.81      0.00
    9    2   16     -0.94      0.00
   10    2   16     -2.12      0.00
   11    2   16     -0.04      0.00
   12    2   16      3.27      0.00
   13    2   16     -2.55      0.00
   14    2   16     -1.81      0.00
   15    2   16      1.05      0.00
   16    2   16      1.05      0.00
   17    2   16      2.09      0.00
   18    2   16      0.49      0.00
   19    2   16      1.42      0.00
   -8    3   16     -0.94      0.00
   -7    3   16      3.94      0.00
   -6    3   16      1.91      0.00
   -5    3   16     -2.45      0.00
   -4    3   16     -2.70      0.00
   -3    3   16      0.36      0.00
   -2    3   16      0.68      0.00
   -1    3   16     -1.14      0.00
    0    3   16     -3.87      0.00
    1    3   16      1.81      0.00
    2    3   16     -1.22      0.00
    3    3   16     -5.69      0.00
    4    3   16     -0.25      0.00
    5    3   16      0.95      0.00
    6    3   16     -3.74      0.00
    7    3   16      5.21      0.00
    8    3   16      2.92      0.00
    9    3   16     -4.75      0.00
   10    3   16      1.03      0.00
   11    3   16      1.00      0.00
   12    3   16     -0.09      0.00
   13    3   16     -1.02      0.00
   14    3   16     -0.02      0.00
   15    3   16     -2.64      0.00
   16    3   16     -0.62      0.00
   17    3   16      2.57      0.00
   18    3   16      0.07      0.00
   19    3   16      2.96      0.00
   -7    4   16      1.66      0.00
   -6    4   16     -1.44      0.00
   -5    4   16      0.13      0.00
   -4    4   16      0.75      0.00
   -3    4   16     -0.29      0.00
   -2    4   16     -1.61      0.00
   -1    4   16     -1.33      0.00
    0    4   16      4.15      0.00
    1    4   16      0.19      0.00
    2    4   16     -6.19      0.00
    3    4   16     -2.71      0.00
    4    4   16      0.21      0.00
    5    4   16     -4.06      0.00
    6    4   16      0.49      0.00
    7    4   16      3.04      0.00
    8    4   16     -3.04      0.00
    9    4   16     -4.15      0.00
   10    4   16      3.96      0.00
   11    4   16     -0.36      0.00
   12    4   16      0.04      0.00
   13    4   16      3.40      0.00
   14    4   16     -3.49      0.00
   15    4   16     -2.99      0.00
   16    4   16     -0.64      0.00
   17    4   16     -1.24      0.00
   18    4   16     -1.15      0.00
   19    4   16      1.93      0.00
   20    4   16      5.85      0.00
   -7    5   16     -1.06      0.00
   -6    5   16     -1.67      0.00
   -5    5   16     -2.22      0.00
   -4    5   16      2.18      0.00
   -3    5   16     -0.24      0.00
   -2    5   16     -0.82      0.00
   -1    5   16      1.33      0.00
    0    5   16      2.25      0.00
    1    5   16      1.97      0.00
    2    5   16     -2.57      0.00
    3    5   16     -3.14      0.00
    4    5   16     -0.54      0.00
    5    5   16     -1.96      0.00
    6    5   16      1.22      0.00
    7    5   16      1.88      0.00
    8    5   16     -6.91      0.00
    9    5   16     -3.85      0.00
   10    5   16      3.66      0.00
   11    5   16     -2.06      0.00
   12    5   16      1.61      0.00
   13    5   16      3.86      0.00
   14    5   16     -1.57      0.00
   15    5   16     -3.49      0.00
   16    5   16     -3.73      0.00
   17    5   16     -0.18      0.00
   18    5   16     -2.51      0.00
   19    5   16     -0.55      0.00
   20    5   16      4.68      0.00
   -6    6   16     -0.66      0.00
   -5    6   16      2.01      0.00
   -4    6   16     -1.41      0.00
   -3    6   16      0.25      0.00
   -2    6   16     -0.32      0.00
   -1    6   16      3.35      0.00
    0    6   16     -0.39      0.00
    1    6   16     -1.99      0.00
    2    6   16      3.31      0.00
    3    6   16      0.45      0.00
    4    6   16     -2.01      0.00
    5    6   16      1.84      0.00
    6    6   16      0.04      0.00
    7    6   16     -2.08      0.00
    8    6   16     -2.09      0.00
    9    6   16     -2.12      0.00
   10    6   16      0.15      0.00
   11    6   16     -1.21      0.00
   12    6   16      2.86      0.00
   13    6   16     -0.20      0.00
   14    6   16     -1.33      0.00
   15    6   16     -1.99      0.00
   16    6   16     -1.99      0.00
   17    6   16     -3.07      0.00
   18    6   16     -1.58      0.00
   19    6   16      0.89      0.00
   20    6   16      1.49      0.00
   -5    7   16     -0.65      0.00
   -4    7   16      5.57      0.00
   -3    7   16      0.16      0.00
   -2    7   16     -0.44      0.00
   -1    7   16     -0.28      0.00
    0    7   16      0.21      0.00
    1    7   16      0.30      0.00
    2    7   16     -0.42      0.00
    3    7   16      0.10      0.00
    4    7   16      2.34      0.00
    5    7   16      3.90      0.00
    6    7   16     -3.73      0.00
    7    7   16     -4.23      0.00
    8    7   16      2.33      0.00
    9    7   16     -0.31      0.00
   10    7   16     -0.41      0.00
   11    7   16      2.16      0.00
   12    7   16      0.13      0.00
   13    7   16     -0.96      0.00
   14    7   16     -1.19      0.00
   15    7   16     -3.08      0.00
   16    7   16     -0.73      0.00
   17    7   16     -0.50      0.00
   18    7   16     -1.84      0.00
   19    7   16      0.32      0.00
   20    7   16     -0.70      0.00
   -4    8   16      1.36      0.00
   -3    8   16      4.87      0.00
   -2    8   16     -0.51      0.00
   -1    8   16     -0.38      0.00
    0    8   16     -2.69      0.00
    1    8   16      3.67      0.00
    2    8   16     -1.04      0.00
    3    8   16     -3.13      0.00
    4    8   16      3.47      0.00
    5    8   16      2.58      0.00
    6    8   16     -5.10      0.00
    7    8   16     -1.61      0.00
    8    8   16      1.65      0.00
    9    8   16     -3.19      0.00
   10    8   16      2.56      0.00
   11    8   16      3.68      0.00
   12    8   16      0.81      0.00
   13    8   16     -4.15      0.00
   14    8   16      1.46      0.00
   15    8   16      0.08      0.00
   16    8   16     -1.31      0.00
   17    8   16     -2.07      0.00
   18    8   16      2.36      0.00
   19    8   16     -2.74      0.00
   20    8   16     -0.27      0.00
   -3    9   16      0.94      0.00
   -2    9   16      2.46      0.00
   -1    9   16     -3.01      0.00
    0    9   16     -0.64      0.00
    1    9   16      0.99      0.00
    2    9   16     -1.55      0.00
    3    9   16     -2.41      0.00
    4    9   16      3.24      0.00
    5    9   16      0.66      0.00
    6    9   16     -7.22      0.00
    7    9   16      0.52      0.00
    8    9   16      2.38      0.00
    9    9   16     -4.65      0.00
   10    9   16      0.97      0.00
   11    9   16      2.29      0.00
   12    9   16     -1.37      0.00
   13    9   16      2.13      0.00
   14    9   16      1.71      0.00
   15    9   16      0.29      0.00
   16    9   16      0.53      0.00
   17    9   16     -0.35      0.00
   18    9   16     -1.80      0.00
   19    9   16     -0.64      0.00
   20    9   16      0.79      0.00
   -3   10   16      1.20      0.00
   -2   10   16      0.43      0.00
   -1   10   16     -1.24      0.00
    0   10   16     -1.62      0.00
    1   10   16     -2.47      0.00
    2   10   16     -4.33      0.00
    3   10   16      2.07      0.00
    4   10   16     -1.99      0.00
    5   10   16     -1.79      0.00
    6   10   16     -0.41      0.00
    7   10   16     -3.02      0.00
    8   10   16     -0.68      0.00
    9   10   16      0.31      0.00
   10   10   16      0.64      0.00
   11   10   16     -2.36      0.00
   12   10   16     -0.62      0.00
   13   10   16      0.76      0.00
   14   10   16      5.40      0.00
   15   10   16      0.24      0.00
   16   10   16      2.52      0.00
   17   10   16     -1.85      0.00
   18   10   16     -0.87      0.00
   19   10   16      0.59      0.00
   20   10   16     -1.24      0.00
   -2   11   16     -0.62      0.00
   -1   11   16      2.56      0.00
    0   11   16     -0.68      0.00
    1   11   16     -8.81      0.00
    2   11   16     -0.45      0.00
    3   11   16     -2.00      0.00
    4   11   16     -2.21      0.00
    5   11   16     -5.01      0.00
    6   11   16     -0.93      0.00
    7   11   16      0.33      0.00
    8   11   16     -2.71      0.00
    9   11   16     -1.25      0.00
   10   11   16      3.13      0.00
   11   11   16      0.78      0.00
   12   11   16     -0.40      0.00
   13   11   16      1.75      0.00
   14   11   16     -2.54      0.00
   15   11   16      3.67      0.00
   16   11   16      2.03      0.00
   17   11   16      0.40      0.00
   18   11   16      0.23      0.00
   19   11   16     -0.51      0.00
   20   11   16     -0.21      0.00
   -1   12   16     -0.94      0.00
    0   12   16      0.74      0.00
    1   12   16     -3.05      0.00
    2   12   16      0.51      0.00
    3   12   16     -5.91      0.00
    4   12   16     -7.45      0.00
    5   12   16      0.95      0.00
    6   12   16     -3.03      0.00
    7   12   16     -4.73      0.00
    8   12   16     -1.71      0.00
    9   12   16      1.28      0.00
   10   12   16      2.31      0.00
   11   12   16      0.72      0.00
   12   12   16      4.37      0.00
   13   12   16      1.43      0.00
   14   12   16     -0.57      0.00
   15   12   16      0.23      0.00
   16   12   16      1.47      0.00
   17   12   16     -2.37      0.00
   18   12   16      2.11      0.00
   19   12   16      1.97      0.00
   20   12   16     -0.20      0.00
    1   13   16      1.23      0.00
    2   13   16      5.27      0.00
    3   13   16     -6.70      0.00
    4   13   16     -6.17      0.00
    5   13   16     -3.01      0.00
    6   13   16      0.05      0.00
    7   13   16     -6.08      0.00
    8   13   16     -2.38      0.00
    9   13   16     -0.68      0.00
   10   13   16      2.67      0.00
   11   13   16      2.05      0.00
   12   13   16      3.87      0.00
   13   13   16      0.33      0.00
   14   13   16      0.62      0.00
   15   13   16      6.35      0.00
   16   13   16     -2.13      0.00
   17   13   16     -0.43      0.00
   18   13   16     -3.58      0.00
   19   13   16      3.20      0.00
   20   13   16      3.45      0.00
    2   14   16      6.37      0.00
    3   14   16     -2.15      0.00
    4   14   16     -1.01      0.00
    5   14   16     -3.51      0.00
    6   14   16     -6.24      0.00
    7   14   16      2.17      0.00
    8   14   16     -2.99      0.00
    9   14   16     -2.22      0.00
   10   14   16     -1.20      0.00
   11   14   16      2.21      0.00
   12   14   16      3.27      0.00
   13   14   16     -0.89      0.00
   14   14   16      3.95      0.00
   15   14   16     -0.50      0.00
   16   14   16      0.22      0.00
   17   14   16      4.57      0.00
   18   14   16     -0.70      0.00
   19   14   16     -2.01      0.00
    3   15   16     -2.16      0.00
    4   15   16      1.86      0.00
    5   15   16     -0.94      0.00
    6   15   16     -3.55      0.00
    7   15   16      1.95      0.00
    8   15   16      0.55      0.00
    9   15   16     -5.77      0.00
   10   15   16      3.05      0.00
   11   15   16     -3.46      0.00
   12   15   16     -0.99      0.00
   13   15   16      1.38      0.00
   14   15   16      2.91      0.00
   15   15   16     -1.08      0.00
   16   15   16     -3.25      0.00
   17   15   16      4.65      0.00
   18   15   16      0.97      0.00
   19   15   16      0.30      0.00
    5   16   16      1.19      0.00
    6   16   16      1.02      0.00
    7   16   16     -0.06      0.00
    8   16   16     -4.23      0.00
    9   16   16      4.27      0.00
   10   16   16     -1.73      0.00
   11   16   16     -2.19      0.00
   12   16   16      1.03      0.00
   13   16   16     -3.06      0.00
   14   16   16     -2.20      0.00
   15   16   16     -0.57      0.00
   16   16   16      1.68      0.00
   17   16   16      0.06      0.00
   18   16   16     -1.91      0.00
    7   17   16     -0.33      0.00
    8   17   16     -2.75      0.00
    9   17   16     -0.06      0.00
   10   17   16      2.23      0.00
   11   17   16     -1.34      0.00
   12   17   16      2.85      0.00
   13   17   16     -2.94      0.00
   14   17   16     -1.16      0.00
   15   17   16     -4.37      0.00
   16   17   16     -2.71      0.00
   17   17   16      4.28      0.00
   11   18   16      0.34      0.00
   12   18   16      1.68      0.00
   13   18   16      1.51      0.00
   14   18   16      0.76      0.00
   -4  -17   17      1.15      0.00
   -3  -17   17      1.26      0.00
   -2  -17   17      0.84      0.00
   -1  -17   17     -4.01      0.00
   -7  -16   17     -1.05      0.00
   -6  -16   17     -1.28      0.00
   -5  -16   17     -4.17      0.00
   -4  -16   17      3.49      0.00
   -3  -16   17      5.38      0.00
   -2  -16   17     -0.45      0.00
   -1  -16   17      1.23      0.00
    0  -16   17     -3.66      0.00
    1  -16   17      1.19      0.00
    2  -16   17      0.25      0.00
   -8  -15   17     -1.14      0.00
   -7  -15   17      0.39      0.00
   -6  -15   17      0.53      0.00
   -5  -15   17     -4.10      0.00
   -4  -15   17     -3.44      0.00
   -3  -15   17      2.83      0.00
   -2  -15   17      3.83      0.00
   -1  -15   17     -0.50      0.00
    0  -15   17      2.76      0.00
    1  -15   17     -0.91      0.00
    2  -15   17     -4.54      0.00
    3  -15   17     -2.00      0.00
    4  -15   17      2.65      0.00
   -9  -14   17     -0.06      0.00
   -8  -14   17      0.93      0.00
   -7  -14   17     -3.13      0.00
   -6  -14   17      2.68      0.00
   -5  -14   17     -2.17      0.00
   -4  -14   17     -2.42      0.00
   -3  -14   17     -0.20      0.00
   -2  -14   17      0.47      0.00
   -1  -14   17     -0.09      0.00
    0  -14   17      0.16      0.00
    1  -14   17      4.31      0.00
    2  -14   17     -6.84      0.00
    3  -14   17      0.42      0.00
    4  -14   17     -1.77      0.00
    5  -14   17      0.31      0.00
    6  -14   17      2.78      0.00
   -9  -13   17      0.23      0.00
   -8  -13   17      0.53      0.00
   -7  -13   17     -1.69      0.00
   -6  -13   17     -0.65      0.00
   -5  -13   17     -1.51      0.00
   -4  -13   17     -1.29      0.00
   -3  -13   17      1.86      0.00
   -2  -13   17     -2.27      0.00
   -1  -13   17     -0.13      0.00
    0  -13   17     -0.81      0.00
    1  -13   17     -1.46      0.00
    2  -13   17      1.79      0.00
    3  -13   17      1.16      0.00
    4  -13   17      1.91      0.00
    5  -13   17     -7.32      0.00
    6  -13   17      0.92      0.00
    7  -13   17      5.16      0.00
  -10  -12   17     -1.45      0.00
   -9  -12   17      0.17      0.00
   -8  -12   17      1.53      0.00
   -7  -12   17     -1.40      0.00
   -6  -12   17      1.96      0.00
   -5  -12   17     -4.90      0.00
   -4  -12   17      0.99      0.00
   -3  -12   17     -1.63      0.00
   -2  -12   17     -2.86      0.00
   -1  -12   17      4.32      0.00
    0  -12   17     -2.53      0.00
    1  -12   17     -0.77      0.00
    2  -12   17     -0.99      0.00
    3  -12   17      4.59      0.00
    4  -12   17      0.03      0.00
    5  -12   17     -1.54      0.00
    6  -12   17      2.32      0.00
    7  -12   17     -0.84      0.00
    8  -12   17      0.16      0.00
    9  -12   17      5.70      0.00
  -10  -11   17     -1.63      0.00
   -9  -11   17     -2.53      0.00
   -8  -11   17     -0.62      0.00
   -7  -11   17      3.07      0.00
   -6  -11   17      1.85      0.00
   -5  -11   17     -4.72      0.00
   -4  -11   17     -0.30      0.00
   -3  -11   17     -0.11      0.00
   -2  -11   17     -1.15      0.00
   -1  -11   17      1.34      0.00
    0  -11   17     -4.15      0.00
    1  -11   17      4.21      0.00
    2  -11   17     -1.65      0.00
    3  -11   17     -1.44      0.00
    4  -11   17      3.31      0.00
    5  -11   17     -3.18      0.00
    6  -11   17      8.93      0.00
    7  -11   17     -0.79      0.00
    8  -11   17     -0.31      0.00
    9  -11   17      6.38      0.00
   10  -11   17      0.52      0.00
  -10  -10   17     -2.42      0.00
   -9  -10   17     -4.41      0.00
   -8  -10   17      0.80      0.00
   -7  -10   17     -0.40      0.00
   -6  -10   17      0.06      0.00
   -5  -10   17     -2.20      0.00
   -4  -10   17      1.91      0.00
   -3  -10   17      0.43      0.00
   -2  -10   17     -0.29      0.00
   -1  -10   17      0.59      0.00
    0  -10   17     -5.05      0.00
    1  -10   17      2.65      0.00
    2  -10   17     -1.25      0.00
    3  -10   17      0.69      0.00
    4  -10   17     -0.69      0.00
    5  -10   17     -3.06      0.00
    6  -10   17      6.73      0.00
    7  -10   17     -0.88      0.00
    8  -10   17      2.82      0.00
    9  -10   17     10.44      0.00
   10  -10   17     -0.01      0.00
   11  -10   17     -0.20      0.00
  -10   -9   17     -1.27      0.00
   -9   -9   17     -2.13      0.00
   -8   -9   17      2.10      0.00
   -7   -9   17     -2.27      0.00
   -6   -9   17     -3.07      0.00
   -5   -9   17     -2.61      0.00
   -4   -9   17      4.94      0.00
   -3   -9   17      2.47      0.00
   -2   -9   17     -1.51      0.00
   -1   -9   17     -1.92      0.00
    0   -9   17     -1.20      0.00
    1   -9   17      2.86      0.00
    2   -9   17     -3.76      0.00
    3   -9   17      0.36      0.00
    4   -9   17     -0.40      0.00
    5   -9   17     -3.00      0.00
    6   -9   17      3.16      0.00
    7   -9   17     -2.51      0.00
    8   -9   17      4.14      0.00
    9   -9   17      2.20      0.00
   10   -9   17      4.52      0.00
   11   -9   17      4.52      0.00
   12   -9   17      0.61      0.00
  -10   -8   17     -1.77      0.00
   -9   -8   17      1.84      0.00
   -8   -8   17     -1.58      0.00
   -7   -8   17      0.75      0.00
   -6   -8   17     -0.42      0.00
   -5   -8   17     -4.78      0.00
   -4   -8   17      2.37      0.00
   -3   -8   17      3.73      0.00
   -2   -8   17     -0.89      0.00
   -1   -8   17     -0.30      0.00
    0   -8   17     -3.13      0.00
    1   -8   17      3.51      0.00
    2   -8   17     -3.11      0.00
    3   -8   17      2.18      0.00
    4   -8   17     -2.71      0.00
    5   -8   17     -1.06      0.00
    6   -8   17      1.11      0.00
    7   -8   17     -4.86      0.00
    8   -8   17      2.36      0.00
    9   -8   17     -1.54      0.00
   10   -8   17     -0.79      0.00
   11   -8   17     10.19      0.00
   12   -8   17      1.97      0.00
   13   -8   17      0.05      0.00
  -10   -7   17      0.68      0.00
   -9   -7   17      0.47      0.00
   -8   -7   17      0.68      0.00
   -7   -7   17     -1.50      0.00
   -6   -7   17      1.21      0.00
   -5   -7   17     -1.29      0.00
   -4   -7   17      1.51      0.00
   -3   -7   17      0.81      0.00
   -2   -7   17     -1.73      0.00
   -1   -7   17      1.17      0.00
    0   -7   17     -1.22      0.00
    1   -7   17      0.41      0.00
    2   -7   17     -0.59      0.00
    3   -7   17      0.04      0.00
    4   -7   17      1.22      0.00
    5   -7   17     -2.91      0.00
    6   -7   17     -0.51      0.00
    7   -7   17     -0.85      0.00
    8   -7   17     -5.18      0.00
    9   -7   17     -0.22      0.00
   10   -7   17      5.36      0.00
   11   -7   17     -2.50      0.00
   12   -7   17      2.29      0.00
   13   -7   17      1.18      0.00
   14   -7   17      1.78      0.00
  -10   -6   17     -0.01      0.00
   -9   -6   17     -0.27      0.00
   -8   -6   17      1.02      0.00
   -7   -6   17     -0.84      0.00
   -6   -6   17      0.35      0.00
   -5   -6   17      1.30      0.00
   -4   -6   17      0.01      0.00
   -3   -6   17      0.94      0.00
   -2   -6   17     -2.04      0.00
   -1   -6   17      0.62      0.00
    0   -6   17     -1.93      0.00
    1   -6   17      3.08      0.00
    2   -6   17     -1.89      0.00
    3   -6   17      1.88      0.00
    4   -6   17     -5.27      0.00
    5   -6   17      0.06      0.00
    6   -6   17     -1.00      0.00
    7   -6   17      1.02      0.00
    8   -6   17     -0.69      0.00
    9   -6   17     -2.17      0.00
   10   -6   17      0.29      0.00
   11   -6   17     -0.94      0.00
   12   -6   17     -3.51      0.00
   13   -6   17      3.71      0.00
   14   -6   17      1.91      0.00
   15   -6   17      0.82      0.00
  -10   -5   17     -2.27      0.00
   -9   -5   17      0.12      0.00
   -8   -5   17     -2.26      0.00
   -7   -5   17     -0.97      0.00
   -6   -5   17      3.76      0.00
   -5   -5   17     -1.15      0.00
   -4   -5   17     -0.60      0.00
   -3   -5   17     -3.05      0.00
   -2   -5   17      0.41      0.00
   -1   -5   17      3.92      0.00
    0   -5   17     -4.02      0.00
    1   -5   17      4.16      0.00
    2   -5   17     -3.91      0.00
    3   -5   17      1.75      0.00
    4   -5   17      1.01      0.00
    5   -5   17     -7.69      0.00
    6   -5   17     -0.76      0.00
    7   -5   17      1.93      0.00
    8   -5   17      2.19      0.00
    9   -5   17     -1.57      0.00
   10   -5   17     -2.93      0.00
   11   -5   17     -2.91      0.00
   12   -5   17      1.14      0.00
   13   -5   17     -2.25      0.00
   14   -5   17      3.53      0.00
   15   -5   17      1.42      0.00
  -10   -4   17     -0.61      0.00
   -9   -4   17      0.32      0.00
   -8   -4   17     -0.76      0.00
   -7   -4   17     -1.55      0.00
   -6   -4   17      1.90      0.00
   -5   -4   17     -2.47      0.00
   -4   -4   17     -0.74      0.00
   -3   -4   17     -0.77      0.00
   -2   -4   17     -4.50      0.00
   -1   -4   17      1.71      0.00
    0   -4   17      3.85      0.00
    1   -4   17      1.13      0.00
    2   -4   17     -5.66      0.00
    3   -4   17      3.82      0.00
    4   -4   17      2.10      0.00
    5   -4   17     -2.07      0.00
    6   -4   17     -7.77      0.00
    7   -4   17      5.00      0.00
    8   -4   17      0.31      0.00
    9   -4   17     -6.34      0.00
   10   -4   17      0.53      0.00
   11   -4   17      0.85      0.00
   12   -4   17     -5.31      0.00
   13   -4   17      1.13      0.00
   14   -4   17      0.74      0.00
   15   -4   17      0.32      0.00
   16   -4   17     -1.35      0.00
   -9   -3   17      0.92      0.00
   -8   -3   17      0.99      0.00
   -7   -3   17      0.69      0.00
   -6   -3   17     -2.01      0.00
   -5   -3   17     -1.34      0.00
   -4   -3   17     -0.18      0.00
   -3   -3   17     -0.19      0.00
   -2   -3   17     -2.30      0.00
   -1   -3   17     -1.60      0.00
    0   -3   17      0.82      0.00
    1   -3   17      4.07      0.00
    2   -3   17     -4.67      0.00
    3   -3   17      4.29      0.00
    4   -3   17     -0.02      0.00
    5   -3   17     -3.13      0.00
    6   -3   17      0.07      0.00
    7   -3   17      2.83      0.00
    8   -3   17      1.40      0.00
    9   -3   17     -8.14      0.00
   10   -3   17     -0.93      0.00
   11   -3   17     -2.95      0.00
   12   -3   17     -1.44      0.00
   13   -3   17      0.48      0.00
   14   -3   17      0.58      0.00
   15   -3   17     -2.16      0.00
   16   -3   17     -0.13      0.00
   -9   -2   17     -0.19      0.00
   -8   -2   17      0.30      0.00
   -7   -2   17     -0.74      0.00
   -6   -2   17     -0.08      0.00
   -5   -2   17     -1.71      0.00
   -4   -2   17      2.74      0.00
   -3   -2   17     -3.18      0.00
   -2   -2   17     -1.88      0.00
   -1   -2   17      6.88      0.00
    0   -2   17     -4.45      0.00
    1   -2   17     -0.81      0.00
    2   -2   17      3.47      0.00
    3   -2   17     -0.06      0.00
    4   -2   17     -3.00      0.00
    5   -2   17     -2.73      0.00
    6   -2   17      2.48      0.00
    7   -2   17      4.05      0.00
    8   -2   17     -1.94      0.00
    9   -2   17     -1.93      0.00
   10   -2   17     -1.79      0.00
   11   -2   17     -4.75      0.00
   12   -2   17     -3.55      0.00
   13   -2   17      4.96      0.00
   14   -2   17     -2.93      0.00
   15   -2   17     -2.53      0.00
   16   -2   17     -0.03      0.00
   17   -2   17      0.43      0.00
   -9   -1   17      1.38      0.00
   -8   -1   17     -1.26      0.00
   -7   -1   17     -3.24      0.00
   -6   -1   17     -0.12      0.00
   -5   -1   17      0.71      0.00
   -4   -1   17      0.29      0.00
   -3   -1   17     -0.99      0.00
   -2   -1   17     -1.05      0.00
   -1   -1   17      3.46      0.00
    0   -1   17     -0.16      0.00
    1   -1   17      1.55      0.00
    2   -1   17      0.38      0.00
    3   -1   17      1.58      0.00
    4   -1   17     -6.73      0.00
    5   -1   17     -1.03      0.00
    6   -1   17      4.81      0.00
    7   -1   17     -2.53      0.00
    8   -1   17     -1.44      0.00
    9   -1   17     -1.67      0.00
   10   -1   17      0.57      0.00
   11   -1   17     -1.62      0.00
   12   -1   17     -1.40      0.00
   13   -1   17      0.19      0.00
   14   -1   17      0.13      0.00
   15   -1   17     -2.94      0.00
   16   -1   17     -2.36      0.00
   17   -1   17      1.35      0.00
   18   -1   17     -1.71      0.00
   -8    0   17      1.88      0.00
   -7    0   17     -4.46      0.00
   -6    0   17     -0.73      0.00
   -5    0   17     -0.73      0.00
   -4    0   17      0.11      0.00
   -3    0   17      0.05      0.00
   -2    0   17      2.94      0.00
   -1    0   17     -0.05      0.00
    0    0   17     -3.25      0.00
    1    0   17      5.33      0.00
    2    0   17      0.81      0.00
    3    0   17     -2.34      0.00
    4    0   17     -1.22      0.00
    5    0   17     -1.20      0.00
    6    0   17      4.45      0.00
    7    0   17     -4.92      0.00
    8    0   17     -2.24      0.00
    9    0   17     -0.19      0.00
   10    0   17     -4.23      0.00
   11    0   17      1.80      0.00
   12    0   17      0.69      0.00
   13    0   17      2.91      0.00
   14    0   17     -1.58      0.00
   15    0   17     -3.75      0.00
   16    0   17      1.68      0.00
   17    0   17     -0.42      0.00
   18    0   17     -3.61      0.00
   -8    1   17      1.08      0.00
   -7    1   17     -0.72      0.00
   -6    1   17     -0.50      0.00
   -5    1   17     -1.53      0.00
   -4    1   17     -1.39      0.00
   -3    1   17      1.29      0.00
   -2    1   17      2.43      0.00
   -1    1   17      4.10      0.00
    0    1   17     -3.42      0.00
    1    1   17      0.38      0.00
    2    1   17      1.21      0.00
    3    1   17     -1.40      0.00
    4    1   17      0.99      0.00
    5    1   17      3.20      0.00
    6    1   17     -1.61      0.00
    7    1   17     -2.13      0.00
    8    1   17     -0.61      0.00
    9    1   17     -2.87      0.00
   10    1   17     -2.79      0.00
   11    1   17      1.89      0.00
   12    1   17      0.68      0.00
   13    1   17      2.24      0.00
   14    1   17      2.49      0.00
   15    1   17     -4.06      0.00
   16    1   17      0.67      0.00
   17    1   17      0.56      0.00
   18    1   17     -3.28      0.00
   -7    2   17     -1.31      0.00
   -6    2   17      0.11      0.00
   -5    2   17     -1.05      0.00
   -4    2   17      0.93      0.00
   -3    2   17      0.62      0.00
   -2    2   17      0.15      0.00
   -1    2   17      1.29      0.00
    0    2   17      3.29      0.00
    1    2   17      0.69      0.00
    2    2   17     -4.06      0.00
    3    2   17      3.59      0.00
    4    2   17      4.92      0.00
    5    2   17     -2.30      0.00
    6    2   17      2.28      0.00
    7    2   17     -2.60      0.00
    8    2   17     -2.12      0.00
    9    2   17     -0.71      0.00
   10    2   17     -0.65      0.00
   11    2   17      3.65      0.00
   12    2   17     -0.95      0.00
   13    2   17      1.43      0.00
   14    2   17      1.22      0.00
   15    2   17      0.99      0.00
   16    2   17      0.99      0.00
   17    2   17     -3.25      0.00
   18    2   17     -1.19      0.00
   19    2   17      0.66      0.00
   -7    3   17     -0.13      0.00
   -6    3   17     -2.10      0.00
   -5    3   17     -1.49      0.00
   -4    3   17      1.95      0.00
   -3    3   17      1.30      0.00
   -2    3   17     -1.25      0.00
   -1    3   17     -0.17      0.00
    0    3   17      0.90      0.00
    1    3   17      3.10      0.00
    2    3   17     -3.20      0.00
    3    3   17      4.74      0.00
    4    3   17      5.15      0.00
    5    3   17     -2.24      0.00
    6    3   17      3.83      0.00
    7    3   17     -0.08      0.00
    8    3   17     -5.91      0.00
    9    3   17      2.90      0.00
   10    3   17      2.19      0.00
   11    3   17      1.17      0.00
   12    3   17     -0.43      0.00
   13    3   17      1.07      0.00
   14    3   17      1.86      0.00
   15    3   17     -0.53      0.00
   16    3   17      3.10      0.00
   17    3   17     -0.79      0.00
   18    3   17     -1.41      0.00
   19    3   17     -0.48      0.00
   -6    4   17     -0.17      0.00
   -5    4   17      2.01      0.00
   -4    4   17     -2.45      0.00
   -3    4   17     -0.58      0.00
   -2    4   17     -0.97      0.00
   -1    4   17      3.14      0.00
    0    4   17     -1.20      0.00
    1    4   17     -5.54      0.00
    2    4   17      2.96      0.00
    3    4   17      4.61      0.00
    4    4   17      0.65      0.00
    5    4   17      2.10      0.00
    6    4   17      3.64      0.00
    7    4   17     -3.17      0.00
    8    4   17     -0.22      0.00
    9    4   17      3.57      0.00
   10    4   17      0.57      0.00
   11    4   17      0.87      0.00
   12    4   17      1.84      0.00
   13    4   17     -0.72      0.00
   14    4   17     -0.47      0.00
   15    4   17      3.34      0.00
   16    4   17      1.01      0.00
   17    4   17     -0.43      0.00
   18    4   17      2.10      0.00
   19    4   17      1.51      0.00
   -6    5   17      0.62      0.00
   -5    5   17      1.34      0.00
   -4    5   17      0.78      0.00
   -3    5   17     -2.39      0.00
   -2    5   17     -0.92      0.00
   -1    5   17      0.25      0.00
    0    5   17     -1.46      0.00
    1    5   17     -2.85      0.00
    2    5   17     -1.46      0.00
    3    5   17      4.17      0.00
    4    5   17      0.79      0.00
    5    5   17      0.82      0.00
    6    5   17      1.48      0.00
    7    5   17     -3.73      0.00
    8    5   17      0.35      0.00
    9    5   17      6.10      0.00
   10    5   17     -0.04      0.00
   11    5   17     -1.87      0.00
   12    5   17      2.60      0.00
   13    5   17      0.69      0.00
   14    5   17     -0.96      0.00
   15    5   17      1.35      0.00
   16    5   17      4.56      0.00
   17    5   17     -0.06      0.00
   18    5   17      0.99      0.00
   19    5   17      3.01      0.00
   20    5   17     -2.49      0.00
   -5    6   17     -0.86      0.00
   -4    6   17     -2.56      0.00
   -3    6   17      1.79      0.00
   -2    6   17     -1.52      0.00
   -1    6   17     -0.31      0.00
    0    6   17     -5.58      0.00
    1    6   17      0.18      0.00
    2    6   17      4.43      0.00
    3    6   17     -3.25      0.00
    4    6   17      0.26      0.00
    5    6   17     -0.01      0.00
    6    6   17     -0.74      0.00
    7    6   17     -0.74      0.00
    8    6   17      0.38      0.00
    9    6   17      1.64      0.00
   10    6   17      0.57      0.00
   11    6   17     -0.72      0.00
   12    6   17     -1.34      0.00
   13    6   17     -2.46      0.00
   14    6   17      3.39      0.00
   15    6   17      4.10      0.00
   16    6   17      1.17      0.00
   17    6   17      3.41      0.00
   18    6   17      2.47      0.00
   19    6   17     -0.06      0.00
   20    6   17     -2.28      0.00
   -4    7   17     -2.15      0.00
   -3    7   17     -3.95      0.00
   -2    7   17     -0.15      0.00
   -1    7   17      0.01      0.00
    0    7   17     -1.45      0.00
    1    7   17     -1.96      0.00
    2    7   17      1.48      0.00
    3    7   17      0.67      0.00
    4    7   17     -0.28      0.00
    5    7   17     -3.33      0.00
    6    7   17     -1.79      0.00
    7    7   17      3.89      0.00
    8    7   17      1.90      0.00
    9    7   17     -2.01      0.00
   10    7   17      0.03      0.00
   11    7   17     -1.15      0.00
   12    7   17     -3.96      0.00
   13    7   17     -2.15      0.00
   14    7   17      0.50      0.00
   15    7   17      4.30      0.00
   16    7   17      5.29      0.00
   17    7   17      1.54      0.00
   18    7   17      2.26      0.00
   19    7   17     -0.30      0.00
   20    7   17     -1.71      0.00
   -3    8   17     -0.70      0.00
   -2    8   17     -3.74      0.00
   -1    8   17     -1.66      0.00
    0    8   17      3.44      0.00
    1    8   17     -0.12      0.00
    2    8   17     -3.86      0.00
    3    8   17      0.71      0.00
    4    8   17      3.15      0.00
    5    8   17     -5.63      0.00
    6    8   17      1.35      0.00
    7    8   17      3.13      0.00
    8    8   17     -0.15      0.00
    9    8   17      2.12      0.00
   10    8   17      0.97      0.00
   11    8   17     -3.39      0.00
   12    8   17     -3.97      0.00
   13    8   17     -0.47      0.00
   14    8   17     -0.44      0.00
   15    8   17      0.40      0.00
   16    8   17      2.31      0.00
   17    8   17      4.46      0.00
   18    8   17      0.53      0.00
   19    8   17      0.05      0.00
   20    8   17     -0.51      0.00
   -3    9   17      0.50      0.00
   -2    9   17     -3.13      0.00
   -1    9   17      0.64      0.00
    0    9   17      2.75      0.00
    1    9   17     -2.06      0.00
    2    9   17      0.96      0.00
    3    9   17      1.42      0.00
    4    9   17     -0.18      0.00
    5    9   17     -4.78      0.00
    6    9   17      2.99      0.00
    7    9   17      4.56      0.00
    8    9   17     -2.04      0.00
    9    9   17      0.93      0.00
   10    9   17      1.95      0.00
   11    9   17     -1.55      0.00
   12    9   17      0.61      0.00
   13    9   17      0.59      0.00
   14    9   17     -4.24      0.00
   15    9   17     -1.27      0.00
   16    9   17     -0.03      0.00
   17    9   17      1.44      0.00
   18    9   17      2.80      0.00
   19    9   17      0.42      0.00
   20    9   17      1.20      0.00
   -2   10   17     -0.54      0.00
   -1   10   17     -1.35      0.00
    0   10   17      2.43      0.00
    1   10   17     -0.84      0.00
    2   10   17      5.20      0.00
    3   10   17     -0.47      0.00
    4   10   17      0.48      0.00
    5   10   17     -0.77      0.00
    6   10   17      0.78      0.00
    7   10   17      0.60      0.00
    8   10   17      3.29      0.00
    9   10   17      0.12      0.00
   10   10   17     -2.97      0.00
   11   10   17      1.23      0.00
   12   10   17      0.65      0.00
   13   10   17      3.09      0.00
   14   10   17     -1.96      0.00
   15   10   17     -5.12      0.00
   16   10   17     -2.09      0.00
   17   10   17     -0.10      0.00
   18   10   17      3.23      0.00
   19   10   17      1.31      0.00
   20   10   17      0.24      0.00
   -1   11   17     -0.89      0.00
    0   11   17     -3.53      0.00
    1   11   17      4.08      0.00
    2   11   17      4.32      0.00
    3   11   17      0.03      0.00
    4   11   17      0.98      0.00
    5   11   17     -0.11      0.00
    6   11   17      3.60      0.00
    7   11   17     -0.24      0.00
    8   11   17     -1.67      0.00
    9   11   17      4.33      0.00
   10   11   17     -0.01      0.00
   11   11   17     -3.91      0.00
   12   11   17     -2.16      0.00
   13   11   17     -1.30      0.00
   14   11   17      0.86      0.00
   15   11   17     -0.34      0.00
   16   11   17     -3.93      0.00
   17   11   17     -1.74      0.00
   18   11   17      0.71      0.00
   19   11   17      1.45      0.00
   20   11   17      1.27      0.00
    0   12   17      1.48      0.00
    1   12   17     -1.69      0.00
    2   12   17      1.79      0.00
    3   12   17     -1.94      0.00
    4   12   17      6.39      0.00
    5   12   17      0.07      0.00
    6   12   17      0.47      0.00
    7   12   17     -1.17      0.00
    8   12   17      4.08      0.00
    9   12   17      1.91      0.00
   10   12   17     -3.67      0.00
   11   12   17      0.45      0.00
   12   12   17     -3.95      0.00
   13   12   17     -5.77      0.00
   14   12   17     -0.95      0.00
   15   12   17     -2.30      0.00
   16   12   17     -2.52      0.00
   17   12   17     -0.54      0.00
   18   12   17      2.72      0.00
   19   12   17     -2.30      0.00
   20   12   17     -0.32      0.00
    2   13   17     -4.28      0.00
    3   13   17     -4.39      0.00
    4   13   17      5.01      0.00
    5   13   17      5.18      0.00
    6   13   17     -4.39      0.00
    7   13   17      0.61      0.00
    8   13   17      3.38      0.00
    9   13   17      1.33      0.00
   10   13   17     -2.71      0.00
   11   13   17     -0.30      0.00
   12   13   17     -3.68      0.00
   13   13   17     -4.05      0.00
   14   13   17      2.35      0.00
   15   13   17     -8.23      0.00
   16   13   17     -3.86      0.00
   17   13   17     -2.08      0.00
   18   13   17      2.14      0.00
   19   13   17      2.29      0.00
    3   14   17     -3.76      0.00
    4   14   17      2.80      0.00
    5   14   17     -5.06      0.00
    6   14   17      5.04      0.00
    7   14   17      0.85      0.00
    8   14   17     -2.43      0.00
    9   14   17     -0.66      0.00
   10   14   17      1.56      0.00
   11   14   17      0.79      0.00
   12   14   17     -3.58      0.00
   13   14   17     -0.56      0.00
   14   14   17     -0.60      0.00
   15   14   17     -3.87      0.00
   16   14   17      3.38      0.00
   17   14   17     -6.03      0.00
   18   14   17     -4.47      0.00
   19   14   17      1.36      0.00
    5   15   17     -4.79      0.00
    6   15   17      1.72      0.00
    7   15   17      4.14      0.00
    8   15   17     -8.46      0.00
    9   15   17      2.61      0.00
   10   15   17     -0.88      0.00
   11   15   17     -0.28      0.00
   12   15   17      3.27      0.00
   13   15   17      0.45      0.00
   14   15   17     -1.08      0.00
   15   15   17     -2.96      0.00
   16   15   17      7.70      0.00
   17   15   17     -0.59      0.00
   18   15   17     -4.31      0.00
    7   16   17     -4.22      0.00
    8   16   17      2.72      0.00
    9   16   17     -1.57      0.00
   10   16   17     -3.45      0.00
   11   16   17      2.17      0.00
   12   16   17      1.74      0.00
   13   16   17      0.06      0.00
   14   16   17      2.85      0.00
   15   16   17      1.62      0.00
   16   16   17      3.88      0.00
   17   16   17     -0.68      0.00
    9   17   17      3.58      0.00
   10   17   17     -3.34      0.00
   11   17   17      1.66      0.00
   12   17   17     -1.01      0.00
   13   17   17      0.24      0.00
   14   17   17      1.42      0.00
   15   17   17      1.68      0.00
   -4  -16   18      3.63      0.00
   -3  -16   18     -4.64      0.00
   -2  -16   18     -1.49      0.00
   -1  -16   18     -0.01      0.00
    0  -16   18      1.00      0.00
    1  -16   18      2.00      0.00
   -6  -15   18     -2.54      0.00
   -5  -15   18      0.00      0.00
   -4  -15   18      2.57      0.00
   -3  -15   18      2.16      0.00
   -2  -15   18     -3.41      0.00
   -1  -15   18      2.54      0.00
    0  -15   18     -2.01      0.00
    1  -15   18     -3.24      0.00
    2  -15   18      2.87      0.00
    3  -15   18      4.54      0.00
   -7  -14   18      3.39      0.00
   -6  -14   18      0.21      0.00
   -5  -14   18     -1.86      0.00
   -4  -14   18      0.81      0.00
   -3  -14   18     -0.64      0.00
   -2  -14   18      1.68      0.00
   -1  -14   18      0.30      0.00
    0  -14   18     -0.39      0.00
    1  -14   18     -1.61      0.00
    2  -14   18      0.59      0.00
    3  -14   18      2.45      0.00
    4  -14   18     -1.09      0.00
    5  -14   18      3.58      0.00
   -8  -13   18     -1.11      0.00
   -7  -13   18      2.28      0.00
   -6  -13   18      0.08      0.00
   -5  -13   18      0.28      0.00
   -4  -13   18      2.08      0.00
   -3  -13   18     -0.44      0.00
   -2  -13   18     -1.75      0.00
   -1  -13   18      1.43      0.00
    0  -13   18     -2.30      0.00
    1  -13   18      3.99      0.00
    2  -13   18     -0.17      0.00
    3  -13   18     -1.36      0.00
    4  -13   18     -3.79      0.00
    5  -13   18     -0.49      0.00
    6  -13   18      5.77      0.00
    7  -13   18     -3.13      0.00
   -9  -12   18      1.94      0.00
   -8  -12   18     -0.97      0.00
   -7  -12   18      0.90      0.00
   -6  -12   18     -2.55      0.00
   -5  -12   18      2.97      0.00
   -4  -12   18      1.98      0.00
   -3  -12   18     -1.59      0.00
   -2  -12   18      3.33      0.00
   -1  -12   18     -0.42      0.00
    0  -12   18     -2.50      0.00
    1  -12   18      1.10      0.00
    2  -12   18      1.56      0.00
    3  -12   18     -0.44      0.00
    4  -12   18     -4.83      0.00
    5  -12   18      0.48      0.00
    6  -12   18     -1.80      0.00
    7  -12   18     -2.29      0.00
    8  -12   18      2.21      0.00
   -9  -11   18      3.43      0.00
   -8  -11   18      1.65      0.00
   -7  -11   18     -0.90      0.00
   -6  -11   18     -3.36      0.00
   -5  -11   18      3.30      0.00
   -4  -11   18      3.06      0.00
   -3  -11   18     -2.61      0.00
   -2  -11   18      2.77      0.00
   -1  -11   18     -0.59      0.00
    0  -11   18     -0.30      0.00
    1  -11   18      2.81      0.00
    2  -11   18     -3.46      0.00
    3  -11   18      1.17      0.00
    4  -11   18     -1.69      0.00
    5  -11   18      4.37      0.00
    6  -11   18     -4.76      0.00
    7  -11   18     -8.16      0.00
    8  -11   18      3.19      0.00
    9  -11   18     -6.39      0.00
   -9  -10   18      3.21      0.00
   -8  -10   18      0.52      0.00
   -7  -10   18     -0.10      0.00
   -6  -10   18     -1.08      0.00
   -5  -10   18      4.90      0.00
   -4  -10   18     -0.92      0.00
   -3  -10   18      0.45      0.00
   -2  -10   18     -0.51      0.00
   -1  -10   18     -3.42      0.00
    0  -10   18      3.64      0.00
    1  -10   18      2.51      0.00
    2  -10   18     -3.22      0.00
    3  -10   18      2.16      0.00
    4  -10   18     -2.54      0.00
    5  -10   18      5.16      0.00
    6  -10   18     -1.94      0.00
    7  -10   18     -3.09      0.00
    8  -10   18      1.03      0.00
    9  -10   18     -8.68      0.00
   10  -10   18     -7.07      0.00
   11  -10   18     -0.83      0.00
   -9   -9   18      2.74      0.00
   -8   -9   18     -1.32      0.00
   -7   -9   18     -2.73      0.00
   -6   -9   18      2.38      0.00
   -5   -9   18      5.17      0.00
   -4   -9   18      0.30      0.00
   -3   -9   18     -3.76      0.00
   -2   -9   18     -1.18      0.00
   -1   -9   18     -0.39      0.00
    0   -9   18      4.54      0.00
    1   -9   18     -2.31      0.00
    2   -9   18     -2.12      0.00
    3   -9   18      3.29      0.00
    4   -9   18     -1.76      0.00
    5   -9   18      4.34      0.00
    6   -9   18     -3.35      0.00
    7   -9   18      4.60      0.00
    8   -9   18     -0.25      0.00
    9   -9   18     -3.49      0.00
   10   -9   18     -2.41      0.00
   11   -9   18     -8.35      0.00
   12   -9   18     -1.79      0.00
   -9   -8   18      0.12      0.00
   -8   -8   18     -2.33      0.00
   -7   -8   18     -0.48      0.00
   -6   -8   18     -1.21      0.00
   -5   -8   18      3.66      0.00
   -4   -8   18      0.94      0.00
   -3   -8   18     -0.92      0.00
   -2   -8   18     -2.82      0.00
   -1   -8   18      1.24      0.00
    0   -8   18      2.13      0.00
    1   -8   18     -1.90      0.00
    2   -8   18     -0.48      0.00
    3   -8   18      1.23      0.00
    4   -8   18     -3.18      0.00
    5   -8   18      5.76      0.00
    6   -8   18     -3.75      0.00
    7   -8   18      3.14      0.00
    8   -8   18      2.76      0.00
    9   -8   18      0.19      0.00
   10   -8   18      3.13      0.00
   11   -8   18     -4.15      0.00
   12   -8   18     -6.50      0.00
   13   -8   18     -3.22      0.00
   -9   -7   18      0.39      0.00
   -8   -7   18     -3.91      0.00
   -7   -7   18      1.66      0.00
   -6   -7   18     -1.35      0.00
   -5   -7   18     -0.17      0.00
   -4   -7   18      1.12      0.00
   -3   -7   18     -1.87      0.00
   -2   -7   18      3.90      0.00
   -1   -7   18     -1.41      0.00
    0   -7   18      0.33      0.00
    1   -7   18      0.09      0.00
    2   -7   18     -1.11      0.00
    3   -7   18      2.64      0.00
    4   -7   18     -3.66      0.00
    5   -7   18      2.54      0.00
    6   -7   18     -1.18      0.00
    7   -7   18      1.07      0.00
    8   -7   18      1.88      0.00
    9   -7   18      7.41      0.00
   10   -7   18     -3.46      0.00
   11   -7   18     -1.01      0.00
   12   -7   18      1.02      0.00
   13   -7   18     -2.67      0.00
   -9   -6   18     -0.64      0.00
   -8   -6   18      0.67      0.00
   -7   -6   18      0.34      0.00
   -6   -6   18     -0.36      0.00
   -5   -6   18     -1.08      0.00
   -4   -6   18     -1.09      0.00
   -3   -6   18      1.98      0.00
   -2   -6   18      0.80      0.00
   -1   -6   18      0.99      0.00
    0   -6   18      2.92      0.00
    1   -6   18     -2.47      0.00
    2   -6   18      0.40      0.00
    3   -6   18     -0.30      0.00
    4   -6   18     -3.23      0.00
    5   -6   18      5.30      0.00
    6   -6   18      0.57      0.00
    7   -6   18     -0.16      0.00
    8   -6   18     -0.81      0.00
    9   -6   18      2.55      0.00
   10   -6   18      1.64      0.00
   11   -6   18     -1.63      0.00
   12   -6   18      3.36      0.00
   13   -6   18      1.59      0.00
   14   -6   18     -3.40      0.00
   -9   -5   18      1.04      0.00
   -8   -5   18     -0.02      0.00
   -7   -5   18      3.76      0.00
   -6   -5   18     -0.89      0.00
   -5   -5   18     -1.28      0.00
   -4   -5   18     -0.27      0.00
   -3   -5   18      0.88      0.00
   -2   -5   18      6.03      0.00
   -1   -5   18     -2.57      0.00
    0   -5   18      2.86      0.00
    1   -5   18     -2.21      0.00
    2   -5   18      1.16      0.00
    3   -5   18      1.11      0.00
    4   -5   18     -7.71      0.00
    5   -5   18      4.59      0.00
    6   -5   18      2.72      0.00
    7   -5   18      2.06      0.00
    8   -5   18     -2.93      0.00
    9   -5   18     -0.59      0.00
   10   -5   18      1.06      0.00
   11   -5   18      5.39      0.00
   12   -5   18      1.47      0.00
   13   -5   18     -1.49      0.00
   14   -5   18      0.00      0.00
   15   -5   18     -1.05      0.00
   -9   -4   18      1.18      0.00
   -8   -4   18     -1.09      0.00
   -7   -4   18      2.67      0.00
   -6   -4   18     -0.83      0.00
   -5   -4   18     -0.32      0.00
   -4   -4   18      3.37      0.00
   -3   -4   18     -1.74      0.00
   -2   -4   18      3.76      0.00
   -1   -4   18      3.90      0.00
    0   -4   18     -0.34      0.00
    1   -4   18     -3.68      0.00
    2   -4   18      2.82      0.00
    3   -4   18      1.56      0.00
    4   -4   18     -5.53      0.00
    5   -4   18     -2.11      0.00
    6   -4   18      2.09      0.00
    7   -4   18     -0.84      0.00
    8   -4   18     -0.67      0.00
    9   -4   18      1.74      0.00
   10   -4   18      3.94      0.00
   11   -4   18      0.88      0.00
   12   -4   18      1.21      0.00
   13   -4   18      2.96      0.00
   14   -4   18     -1.88      0.00
   15   -4   18     -0.81      0.00
   16   -4   18      1.32      0.00
   -9   -3   18      0.58      0.00
   -8   -3   18     -0.37      0.00
   -7   -3   18      0.13      0.00
   -6   -3   18     -0.77      0.00
   -5   -3   18      2.14      0.00
   -4   -3   18      1.29      0.00
   -3   -3   18      0.14      0.00
   -2   -3   18      1.77      0.00
   -1   -3   18     -1.69      0.00
    0   -3   18      5.92      0.00
    1   -3   18     -3.52      0.00
    2   -3   18      1.86      0.00
    3   -3   18      0.29      0.00
    4   -3   18     -3.40      0.00
    5   -3   18      1.01      0.00
    6   -3   18     -2.12      0.00
    7   -3   18     -1.27      0.00
    8   -3   18     -5.44      0.00
    9   -3   18      1.75      0.00
   10   -3   18      6.31      0.00
   11   -3   18      0.71      0.00
   12   -3   18      1.57      0.00
   13   -3   18      3.78      0.00
   14   -3   18     -1.37      0.00
   15   -3   18      1.39      0.00
   16   -3   18     -0.11      0.00
   -8   -2   18      0.13      0.00
   -7   -2   18     -0.24      0.00
   -6   -2   18      0.95      0.00
   -5   -2   18      2.76      0.00
   -4   -2   18     -0.33      0.00
   -3   -2   18     -1.42      0.00
   -2   -2   18      4.74      0.00
   -1   -2   18     -3.57      0.00
    0   -2   18     -1.04      0.00
    1   -2   18      1.54      0.00
    2   -2   18      1.16      0.00
    3   -2   18     -0.60      0.00
    4   -2   18     -1.97      0.00
    5   -2   18      5.14      0.00
    6   -2   18     -0.29      0.00
    7   -2   18     -4.98      0.00
    8   -2   18     -1.88      0.00
    9   -2   18     -1.73      0.00
   10   -2   18      1.40      0.00
   11   -2   18      0.54      0.00
   12   -2   18      5.59      0.00
   13   -2   18      2.33      0.00
   14   -2   18     -4.20      0.00
   15   -2   18      5.57      0.00
   16   -2   18      0.66      0.00
   17   -2   18     -1.82      0.00
   -8   -1   18     -2.63      0.00
   -7   -1   18      2.18      0.00
   -6   -1   18      2.51      0.00
   -5   -1   18      0.64      0.00
   -4   -1   18      0.78      0.00
   -3   -1   18     -1.63      0.00
   -2   -1   18      2.80      0.00
   -1   -1   18     -0.56      0.00
    0   -1   18     -1.21      0.00
    1   -1   18     -2.11      0.00
    2   -1   18      1.07      0.00
    3   -1   18     -2.74      0.00
    4   -1   18      2.45      0.00
    5   -1   18      6.17      0.00
    6   -1   18     -2.32      0.00
    7   -1   18     -2.72      0.00
    8   -1   18      0.54      0.00
    9   -1   18      1.55      0.00
   10   -1   18     -2.42      0.00
   11   -1   18     -1.40      0.00
   12   -1   18      2.65      0.00
   13   -1   18      0.55      0.00
   14   -1   18     -0.58      0.00
   15   -1   18      1.71      0.00
   16   -1   18      2.50      0.00
   17   -1   18      1.31      0.00
   -7    0   18     -0.59      0.00
   -6    0   18      3.79      0.00
   -5    0   18      0.07      0.00
   -4    0   18      0.91      0.00
   -3    0   18      0.30      0.00
   -2    0   18      0.76      0.00
   -1    0   18     -4.08      0.00
    0    0   18      2.77      0.00
    1    0   18      0.86      0.00
    2    0   18     -4.27      0.00
    3    0   18      0.45      0.00
    4    0   18      1.34      0.00
    5    0   18      5.64      0.00
    6    0   18     -4.01      0.00
    7    0   18     -1.64      0.00
    8    0   18      4.06      0.00
    9    0   18     -2.15      0.00
   10    0   18      1.47      0.00
   11    0   18      0.51      0.00
   12    0   18     -3.38      0.00
   13    0   18      1.15      0.00
   14    0   18     -4.65      0.00
   15    0   18      4.50      0.00
   16    0   18      2.95      0.00
   17    0   18     -2.70      0.00
   18    0   18      3.34      0.00
   -7    1   18     -0.98      0.00
   -6    1   18     -0.32      0.00
   -5    1   18      0.75      0.00
   -4    1   18      0.90      0.00
   -3    1   18      1.74      0.00
   -2    1   18      1.41      0.00
   -1    1   18     -5.59      0.00
    0    1   18     -0.79      0.00
    1    1   18      2.00      0.00
    2    1   18     -1.12      0.00
    3    1   18      1.66      0.00
    4    1   18      1.04      0.00
    5    1   18     -1.78      0.00
    6    1   18     -0.32      0.00
    7    1   18      0.89      0.00
    8    1   18     -0.58      0.00
    9    1   18     -0.96      0.00
   10    1   18      1.92      0.00
   11    1   18      0.45      0.00
   12    1   18     -2.73      0.00
   13    1   18     -1.96      0.00
   14    1   18     -2.96      0.00
   15    1   18      0.21      0.00
   16    1   18      3.75      0.00
   17    1   18     -1.33      0.00
   18    1   18      2.00      0.00
   -7    2   18      0.11      0.00
   -6    2   18      0.23      0.00
   -5    2   18     -0.35      0.00
   -4    2   18      0.44      0.00
   -3    2   18      0.44      0.00
   -2    2   18      1.09      0.00
   -1    2   18     -0.83      0.00
    0    2   18     -1.15      0.00
    1    2   18     -2.78      0.00
    2    2   18      2.11      0.00
    3    2   18      3.97      0.00
    4    2   18     -5.72      0.00
    5    2   18     -0.54      0.00
    6    2   18     -1.19      0.00
    7    2   18      0.36      0.00
    8    2   18      2.35      0.00
    9    2   18     -1.56      0.00
   10    2   18      0.38      0.00
   11    2   18     -0.99      0.00
   12    2   18     -4.13      0.00
   13    2   18     -0.37      0.00
   14    2   18     -3.80      0.00
   15    2   18      2.66      0.00
   16    2   18     -2.78      0.00
   17    2   18      1.07      0.00
   18    2   18      3.72      0.00
   -6    3   18     -1.04      0.00
   -5    3   18      2.31      0.00
   -4    3   18      0.15      0.00
   -3    3   18      0.12      0.00
   -2    3   18      0.02      0.00
   -1    3   18     -0.81      0.00
    0    3   18      2.61      0.00
    1    3   18     -0.47      0.00
    2    3   18      0.48      0.00
    3    3   18      2.04      0.00
    4    3   18     -5.86      0.00
    5    3   18     -0.84      0.00
    6    3   18     -0.28      0.00
    7    3   18     -3.44      0.00
    8    3   18      4.72      0.00
    9    3   18      1.32      0.00
   10    3   18     -1.76      0.00
   11    3   18     -3.24      0.00
   12    3   18     -3.32      0.00
   13    3   18      0.11      0.00
   14    3   18     -2.31      0.00
   15    3   18     -0.55      0.00
   16    3   18      1.58      0.00
   17    3   18     -2.08      0.00
   18    3   18      2.22      0.00
   19    3   18      0.83      0.00
   -5    4   18     -1.34      0.00
   -4    4   18     -0.27      0.00
   -3    4   18      2.94      0.00
   -2    4   18      1.39      0.00
   -1    4   18      0.09      0.00
    0    4   18     -1.88      0.00
    1    4   18      3.31      0.00
    2    4   18      4.73      0.00
    3    4   18     -3.37      0.00
    4    4   18     -2.77      0.00
    5    4   18      0.80      0.00
    6    4   18     -3.00      0.00
    7    4   18      0.22      0.00
    8    4   18      3.40      0.00
    9    4   18     -0.75      0.00
   10    4   18     -0.34      0.00
   11    4   18      0.04      0.00
   12    4   18     -2.93      0.00
   13    4   18     -1.91      0.00
   14    4   18     -1.14      0.00
   15    4   18      1.62      0.00
   16    4   18     -4.92      0.00
   17    4   18      4.46      0.00
   18    4   18      0.82      0.00
   19    4   18     -3.26      0.00
   -5    5   18      1.22      0.00
   -4    5   18     -2.25      0.00
   -3    5   18      0.63      0.00
   -2    5   18      3.08      0.00
   -1    5   18      1.48      0.00
    0    5   18      0.77      0.00
    1    5   18      1.08      0.00
    2    5   18      3.20      0.00
    3    5   18     -1.41      0.00
    4    5   18     -2.04      0.00
    5    5   18      0.83      0.00
    6    5   18     -1.51      0.00
    7    5   18      1.40      0.00
    8    5   18      5.05      0.00
    9    5   18     -1.30      0.00
   10    5   18     -3.44      0.00
   11    5   18      3.95      0.00
   12    5   18      3.22      0.00
   13    5   18     -3.27      0.00
   14    5   18     -0.91      0.00
   15    5   18     -0.66      0.00
   16    5   18     -2.53      0.00
   17    5   18     -0.55      0.00
   18    5   18      1.51      0.00
   19    5   18     -1.39      0.00
   -4    6   18      2.20      0.00
   -3    6   18      0.85      0.00
   -2    6   18      0.35      0.00
   -1    6   18     -0.61      0.00
    0    6   18      4.08      0.00
    1    6   18      6.41      0.00
    2    6   18     -3.11      0.00
    3    6   18     -4.71      0.00
    4    6   18      3.49      0.00
    5    6   18     -0.15      0.00
    6    6   18      1.12      0.00
    7    6   18      2.18      0.00
    8    6   18      0.57      0.00
    9    6   18      0.95      0.00
   10    6   18     -1.20      0.00
   11    6   18      2.43      0.00
   12    6   18      1.77      0.00
   13    6   18      6.74      0.00
   14    6   18      0.75      0.00
   15    6   18     -3.80      0.00
   16    6   18     -3.70      0.00
   17    6   18      0.48      0.00
   18    6   18     -5.62      0.00
   19    6   18      1.51      0.00
   -3    7   18      2.05      0.00
   -2    7   18      2.07      0.00
   -1    7   18      0.60      0.00
    0    7   18      0.78      0.00
    1    7   18      2.77      0.00
    2    7   18      2.35      0.00
    3    7   18     -3.14      0.00
    4    7   18     -1.01      0.00
    5    7   18      1.63      0.00
    6    7   18      4.26      0.00
    7    7   18      1.55      0.00
    8    7   18     -2.84      0.00
    9    7   18     -0.76      0.00
   10    7   18      1.40      0.00
   11    7   18      0.59      0.00
   12    7   18      1.67      0.00
   13    7   18      6.01      0.00
   14    7   18      5.27      0.00
   15    7   18     -0.08      0.00
   16    7   18     -4.35      0.00
   17    7   18     -4.32      0.00
   18    7   18     -2.03      0.00
   19    7   18     -2.34      0.00
   20    7   18      2.85      0.00
   -3    8   18     -1.78      0.00
   -2    8   18      1.68      0.00
   -1    8   18      2.96      0.00
    0    8   18      1.63      0.00
    1    8   18     -3.43      0.00
    2    8   18      2.33      0.00
    3    8   18      2.70      0.00
    4    8   18     -1.41      0.00
    5    8   18      0.33      0.00
    6    8   18      3.29      0.00
    7    8   18     -0.27      0.00
    8    8   18     -0.66      0.00
    9    8   18      1.27      0.00
   10    8   18     -4.75      0.00
   11    8   18      1.64      0.00
   12    8   18      1.63      0.00
   13    8   18      3.42      0.00
   14    8   18      1.41      0.00
   15    8   18      3.06      0.00
   16    8   18     -1.99      0.00
   17    8   18     -1.02      0.00
   18    8   18     -5.55      0.00
   19    8   18      0.59      0.00
   20    8   18      1.03      0.00
   -2    9   18      1.65      0.00
   -1    9   18      1.84      0.00
    0    9   18     -1.30      0.00
    1    9   18      1.19      0.00
    2    9   18      0.68      0.00
    3    9   18      0.06      0.00
    4    9   18     -1.20      0.00
    5    9   18      2.46      0.00
    6    9   18      2.87      0.00
    7    9   18     -2.48      0.00
    8    9   18     -2.22      0.00
    9    9   18      2.14      0.00
   10    9   18      0.02      0.00
   11    9   18     -1.27      0.00
   12    9   18      1.72      0.00
   13    9   18     -3.43      0.00
   14    9   18      0.26      0.00
   15    9   18      2.05      0.00
   16    9   18      2.56      0.00
   17    9   18     -1.12      0.00
   18    9   18     -3.13      0.00
   19    9   18     -0.37      0.00
   20    9   18     -0.36      0.00
   -1   10   18      2.66      0.00
    0   10   18      1.17      0.00
    1   10   18     -1.35      0.00
    2   10   18      2.08      0.00
    3   10   18     -0.71      0.00
    4   10   18     -1.50      0.00
    5   10   18      1.69      0.00
    6   10   18      1.15      0.00
    7   10   18     -0.07      0.00
    8   10   18     -2.09      0.00
    9   10   18     -1.45      0.00
   10   10   18     -0.11      0.00
   11   10   18      5.20      0.00
   12   10   18     -1.07      0.00
   13   10   18     -2.08      0.00
   14   10   18     -4.60      0.00
   15   10   18      2.68      0.00
   16   10   18      2.60      0.00
   17   10   18      1.74      0.00
   18   10   18     -1.65      0.00
   19   10   18     -2.31      0.00
   20   10   18     -3.01      0.00
    0   11   18      1.57      0.00
    1   11   18      4.25      0.00
    2   11   18     -3.33      0.00
    3   11   18      0.52      0.00
    4   11   18     -0.61      0.00
    5   11   18      4.45      0.00
    6   11   18     -2.83      0.00
    7   11   18     -1.32      0.00
    8   11   18      2.24      0.00
    9   11   18     -1.14      0.00
   10   11   18     -2.33      0.00
   11   11   18     -1.70      0.00
   12   11   18      5.44      0.00
   13   11   18      1.81      0.00
   14   11   18      1.73      0.00
   15   11   18     -3.58      0.00
   16   11   18      2.61      0.00
   17   11   18      1.70      0.00
   18   11   18      0.52      0.00
   19   11   18     -2.58      0.00
    2   12   18     -0.25      0.00
    3   12   18      3.37      0.00
    4   12   18      0.09      0.00
    5   12   18     -0.52      0.00
    6   12   18     -0.30      0.00
    7   12   18      2.46      0.00
    8   12   18      0.15      0.00
    9   12   18     -4.13      0.00
   10   12   18      0.82      0.00
   11   12   18     -0.45      0.00
   12   12   18     -1.48      0.00
   13   12   18      6.78      0.00
   14   12   18      1.41      0.00
   15   12   18      2.71      0.00
   16   12   18      2.53      0.00
   17   12   18      2.56      0.00
   18   12   18     -2.91      0.00
   19   12   18     -1.41      0.00
    3   13   18      8.85      0.00
    4   13   18      1.13      0.00
    5   13   18     -2.70      0.00
    6   13   18     -1.40      0.00
    7   13   18      5.98      0.00
    8   13   18     -2.67      0.00
    9   13   18     -2.96      0.00
   10   13   18      0.80      0.00
   11   13   18     -0.47      0.00
   12   13   18      2.21      0.00
   13   13   18      0.32      0.00
   14   13   18      0.10      0.00
   15   13   18      0.40      0.00
   16   13   18      6.35      0.00
   17   13   18      2.63      0.00
   18   13   18      2.66      0.00
   19   13   18     -4.29      0.00
    4   14   18     -1.86      0.00
    5   14   18      4.51      0.00
    6   14   18      2.47      0.00
    7   14   18     -4.72      0.00
    8   14   18      1.35      0.00
    9   14   18      0.28      0.00
   10   14   18      0.89      0.00
   11   14   18     -2.27      0.00
   12   14   18     -0.99      0.00
   13   14   18      1.71      0.00
   14   14   18     -2.49      0.00
   15   14   18      3.05      0.00
   16   14   18     -3.93      0.00
   17   14   18     -0.69      0.00
   18   14   18      5.51      0.00
    6   15   18      4.22      0.00
    7   15   18     -4.62      0.00
    8   15   18     -0.88      0.00
    9   15   18      4.93      0.00
   10   15   18     -1.47      0.00
   11   15   18     -0.83      0.00
   12   15   18     -1.80      0.00
   13   15   18     -3.00      0.00
   14   15   18     -2.41      0.00
   15   15   18      3.39      0.00
   16   15   18     -2.85      0.00
   17   15   18     -8.29      0.00
    9   16   18     -3.11      0.00
   10   16   18      3.14      0.00
   11   16   18     -0.80      0.00
   12   16   18     -2.20      0.00
   13   16   18     -2.66      0.00
   14   16   18     -2.63      0.00
   15   16   18      1.08      0.00
   16   16   18     -6.11      0.00
   -4  -15   19      0.59      0.00
   -3  -15   19     -0.92      0.00
   -2  -15   19      1.23      0.00
   -1  -15   19     -1.01      0.00
    0  -15   19     -2.61      0.00
    1  -15   19      4.12      0.00
    2  -15   19      1.55      0.00
   -6  -14   19     -4.74      0.00
   -5  -14   19      1.55      0.00
   -4  -14   19     -0.49      0.00
   -3  -14   19      2.40      0.00
   -2  -14   19     -0.07      0.00
   -1  -14   19     -2.21      0.00
    0  -14   19      2.59      0.00
    1  -14   19     -0.94      0.00
    2  -14   19      2.30      0.00
    3  -14   19     -2.16      0.00
    4  -14   19      2.20      0.00
   -7  -13   19     -1.56      0.00
   -6  -13   19     -1.36      0.00
   -5  -13   19      0.90      0.00
   -4  -13   19     -2.75      0.00
   -3  -13   19     -1.35      0.00
   -2  -13   19      0.05      0.00
   -1  -13   19      0.11      0.00
    0  -13   19      2.31      0.00
    1  -13   19      1.19      0.00
    2  -13   19     -2.50      0.00
    3  -13   19     -0.66      0.00
    4  -13   19      3.28      0.00
    5  -13   19      4.94      0.00
    6  -13   19     -1.35      0.00
   -7  -12   19     -0.18      0.00
   -6  -12   19      0.58      0.00
   -5  -12   19      2.06      0.00
   -4  -12   19     -5.78      0.00
   -3  -12   19      1.26      0.00
   -2  -12   19     -2.02      0.00
   -1  -12   19     -3.58      0.00
    0  -12   19      2.40      0.00
    1  -12   19      0.47      0.00
    2  -12   19     -0.23      0.00
    3  -12   19     -0.01      0.00
    4  -12   19      1.70      0.00
    5  -12   19      2.96      0.00
    6  -12   19      0.41      0.00
    7  -12   19      4.79      0.00
    8  -12   19     -0.97      0.00
   -8  -11   19     -2.03      0.00
   -7  -11   19     -0.53      0.00
   -6  -11   19      2.57      0.00
   -5  -11   19      1.24      0.00
   -4  -11   19     -6.29      0.00
   -3  -11   19      1.37      0.00
   -2  -11   19     -0.78      0.00
   -1  -11   19     -3.04      0.00
    0  -11   19      2.17      0.00
    1  -11   19     -3.68      0.00
    2  -11   19     -0.26      0.00
    3  -11   19      3.23      0.00
    4  -11   19      1.86      0.00
    5  -11   19     -2.14      0.00
    6  -11   19     -4.62      0.00
    7  -11   19      9.73      0.00
    8  -11   19      1.69      0.00
    9  -11   19      0.83      0.00
   -8  -10   19      0.48      0.00
   -7  -10   19      0.35      0.00
   -6  -10   19      3.63      0.00
   -5  -10   19     -1.72      0.00
   -4  -10   19     -4.85      0.00
   -3  -10   19      1.97      0.00
   -2  -10   19     -3.07      0.00
   -1  -10   19      3.17      0.00
    0  -10   19      1.29      0.00
    1  -10   19     -5.31      0.00
    2  -10   19      2.24      0.00
    3  -10   19     -0.35      0.00
    4  -10   19     -0.94      0.00
    5  -10   19      2.47      0.00
    6  -10   19     -5.55      0.00
    7  -10   19      3.04      0.00
    8  -10   19     -0.57      0.00
    9  -10   19      2.32      0.00
   10  -10   19      8.69      0.00
   -8   -9   19     -1.93      0.00
   -7   -9   19      5.60      0.00
   -6   -9   19      2.92      0.00
   -5   -9   19     -2.95      0.00
   -4   -9   19     -4.23      0.00
   -3   -9   19      1.51      0.00
   -2   -9   19      1.80      0.00
   -1   -9   19      1.75      0.00
    0   -9   19     -0.88      0.00
    1   -9   19     -3.18      0.00
    2   -9   19      3.25      0.00
    3   -9   19      0.50      0.00
    4   -9   19     -0.54      0.00
    5   -9   19     -3.26      0.00
    6   -9   19      1.41      0.00
    7   -9   19      1.17      0.00
    8   -9   19     -6.26      0.00
    9   -9   19      1.91      0.00
   10   -9   19      1.28      0.00
   11   -9   19      5.21      0.00
   -8   -8   19      2.59      0.00
   -7   -8   19      3.07      0.00
   -6   -8   19      1.73      0.00
   -5   -8   19     -1.00      0.00
   -4   -8   19     -0.96      0.00
   -3   -8   19     -0.42      0.00
   -2   -8   19      0.54      0.00
   -1   -8   19      2.95      0.00
    0   -8   19     -1.87      0.00
    1   -8   19     -1.91      0.00
    2   -8   19      3.49      0.00
    3   -8   19     -1.62      0.00
    4   -8   19      2.79      0.00
    5   -8   19     -2.01      0.00
    6   -8   19     -2.16      0.00
    7   -8   19      2.74      0.00
    8   -8   19     -3.30      0.00
    9   -8   19     -2.33      0.00
   10   -8   19     -0.18      0.00
   11   -8   19     -0.76      0.00
   12   -8   19      3.85      0.00
   -8   -7   19      3.28      0.00
   -7   -7   19      2.31      0.00
   -6   -7   19     -0.70      0.00
   -5   -7   19      2.26      0.00
   -4   -7   19     -1.44      0.00
   -3   -7   19      1.91      0.00
   -2   -7   19     -1.78      0.00
   -1   -7   19     -2.22      0.00
    0   -7   19      1.49      0.00
    1   -7   19     -1.21      0.00
    2   -7   19      3.48      0.00
    3   -7   19     -3.40      0.00
    4   -7   19      1.31      0.00
    5   -7   19      0.49      0.00
    6   -7   19     -0.16      0.00
    7   -7   19     -0.72      0.00
    8   -7   19      0.67      0.00
    9   -7   19     -4.85      0.00
   10   -7   19     -3.01      0.00
   11   -7   19      5.69      0.00
   12   -7   19     -1.45      0.00
   13   -7   19      1.21      0.00
   -8   -6   19      0.76      0.00
   -7   -6   19     -1.19      0.00
   -6   -6   19      0.96      0.00
   -5   -6   19      0.25      0.00
   -4   -6   19      2.27      0.00
   -3   -6   19     -0.43      0.00
   -2   -6   19     -1.50      0.00
   -1   -6   19     -1.24      0.00
    0   -6   19     -3.82      0.00
    1   -6   19      1.17      0.00
    2   -6   19      2.14      0.00
    3   -6   19     -4.56      0.00
    4   -6   19      5.89      0.00
    5   -6   19     -0.14      0.00
    6   -6   19     -3.18      0.00
    7   -6   19     -2.73      0.00
    8   -6   19      3.94      0.00
    9   -6   19     -2.90      0.00
   10   -6   19     -2.59      0.00
   11   -6   19      2.95      0.00
   12   -6   19      1.61      0.00
   13   -6   19     -1.82      0.00
   14   -6   19      0.76      0.00
   -8   -5   19      0.67      0.00
   -7   -5   19     -1.07      0.00
   -6   -5   19     -1.80      0.00
   -5   -5   19      0.92      0.00
   -4   -5   19      0.66      0.00
   -3   -5   19      2.83      0.00
   -2   -5   19     -2.84      0.00
   -1   -5   19     -4.30      0.00
    0   -5   19     -0.39      0.00
    1   -5   19     -1.32      0.00
    2   -5   19      1.17      0.00
    3   -5   19     -4.46      0.00
    4   -5   19      6.94      0.00
    5   -5   19      0.75      0.00
    6   -5   19     -2.05      0.00
    7   -5   19     -1.96      0.00
    8   -5   19      0.02      0.00
    9   -5   19      1.24      0.00
   10   -5   19      1.87      0.00
   11   -5   19     -1.69      0.00
   12   -5   19     -4.98      0.00
   13   -5   19      2.97      0.00
   14   -5   19      2.54      0.00
   -8   -4   19      0.52      0.00
   -7   -4   19     -1.11      0.00
   -6   -4   19     -1.32      0.00
   -5   -4   19      2.91      0.00
   -4   -4   19     -2.65      0.00
   -3   -4   19      1.17      0.00
   -2   -4   19      0.61      0.00
   -1   -4   19     -3.99      0.00
    0   -4   19     -1.99      0.00
    1   -4   19     -1.25      0.00
    2   -4   19      2.14      0.00
    3   -4   19     -4.20      0.00
    4   -4   19      2.06      0.00
    5   -4   19      1.81      0.00
    6   -4   19      0.40      0.00
    7   -4   19      2.83      0.00
    8   -4   19      1.67      0.00
    9   -4   19     -0.96      0.00
   10   -4   19      1.32      0.00
   11   -4   19     -5.23      0.00
   12   -4   19      0.58      0.00
   13   -4   19     -1.19      0.00
   14   -4   19      0.11      0.00
   15   -4   19      1.67      0.00
   -8   -3   19     -0.12      0.00
   -7   -3   19     -1.02      0.00
   -6   -3   19      0.40      0.00
   -5   -3   19     -0.04      0.00
   -4   -3   19     -1.46      0.00
   -3   -3   19      0.22      0.00
   -2   -3   19     -2.38      0.00
   -1   -3   19      2.46      0.00
    0   -3   19     -1.39      0.00
    1   -3   19     -2.26      0.00
    2   -3   19      0.90      0.00
    3   -3   19     -4.10      0.00
    4   -3   19      2.95      0.00
    5   -3   19     -2.21      0.00
    6   -3   19      2.38      0.00
    7   -3   19      1.34      0.00
    8   -3   19      1.60      0.00
    9   -3   19      8.20      0.00
   10   -3   19     -5.41      0.00
   11   -3   19     -3.17      0.00
   12   -3   19      3.48      0.00
   13   -3   19     -4.74      0.00
   14   -3   19      0.03      0.00
   15   -3   19     -1.38      0.00
   16   -3   19     -0.12      0.00
   -7   -2   19     -0.03      0.00
   -6   -2   19      0.59      0.00
   -5   -2   19     -2.15      0.00
   -4   -2   19     -3.09      0.00
   -3   -2   19      2.33      0.00
   -2   -2   19     -2.58      0.00
   -1   -2   19     -1.28      0.00
    0   -2   19      2.80      0.00
    1   -2   19      0.90      0.00
    2   -2   19     -0.74      0.00
    3   -2   19     -4.10      0.00
    4   -2   19      4.16      0.00
    5   -2   19     -2.72      0.00
    6   -2   19     -3.16      0.00
    7   -2   19      2.97      0.00
    8   -2   19      0.69      0.00
    9   -2   19      3.53      0.00
   10   -2   19      1.56      0.00
   11   -2   19      0.97      0.00
   12   -2   19      0.79      0.00
   13   -2   19     -7.90      0.00
   14   -2   19      3.46      0.00
   15   -2   19     -1.00      0.00
   16   -2   19     -4.07      0.00
   -7   -1   19      2.27      0.00
   -6   -1   19     -3.00      0.00
   -5   -1   19     -0.34      0.00
   -4   -1   19     -2.27      0.00
   -3   -1   19      0.55      0.00
   -2   -1   19     -0.20      0.00
   -1   -1   19     -2.94      0.00
    0   -1   19      0.89      0.00
    1   -1   19      1.47      0.00
    2   -1   19     -0.75      0.00
    3   -1   19      1.68      0.00
    4   -1   19      1.75      0.00
    5   -1   19     -5.58      0.00
    6   -1   19     -1.90      0.00
    7   -1   19      2.35      0.00
    8   -1   19      1.51      0.00
    9   -1   19     -0.38      0.00
   10   -1   19     -1.08      0.00
   11   -1   19      6.10      0.00
   12   -1   19     -0.50      0.00
   13   -1   19     -4.98      0.00
   14   -1   19      3.92      0.00
   15   -1   19     -2.98      0.00
   16   -1   19     -0.67      0.00
   17   -1   19     -2.53      0.00
   -7    0   19      3.56      0.00
   -6    0   19     -1.88      0.00
   -5    0   19     -1.65      0.00
   -4    0   19     -0.02      0.00
   -3    0   19     -0.14      0.00
   -2    0   19     -2.29      0.00
   -1    0   19      1.40      0.00
    0    0   19      1.79      0.00
    1    0   19     -3.82      0.00
    2    0   19      1.16      0.00
    3    0   19      1.26      0.00
    4    0   19      1.53      0.00
    5    0   19     -4.38      0.00
    6    0   19     -2.78      0.00
    7    0   19      4.71      0.00
    8    0   19     -1.08      0.00
    9    0   19      0.75      0.00
   10    0   19      1.30      0.00
   11    0   19     -2.50      0.00
   12    0   19      4.60      0.00
   13    0   19     -1.80      0.00
   14    0   19      1.84      0.00
   15    0   19      1.59      0.00
   16    0   19     -6.16      0.00
   17    0   19     -0.09      0.00
   -6    1   19     -0.56      0.00
   -5    1   19      1.16      0.00
   -4    1   19     -1.54      0.00
   -3    1   19      0.35      0.00
   -2    1   19     -3.44      0.00
   -1    1   19     -0.34      0.00
    0    1   19      5.12      0.00
    1    1   19     -0.76      0.00
    2    1   19     -1.17      0.00
    3    1   19     -1.01      0.00
    4    1   19     -1.41      0.00
    5    1   19     -0.50      0.00
    6    1   19      0.80      0.00
    7    1   19      0.33      0.00
    8    1   19      0.02      0.00
    9    1   19      1.59      0.00
   10    1   19      1.07      0.00
   11    1   19     -1.41      0.00
   12    1   19      0.61      0.00
   13    1   19      2.30      0.00
   14    1   19      2.84      0.00
   15    1   19     -0.82      0.00
   16    1   19     -1.44      0.00
   17    1   19     -2.86      0.00
   18    1   19     -0.30      0.00
   -6    2   19     -0.48      0.00
   -5    2   19     -0.14      0.00
   -4    2   19      0.20      0.00
   -3    2   19     -0.94      0.00
   -2    2   19     -2.06      0.00
   -1    2   19     -0.53      0.00
    0    2   19      1.89      0.00
    1    2   19      0.04      0.00
    2    2   19      1.22      0.00
    3    2   19     -4.16      0.00
    4    2   19     -1.88      0.00
    5    2   19      1.95      0.00
    6    2   19      2.31      0.00
    7    2   19      2.11      0.00
    8    2   19     -2.77      0.00
    9    2   19      0.03      0.00
   10    2   19      1.06      0.00
   11    2   19     -1.73      0.00
   12    2   19      3.63      0.00
   13    2   19      0.34      0.00
   14    2   19      3.51      0.00
   15    2   19     -0.11      0.00
   16    2   19     -3.66      0.00
   17    2   19      2.92      0.00
   18    2   19     -3.39      0.00
   -5    3   19      0.23      0.00
   -4    3   19     -1.88      0.00
   -3    3   19     -1.14      0.00
   -2    3   19     -2.01      0.00
   -1    3   19      1.69      0.00
    0    3   19      0.92      0.00
    1    3   19     -3.83      0.00
    2    3   19     -0.33      0.00
    3    3   19     -3.12      0.00
    4    3   19     -0.30      0.00
    5    3   19      3.72      0.00
    6    3   19     -0.28      0.00
    7    3   19      3.12      0.00
    8    3   19     -0.97      0.00
    9    3   19     -2.64      0.00
   10    3   19     -1.03      0.00
   11    3   19     -1.11      0.00
   12    3   19      4.07      0.00
   13    3   19      1.86      0.00
   14    3   19      0.05      0.00
   15    3   19      1.40      0.00
   16    3   19     -1.62      0.00
   17    3   19     -1.59      0.00
   18    3   19     -0.46      0.00
   -4    4   19      2.32      0.00
   -3    4   19     -3.03      0.00
   -2    4   19     -1.42      0.00
   -1    4   19     -2.12      0.00
    0    4   19      0.47      0.00
    1    4   19      0.72      0.00
    2    4   19     -5.02      0.00
    3    4   19     -3.21      0.00
    4    4   19      3.47      0.00
    5    4   19      0.83      0.00
    6    4   19     -0.65      0.00
    7    4   19      2.52      0.00
    8    4   19     -2.62      0.00
    9    4   19     -1.28      0.00
   10    4   19      0.32      0.00
   11    4   19     -1.91      0.00
   12    4   19     -0.99      0.00
   13    4   19      1.22      0.00
   14    4   19      2.87      0.00
   15    4   19     -2.51      0.00
   16    4   19      1.97      0.00
   17    4   19      0.81      0.00
   18    4   19     -7.07      0.00
   19    4   19      1.03      0.00
   -4    5   19     -0.26      0.00
   -3    5   19      1.14      0.00
   -2    5   19     -1.34      0.00
   -1    5   19     -3.12      0.00
    0    5   19     -1.82      0.00
    1    5   19     -1.71      0.00
    2    5   19     -1.75      0.00
    3    5   19     -0.54      0.00
    4    5   19      1.28      0.00
    5    5   19     -0.17      0.00
    6    5   19     -0.98      0.00
    7    5   19      2.45      0.00
    8    5   19     -4.43      0.00
    9    5   19     -1.45      0.00
   10    5   19      2.02      0.00
   11    5   19      1.98      0.00
   12    5   19     -6.21      0.00
   13    5   19     -3.48      0.00
   14    5   19      1.13      0.00
   15    5   19     -0.54      0.00
   16    5   19      2.34      0.00
   17    5   19     -0.14      0.00
   18    5   19     -0.71      0.00
   19    5   19     -1.45      0.00
   -3    6   19     -2.50      0.00
   -2    6   19      0.27      0.00
   -1    6   19     -0.61      0.00
    0    6   19     -0.24      0.00
    1    6   19     -5.53      0.00
    2    6   19     -6.13      0.00
    3    6   19      6.91      0.00
    4    6   19      0.82      0.00
    5    6   19     -1.89      0.00
    6    6   19     -0.94      0.00
    7    6   19     -2.65      0.00
    8    6   19     -1.77      0.00
    9    6   19      1.17      0.00
   10    6   19      1.38      0.00
   11    6   19      1.24      0.00
   12    6   19     -0.34      0.00
   13    6   19     -4.66      0.00
   14    6   19     -6.60      0.00
   15    6   19     -1.60      0.00
   16    6   19      3.16      0.00
   17    6   19     -1.31      0.00
   18    6   19      3.02      0.00
   19    6   19      2.69      0.00
   -2    7   19     -0.57      0.00
   -1    7   19     -2.06      0.00
    0    7   19     -0.54      0.00
    1    7   19     -0.19      0.00
    2    7   19     -6.14      0.00
    3    7   19      0.97      0.00
    4    7   19      3.59      0.00
    5    7   19     -0.21      0.00
    6    7   19     -3.00      0.00
    7    7   19     -3.98      0.00
    8    7   19     -3.84      0.00
    9    7   19      4.85      0.00
   10    7   19      1.77      0.00
   11    7   19      0.30      0.00
   12    7   19      2.77      0.00
   13    7   19      0.02      0.00
   14    7   19     -5.49      0.00
   15    7   19     -5.56      0.00
   16    7   19      0.57      0.00
   17    7   19      0.38      0.00
   18    7   19      2.79      0.00
   19    7   19      3.36      0.00
   -1    8   19     -0.59      0.00
    0    8   19     -3.35      0.00
    1    8   19     -0.79      0.00
    2    8   19      0.27      0.00
    3    8   19      0.89      0.00
    4    8   19     -4.49      0.00
    5    8   19      3.17      0.00
    6    8   19     -1.74      0.00
    7    8   19     -3.60      0.00
    8    8   19      0.56      0.00
    9    8   19     -2.38      0.00
   10    8   19      1.17      0.00
   11    8   19      4.68      0.00
   12    8   19      2.11      0.00
   13    8   19     -1.03      0.00
   14    8   19      2.29      0.00
   15    8   19     -1.96      0.00
   16    8   19     -0.32      0.00
   17    8   19     -0.80      0.00
   18    8   19      2.53      0.00
   19    8   19      2.98      0.00
   -1    9   19     -1.77      0.00
    0    9   19     -2.52      0.00
    1    9   19      0.49      0.00
    2    9   19     -2.36      0.00
    3    9   19     -1.45      0.00
    4    9   19      0.25      0.00
    5    9   19      1.44      0.00
    6    9   19     -2.94      0.00
    7    9   19     -1.39      0.00
    8    9   19      2.80      0.00
    9    9   19      0.26      0.00
   10    9   19     -2.55      0.00
   11    9   19      1.53      0.00
   12    9   19      0.82      0.00
   13    9   19      0.29      0.00
   14    9   19      6.50      0.00
   15    9   19      2.18      0.00
   16    9   19      0.57      0.00
   17    9   19     -1.15      0.00
   18    9   19      2.96      0.00
   19    9   19      1.30      0.00
    0   10   19     -4.76      0.00
    1   10   19      1.98      0.00
    2   10   19     -2.98      0.00
    3   10   19     -3.68      0.00
    4   10   19     -0.01      0.00
    5   10   19      2.26      0.00
    6   10   19     -3.17      0.00
    7   10   19      0.91      0.00
    8   10   19      0.85      0.00
    9   10   19      0.49      0.00
   10   10   19      5.02      0.00
   11   10   19     -3.76      0.00
   12   10   19     -3.29      0.00
   13   10   19      1.26      0.00
   14   10   19      5.82      0.00
   15   10   19      4.16      0.00
   16   10   19      0.50      0.00
   17   10   19      0.45      0.00
   18   10   19     -0.13      0.00
   19   10   19      1.41      0.00
    2   11   19     -3.45      0.00
    3   11   19      0.90      0.00
    4   11   19     -0.51      0.00
    5   11   19     -4.80      0.00
    6   11   19      0.33      0.00
    7   11   19      2.37      0.00
    8   11   19      0.47      0.00
    9   11   19      0.33      0.00
   10   11   19     -0.16      0.00
   11   11   19      3.22      0.00
   12   11   19      3.41      0.00
   13   11   19     -5.06      0.00
   14   11   19     -1.19      0.00
   15   11   19      3.23      0.00
   16   11   19      1.72      0.00
   17   11   19      0.13      0.00
   18   11   19     -0.09      0.00
   19   11   19      1.69      0.00
    3   12   19     -2.10      0.00
    4   12   19     -3.34      0.00
    5   12   19      0.67      0.00
    6   12   19     -1.91      0.00
    7   12   19      1.22      0.00
    8   12   19      0.12      0.00
    9   12   19      1.59      0.00
   10   12   19      1.36      0.00
   11   12   19      0.72      0.00
   12   12   19      4.38      0.00
   13   12   19     -0.70      0.00
   14   12   19     -1.58      0.00
   15   12   19     -0.46      0.00
   16   12   19     -2.35      0.00
   17   12   19      0.19      0.00
   18   12   19     -0.96      0.00
    4   13   19     -4.06      0.00
    5   13   19     -2.39      0.00
    6   13   19      3.97      0.00
    7   13   19     -1.51      0.00
    8   13   19     -0.75      0.00
    9   13   19      3.72      0.00
   10   13   19      4.73      0.00
   11   13   19      0.29      0.00
   12   13   19     -1.85      0.00
   13   13   19      1.35      0.00
   14   13   19      2.01      0.00
   15   13   19      2.03      0.00
   16   13   19     -1.27      0.00
   17   13   19     -0.88      0.00
   18   13   19     -3.82      0.00
    6   14   19     -4.97      0.00
    7   14   19      2.42      0.00
    8   14   19      2.65      0.00
    9   14   19      2.93      0.00
   10   14   19      2.04      0.00
   11   14   19      0.80      0.00
   12   14   19      2.14      0.00
   13   14   19      0.98      0.00
   14   14   19      0.66      0.00
   15   14   19      1.62      0.00
   16   14   19     -0.69      0.00
   17   14   19      6.43      0.00
    8   15   19      7.85      0.00
    9   15   19     -0.50      0.00
   10   15   19     -0.61      0.00
   11   15   19      2.88      0.00
   12   15   19      2.80      0.00
   13   15   19      1.51      0.00
   14   15   19      3.61      0.00
   15   15   19      0.40      0.00
   16   15   19     -3.71      0.00
   -3  -14   20     -0.31      0.00
   -2  -14   20     -2.23      0.00
   -1  -14   20      2.31      0.00
    0  -14   20     -1.00      0.00
    1  -14   20     -1.04      0.00
    2  -14   20     -0.85      0.00
    3  -14   20      0.15      0.00
   -5  -13   20     -1.53      0.00
   -4  -13   20      0.90      0.00
   -3  -13   20      2.08      0.00
   -2  -13   20      1.80      0.00
   -1  -13   20      2.04      0.00
    0  -13   20      0.83      0.00
    1  -13   20     -4.05      0.00
    2  -13   20     -0.54      0.00
    3  -13   20      3.47      0.00
    4  -13   20     -0.28      0.00
    5  -13   20     -3.21      0.00
   -6  -12   20      1.76      0.00
   -5  -12   20     -4.63      0.00
   -4  -12   20      1.45      0.00
   -3  -12   20      1.32      0.00
   -2  -12   20      0.75      0.00
   -1  -12   20      4.31      0.00
    0  -12   20      1.58      0.00
    1  -12   20     -0.54      0.00
    2  -12   20      2.42      0.00
    3  -12   20     -1.27      0.00
    4  -12   20     -0.91      0.00
    5  -12   20      0.77      0.00
    6  -12   20     -0.56      0.00
    7  -12   20     -2.21      0.00
   -6  -11   20     -1.71      0.00
   -5  -11   20     -4.33      0.00
   -4  -11   20      2.60      0.00
   -3  -11   20      1.40      0.00
   -2  -11   20     -0.99      0.00
   -1  -11   20      1.87      0.00
    0  -11   20      0.92      0.00
    1  -11   20      1.31      0.00
    2  -11   20      4.82      0.00
    3  -11   20     -0.83      0.00
    4  -11   20     -1.38      0.00
    5  -11   20     -2.99      0.00
    6  -11   20      8.21      0.00
    7  -11   20      0.28      0.00
    8  -11   20     -5.74      0.00
   -7  -10   20     -1.16      0.00
   -6  -10   20     -3.49      0.00
   -5  -10   20     -6.35      0.00
   -4  -10   20      6.28      0.00
   -3  -10   20     -1.67      0.00
   -2  -10   20      0.63      0.00
   -1  -10   20      0.09      0.00
    0  -10   20     -2.44      0.00
    1  -10   20      1.84      0.00
    2  -10   20      1.60      0.00
    3  -10   20     -1.73      0.00
    4  -10   20      5.39      0.00
    5  -10   20     -2.13      0.00
    6  -10   20      2.40      0.00
    7  -10   20      3.17      0.00
    8  -10   20      0.02      0.00
    9  -10   20      1.66      0.00
   -7   -9   20     -1.24      0.00
   -6   -9   20     -6.46      0.00
   -5   -9   20     -1.76      0.00
   -4   -9   20      2.43      0.00
   -3   -9   20      0.55      0.00
   -2   -9   20     -1.79      0.00
   -1   -9   20     -1.54      0.00
    0   -9   20     -2.56      0.00
    1   -9   20      0.53      0.00
    2   -9   20      2.69      0.00
    3   -9   20     -3.57      0.00
    4   -9   20      0.69      0.00
    5   -9   20      2.51      0.00
    6   -9   20      7.25      0.00
    7   -9   20     -7.26      0.00
    8   -9   20      4.90      0.00
    9   -9   20      4.67      0.00
   10   -9   20     -2.29      0.00
   -7   -8   20     -3.51      0.00
   -6   -8   20     -2.46      0.00
   -5   -8   20     -0.18      0.00
   -4   -8   20      2.42      0.00
   -3   -8   20     -4.01      0.00
   -2   -8   20      3.70      0.00
   -1   -8   20     -4.02      0.00
    0   -8   20     -4.36      0.00
    1   -8   20      4.18      0.00
    2   -8   20     -1.88      0.00
    3   -8   20     -0.70      0.00
    4   -8   20      0.79      0.00
    5   -8   20     -2.58      0.00
    6   -8   20      6.23      0.00
    7   -8   20     -0.40      0.00
    8   -8   20      1.16      0.00
    9   -8   20      3.04      0.00
   10   -8   20      0.59      0.00
   11   -8   20     -0.71      0.00
   -7   -7   20     -3.57      0.00
   -6   -7   20     -1.84      0.00
   -5   -7   20      0.30      0.00
   -4   -7   20      0.46      0.00
   -3   -7   20     -0.39      0.00
   -2   -7   20     -1.75      0.00
   -1   -7   20      2.17      0.00
    0   -7   20     -0.97      0.00
    1   -7   20      0.79      0.00
    2   -7   20     -3.54      0.00
    3   -7   20     -0.80      0.00
    4   -7   20      4.74      0.00
    5   -7   20     -4.05      0.00
    6   -7   20      2.91      0.00
    7   -7   20     -0.56      0.00
    8   -7   20      3.50      0.00
    9   -7   20     -0.14      0.00
   10   -7   20      6.42      0.00
   11   -7   20     -3.68      0.00
   12   -7   20     -4.73      0.00
   -7   -6   20     -0.57      0.00
   -6   -6   20      0.16      0.00
   -5   -6   20     -1.14      0.00
   -4   -6   20      0.14      0.00
   -3   -6   20     -2.34      0.00
   -2   -6   20      0.38      0.00
   -1   -6   20     -0.20      0.00
    0   -6   20      4.25      0.00
    1   -6   20      1.49      0.00
    2   -6   20     -5.64      0.00
    3   -6   20      4.11      0.00
    4   -6   20      0.23      0.00
    5   -6   20     -4.37      0.00
    6   -6   20      1.28      0.00
    7   -6   20      5.55      0.00
    8   -6   20     -2.18      0.00
    9   -6   20     -0.54      0.00
   10   -6   20      6.51      0.00
   11   -6   20     -2.33      0.00
   12   -6   20     -2.47      0.00
   13   -6   20     -3.53      0.00
   -7   -5   20     -0.25      0.00
   -6   -5   20      0.81      0.00
   -5   -5   20      0.13      0.00
   -4   -5   20      0.22      0.00
   -3   -5   20     -2.43      0.00
   -2   -5   20     -3.75      0.00
   -1   -5   20      4.83      0.00
    0   -5   20      0.13      0.00
    1   -5   20      3.53      0.00
    2   -5   20     -1.70      0.00
    3   -5   20      3.47      0.00
    4   -5   20     -0.90      0.00
    5   -5   20     -5.80      0.00
    6   -5   20      5.12      0.00
    7   -5   20     -1.07      0.00
    8   -5   20      1.51      0.00
    9   -5   20      0.52      0.00
   10   -5   20     -2.99      0.00
   11   -5   20     -1.01      0.00
   12   -5   20      4.45      0.00
   13   -5   20     -0.89      0.00
   14   -5   20     -3.65      0.00
   -7   -4   20      0.37      0.00
   -6   -4   20      2.53      0.00
   -5   -4   20     -1.95      0.00
   -4   -4   20      0.37      0.00
   -3   -4   20     -0.38      0.00
   -2   -4   20     -2.35      0.00
   -1   -4   20      1.77      0.00
    0   -4   20      0.17      0.00
    1   -4   20      3.08      0.00
    2   -4   20      0.14      0.00
    3   -4   20      1.03      0.00
    4   -4   20      0.85      0.00
    5   -4   20     -1.46      0.00
    6   -4   20      2.76      0.00
    7   -4   20     -1.06      0.00
    8   -4   20     -4.57      0.00
    9   -4   20      2.09      0.00
   10   -4   20     -4.32      0.00
   11   -4   20      0.78      0.00
   12   -4   20      3.73      0.00
   13   -4   20     -2.40      0.00
   14   -4   20      1.79      0.00
   15   -4   20     -1.83      0.00
   -7   -3   20      0.73      0.00
   -6   -3   20      1.22      0.00
   -5   -3   20      0.15      0.00
   -4   -3   20      0.92      0.00
   -3   -3   20     -0.19      0.00
   -2   -3   20      0.59      0.00
   -1   -3   20      1.93      0.00
    0   -3   20     -2.83      0.00
    1   -3   20      2.28      0.00
    2   -3   20     -1.97      0.00
    3   -3   20      4.47      0.00
    4   -3   20     -0.83      0.00
    5   -3   20      0.89      0.00
    6   -3   20      1.79      0.00
    7   -3   20     -4.22      0.00
    8   -3   20      3.07      0.00
    9   -3   20     -4.86      0.00
   10   -3   20     -4.56      0.00
   11   -3   20      6.88      0.00
   12   -3   20     -3.94      0.00
   13   -3   20     -0.74      0.00
   14   -3   20      2.45      0.00
   15   -3   20     -0.30      0.00
   -6   -2   20      0.21      0.00
   -5   -2   20     -0.84      0.00
   -4   -2   20      4.02      0.00
   -3   -2   20      0.06      0.00
   -2   -2   20      0.02      0.00
   -1   -2   20      4.18      0.00
    0   -2   20     -1.73      0.00
    1   -2   20     -1.52      0.00
    2   -2   20     -0.70      0.00
    3   -2   20      2.44      0.00
    4   -2   20      0.67      0.00
    5   -2   20     -2.70      0.00
    6   -2   20      4.02      0.00
    7   -2   20     -2.86      0.00
    8   -2   20     -0.07      0.00
    9   -2   20      1.73      0.00
   10   -2   20     -3.56      0.00
   11   -2   20     -0.34      0.00
   12   -2   20     -2.66      0.00
   13   -2   20      1.90      0.00
   14   -2   20      3.79      0.00
   15   -2   20     -3.54      0.00
   16   -2   20      3.03      0.00
   -6   -1   20      0.67      0.00
   -5   -1   20      0.93      0.00
   -4   -1   20      0.81      0.00
   -3   -1   20      1.09      0.00
   -2   -1   20     -0.48      0.00
   -1   -1   20      2.35      0.00
    0   -1   20      0.42      0.00
    1   -1   20     -0.23      0.00
    2   -1   20     -0.13      0.00
    3   -1   20      0.64      0.00
    4   -1   20     -2.89      0.00
    5   -1   20      0.24      0.00
    6   -1   20      3.38      0.00
    7   -1   20     -0.85      0.00
    8   -1   20     -1.41      0.00
    9   -1   20     -1.73      0.00
   10   -1   20      2.50      0.00
   11   -1   20     -0.26      0.00
   12   -1   20     -7.61      0.00
   13   -1   20      8.35      0.00
   14   -1   20      0.05      0.00
   15   -1   20     -1.83      0.00
   16   -1   20      3.11      0.00
   -6    0   20     -0.95      0.00
   -5    0   20      2.35      0.00
   -4    0   20      0.93      0.00
   -3    0   20     -0.80      0.00
   -2    0   20      0.80      0.00
   -1    0   20      0.85      0.00
    0    0   20     -2.32      0.00
    1    0   20     -0.07      0.00
    2    0   20      2.24      0.00
    3    0   20     -0.93      0.00
    4    0   20     -0.79      0.00
    5    0   20     -1.76      0.00
    6    0   20      4.88      0.00
    7    0   20     -1.08      0.00
    8    0   20     -1.93      0.00
    9    0   20     -0.42      0.00
   10    0   20     -1.02      0.00
   11    0   20      1.26      0.00
   12    0   20      0.51      0.00
   13    0   20     -1.64      0.00
   14    0   20      3.28      0.00
   15    0   20     -2.32      0.00
   16    0   20      2.40      0.00
   17    0   20      3.63      0.00
   -5    1   20     -0.64      0.00
   -4    1   20      1.62      0.00
   -3    1   20      0.21      0.00
   -2    1   20     -0.09      0.00
   -1    1   20      3.67      0.00
    0    1   20     -3.00      0.00
    1    1   20     -4.24      0.00
    2    1   20      0.52      0.00
    3    1   20      1.33      0.00
    4    1   20      0.73      0.00
    5    1   20      0.80      0.00
    6    1   20      0.70      0.00
    7    1   20     -0.93      0.00
    8    1   20     -1.75      0.00
    9    1   20      1.01      0.00
   10    1   20     -0.65      0.00
   11    1   20      0.07      0.00
   12    1   20      2.25      0.00
   13    1   20      1.65      0.00
   14    1   20     -5.01      0.00
   15    1   20      2.30      0.00
   16    1   20      1.46      0.00
   17    1   20      2.31      0.00
   -5    2   20      0.31      0.00
   -4    2   20      0.98      0.00
   -3    2   20     -0.03      0.00
   -2    2   20      2.00      0.00
   -1    2   20      2.69      0.00
    0    2   20     -2.90      0.00
    1    2   20     -2.20      0.00
    2    2   20      0.48      0.00
    3    2   20     -2.44      0.00
    4    2   20      4.86      0.00
    5    2   20      1.96      0.00
    6    2   20     -1.46      0.00
    7    2   20     -3.93      0.00
    8    2   20     -1.05      0.00
    9    2   20      1.56      0.00
   10    2   20     -0.16      0.00
   11    2   20      2.65      0.00
   12    2   20      2.01      0.00
   13    2   20     -2.63      0.00
   14    2   20      2.16      0.00
   15    2   20     -4.51      0.00
   16    2   20      5.38      0.00
   17    2   20      0.01      0.00
   18    2   20     -0.35      0.00
   -4    3   20      1.66      0.00
   -3    3   20      0.61      0.00
   -2    3   20      2.97      0.00
   -1    3   20      1.60      0.00
    0    3   20     -4.21      0.00
    1    3   20      0.52      0.00
    2    3   20      1.78      0.00
    3    3   20      0.95      0.00
    4    3   20      2.96      0.00
    5    3   20     -0.90      0.00
    6    3   20     -1.65      0.00
    7    3   20     -1.92      0.00
    8    3   20     -2.87      0.00
    9    3   20      2.49      0.00
   10    3   20     -1.14      0.00
   11    3   20      2.89      0.00
   12    3   20      2.59      0.00
   13    3   20     -2.41      0.00
   14    3   20     -0.59      0.00
   15    3   20      1.76      0.00
   16    3   20     -1.46      0.00
   17    3   20      1.20      0.00
   18    3   20      2.75      0.00
   -3    4   20     -0.19      0.00
   -2    4   20      2.69      0.00
   -1    4   20      1.14      0.00
    0    4   20     -0.09      0.00
    1    4   20     -0.04      0.00
    2    4   20      1.10      0.00
    3    4   20      4.05      0.00
    4    4   20      1.73      0.00
    5    4   20     -3.97      0.00
    6    4   20     -0.65      0.00
    7    4   20     -0.76      0.00
    8    4   20     -1.56      0.00
    9    4   20      1.62      0.00
   10    4   20     -0.66      0.00
   11    4   20     -2.57      0.00
   12    4   20      3.40      0.00
   13    4   20      0.47      0.00
   14    4   20      0.95      0.00
   15    4   20     -1.72      0.00
   16    4   20      3.00      0.00
   17    4   20     -5.05      0.00
   18    4   20      4.53      0.00
   -3    5   20     -0.25      0.00
   -2    5   20     -0.48      0.00
   -1    5   20      1.51      0.00
    0    5   20      1.20      0.00
    1    5   20      3.26      0.00
    2    5   20      1.45      0.00
    3    5   20      1.44      0.00
    4    5   20     -0.38      0.00
    5    5   20     -1.68      0.00
    6    5   20      1.30      0.00
    7    5   20     -1.32      0.00
    8    5   20     -0.75      0.00
    9    5   20      0.84      0.00
   10    5   20     -1.58      0.00
   11    5   20     -4.55      0.00
   12    5   20     -2.09      0.00
   13    5   20      4.00      0.00
   14    5   20      1.91      0.00
   15    5   20      1.92      0.00
   16    5   20     -0.17      0.00
   17    5   20     -1.24      0.00
   18    5   20     -0.03      0.00
   -2    6   20     -0.38      0.00
   -1    6   20      1.03      0.00
    0    6   20      0.11      0.00
    1    6   20      0.33      0.00
    2    6   20      7.17      0.00
    3    6   20      1.83      0.00
    4    6   20     -6.33      0.00
    5    6   20      1.47      0.00
    6    6   20      1.39      0.00
    7    6   20      0.23      0.00
    8    6   20      4.36      0.00
    9    6   20     -2.52      0.00
   10    6   20     -3.06      0.00
   11    6   20     -6.09      0.00
   12    6   20     -2.41      0.00
   13    6   20     -4.05      0.00
   14    6   20      4.00      0.00
   15    6   20      3.24      0.00
   16    6   20      1.91      0.00
   17    6   20     -0.64      0.00
   18    6   20      2.79      0.00
   19    6   20     -4.90      0.00
   -1    7   20      1.38      0.00
    0    7   20      0.48      0.00
    1    7   20     -0.27      0.00
    2    7   20      3.08      0.00
    3    7   20      4.46      0.00
    4    7   20     -3.88      0.00
    5    7   20     -1.67      0.00
    6    7   20      1.20      0.00
    7    7   20      1.30      0.00
    8    7   20      7.36      0.00
    9    7   20      0.02      0.00
   10    7   20     -5.43      0.00
   11    7   20     -4.43      0.00
   12    7   20     -3.86      0.00
   13    7   20     -6.00      0.00
   14    7   20     -3.59      0.00
   15    7   20      3.66      0.00
   16    7   20     -0.32      0.00
   17    7   20      2.85      0.00
   18    7   20      1.39      0.00
   19    7   20     -3.17      0.00
    0    8   20      0.05      0.00
    1    8   20      3.26      0.00
    2    8   20      2.64      0.00
    3    8   20     -2.93      0.00
    4    8   20      2.26      0.00
    5    8   20      1.37      0.00
    6    8   20     -3.55      0.00
    7    8   20      3.97      0.00
    8    8   20      3.25      0.00
    9    8   20     -3.02      0.00
   10    8   20      5.93      0.00
   11    8   20     -6.10      0.00
   12    8   20     -5.64      0.00
   13    8   20     -2.64      0.00
   14    8   20     -3.32      0.00
   15    8   20     -6.02      0.00
   16    8   20     -0.23      0.00
   17    8   20     -0.96      0.00
   18    8   20      0.40      0.00
   19    8   20     -2.38      0.00
    1    9   20      1.35      0.00
    2    9   20      0.51      0.00
    3    9   20      3.84      0.00
    4    9   20      1.88      0.00
    5    9   20     -2.31      0.00
    6    9   20      1.31      0.00
    7    9   20      1.88      0.00
    8    9   20     -0.19      0.00
    9    9   20     -1.81      0.00
   10    9   20      0.71      0.00
   11    9   20      1.15      0.00
   12    9   20     -3.45      0.00
   13    9   20      0.84      0.00
   14    9   20     -5.03      0.00
   15    9   20     -4.96      0.00
   16    9   20     -6.47      0.00
   17    9   20     -0.98      0.00
   18    9   20     -2.08      0.00
    2   10   20      0.31      0.00
    3   10   20      3.25      0.00
    4   10   20      5.50      0.00
    5   10   20     -1.05      0.00
    6   10   20     -0.09      0.00
    7   10   20      1.13      0.00
    8   10   20      0.44      0.00
    9   10   20     -1.09      0.00
   10   10   20     -0.74      0.00
   11   10   20     -4.58      0.00
   12   10   20      4.00      0.00
   13   10   20      2.08      0.00
   14   10   20     -2.85      0.00
   15   10   20     -6.82      0.00
   16   10   20     -3.74      0.00
   17   10   20     -2.61      0.00
   18   10   20     -1.45      0.00
    3   11   20      1.60      0.00
    4   11   20      0.27      0.00
    5   11   20      2.54      0.00
    6   11   20      4.47      0.00
    7   11   20     -2.06      0.00
    8   11   20     -1.13      0.00
    9   11   20     -1.47      0.00
   10   11   20      0.49      0.00
   11   11   20      3.64      0.00
   12   11   20     -8.38      0.00
   13   11   20      1.72      0.00
   14   11   20      0.55      0.00
   15   11   20     -0.57      0.00
   16   11   20     -3.92      0.00
   17   11   20     -0.93      0.00
   18   11   20     -2.26      0.00
    4   12   20      3.20      0.00
    5   12   20     -1.25      0.00
    6   12   20      3.07      0.00
    7   12   20      1.24      0.00
    8   12   20     -3.60      0.00
    9   12   20     -1.90      0.00
   10   12   20      0.74      0.00
   11   12   20     -0.05      0.00
   12   12   20     -0.58      0.00
   13   12   20     -3.69      0.00
   14   12   20     -1.65      0.00
   15   12   20      0.04      0.00
   16   12   20      1.93      0.00
   17   12   20     -2.32      0.00
    6   13   20      1.64      0.00
    7   13   20     -4.21      0.00
    8   13   20      1.51      0.00
    9   13   20     -0.42      0.00
   10   13   20     -7.29      0.00
   11   13   20     -2.40      0.00
   12   13   20      0.71      0.00
   13   13   20      4.04      0.00
   14   13   20     -3.79      0.00
   15   13   20     -1.40      0.00
   16   13   20     -1.78      0.00
   17   13   20     -0.33      0.00
    8   14   20     -1.99      0.00
    9   14   20     -2.94      0.00
   10   14   20     -4.39      0.00
   11   14   20     -3.46      0.00
   12   14   20     -0.38      0.00
   13   14   20      0.11      0.00
   14   14   20      0.89      0.00
   15   14   20     -2.59      0.00
   16   14   20      2.82      0.00
   12   15   20     -3.32      0.00
   13   15   20     -0.83      0.00
   -3  -13   21     -1.53      0.00
   -2  -13   21      0.34      0.00
   -1  -13   21     -3.43      0.00
    0  -13   21     -4.30      0.00
    1  -13   21      0.21      0.00
    2  -13   21      1.84      0.00
    3  -13   21     -1.66      0.00
   -4  -12   21      5.29      0.00
   -3  -12   21     -0.54      0.00
   -2  -12   21      1.20      0.00
   -1  -12   21     -2.71      0.00
    0  -12   21     -2.71      0.00
    1  -12   21     -1.51      0.00
    2  -12   21     -3.38      0.00
    3  -12   21     -3.51      0.00
    4  -12   21      2.68      0.00
    5  -12   21     -3.12      0.00
   -5  -11   21      4.30      0.00
   -4  -11   21      1.83      0.00
   -3  -11   21     -1.91      0.00
   -2  -11   21      2.26      0.00
   -1  -11   21      0.93      0.00
    0  -11   21     -1.06      0.00
    1  -11   21     -0.86      0.00
    2  -11   21     -3.34      0.00
    3  -11   21     -4.26      0.00
    4  -11   21     -2.18      0.00
    5  -11   21      2.15      0.00
    6  -11   21     -1.49      0.00
    7  -11   21     -8.60      0.00
   -5  -10   21      6.97      0.00
   -4  -10   21      2.09      0.00
   -3  -10   21     -4.17      0.00
   -2  -10   21      3.72      0.00
   -1  -10   21      0.26      0.00
    0  -10   21      0.56      0.00
    1  -10   21      1.57      0.00
    2  -10   21     -2.36      0.00
    3  -10   21      0.94      0.00
    4  -10   21     -1.47      0.00
    5  -10   21     -6.49      0.00
    6  -10   21      0.12      0.00
    7  -10   21     -3.93      0.00
    8  -10   21     -2.30      0.00
   -6   -9   21      1.51      0.00
   -5   -9   21      3.54      0.00
   -4   -9   21     -0.32      0.00
   -3   -9   21     -0.18      0.00
   -2   -9   21      0.51      0.00
   -1   -9   21      1.82      0.00
    0   -9   21      1.59      0.00
    1   -9   21      4.12      0.00
    2   -9   21     -1.89      0.00
    3   -9   21     -0.28      0.00
    4   -9   21      2.13      0.00
    5   -9   21     -0.19      0.00
    6   -9   21    -10.78      0.00
    7   -9   21     -1.15      0.00
    8   -9   21      3.60      0.00
    9   -9   21     -7.07      0.00
   10   -9   21     -1.40      0.00
   -6   -8   21      3.58      0.00
   -5   -8   21     -0.08      0.00
   -4   -8   21     -5.00      0.00
   -3   -8   21      1.92      0.00
   -2   -8   21      0.71      0.00
   -1   -8   21     -2.78      0.00
    0   -8   21      7.76      0.00
    1   -8   21      1.45      0.00
    2   -8   21     -0.85      0.00
    3   -8   21      2.67      0.00
    4   -8   21     -3.58      0.00
    5   -8   21      3.89      0.00
    6   -8   21     -3.24      0.00
    7   -8   21     -3.36      0.00
    8   -8   21     -3.70      0.00
    9   -8   21     -2.33      0.00
   10   -8   21     -1.89      0.00
   11   -8   21      0.07      0.00
   -6   -7   21      3.94      0.00
   -5   -7   21      0.98      0.00
   -4   -7   21     -3.21      0.00
   -3   -7   21     -0.79      0.00
   -2   -7   21      0.23      0.00
   -1   -7   21      1.57      0.00
    0   -7   21     -1.26      0.00
    1   -7   21      2.29      0.00
    2   -7   21      0.98      0.00
    3   -7   21      4.84      0.00
    4   -7   21     -3.59      0.00
    5   -7   21      1.14      0.00
    6   -7   21     -1.09      0.00
    7   -7   21      1.15      0.00
    8   -7   21     -4.51      0.00
    9   -7   21     -1.65      0.00
   10   -7   21     -5.32      0.00
   11   -7   21     -2.61      0.00
   12   -7   21      5.96      0.00
   -6   -6   21      0.71      0.00
   -5   -6   21     -0.15      0.00
   -4   -6   21      0.75      0.00
   -3   -6   21     -1.06      0.00
   -2   -6   21      2.08      0.00
   -1   -6   21      1.25      0.00
    0   -6   21     -0.62      0.00
    1   -6   21     -4.67      0.00
    2   -6   21      3.72      0.00
    3   -6   21      3.36      0.00
    4   -6   21     -3.77      0.00
    5   -6   21      4.43      0.00
    6   -6   21     -0.38      0.00
    7   -6   21     -1.49      0.00
    8   -6   21     -4.09      0.00
    9   -6   21      5.14      0.00
   10   -6   21     -6.45      0.00
   11   -6   21     -2.80      0.00
   12   -6   21      1.27      0.00
   13   -6   21      2.12      0.00
   -6   -5   21     -0.48      0.00
   -5   -5   21      0.50      0.00
   -4   -5   21     -1.78      0.00
   -3   -5   21      0.84      0.00
   -2   -5   21      3.60      0.00
   -1   -5   21      0.62      0.00
    0   -5   21     -0.70      0.00
    1   -5   21     -1.08      0.00
    2   -5   21     -1.47      0.00
    3   -5   21      1.07      0.00
    4   -5   21     -3.64      0.00
    5   -5   21      8.97      0.00
    6   -5   21     -3.30      0.00
    7   -5   21     -0.93      0.00
    8   -5   21     -0.42      0.00
    9   -5   21     -2.03      0.00
   10   -5   21      2.68      0.00
   11   -5   21      3.33      0.00
   12   -5   21     -4.36      0.00
   13   -5   21     -0.21      0.00
   -6   -4   21     -1.52      0.00
   -5   -4   21     -1.47      0.00
   -4   -4   21      0.80      0.00
   -3   -4   21     -1.06      0.00
   -2   -4   21      3.65      0.00
   -1   -4   21     -0.98      0.00
    0   -4   21     -0.68      0.00
    1   -4   21      0.59      0.00
    2   -4   21     -0.33      0.00
    3   -4   21     -1.86      0.00
    4   -4   21     -0.24      0.00
    5   -4   21      5.07      0.00
    6   -4   21     -3.25      0.00
    7   -4   21     -1.10      0.00
    8   -4   21      2.58      0.00
    9   -4   21      0.49      0.00
   10   -4   21     -0.28      0.00
   11   -4   21      5.06      0.00
   12   -4   21     -2.13      0.00
   13   -4   21      0.55      0.00
   14   -4   21     -0.88      0.00
   -5   -3   21     -1.68      0.00
   -4   -3   21     -0.38      0.00
   -3   -3   21     -0.84      0.00
   -2   -3   21      1.15      0.00
   -1   -3   21     -1.91      0.00
    0   -3   21     -1.08      0.00
    1   -3   21      1.07      0.00
    2   -3   21      0.90      0.00
    3   -3   21     -0.30      0.00
    4   -3   21     -0.50      0.00
    5   -3   21      2.26      0.00
    6   -3   21     -4.29      0.00
    7   -3   21      5.51      0.00
    8   -3   21      1.93      0.00
    9   -3   21     -3.29      0.00
   10   -3   21      5.43      0.00
   11   -3   21     -1.39      0.00
   12   -3   21     -3.65      0.00
   13   -3   21      6.63      0.00
   14   -3   21     -2.47      0.00
   15   -3   21      1.35      0.00
   -5   -2   21      0.82      0.00
   -4   -2   21     -0.16      0.00
   -3   -2   21     -2.46      0.00
   -2   -2   21      1.94      0.00
   -1   -2   21     -4.51      0.00
    0   -2   21     -0.12      0.00
    1   -2   21      1.83      0.00
    2   -2   21      0.30      0.00
    3   -2   21      0.52      0.00
    4   -2   21     -1.97      0.00
    5   -2   21      3.36      0.00
    6   -2   21     -1.94      0.00
    7   -2   21      3.58      0.00
    8   -2   21      5.33      0.00
    9   -2   21     -4.54      0.00
   10   -2   21      1.96      0.00
   11   -2   21      0.28      0.00
   12   -2   21     -1.34      0.00
   13   -2   21      2.77      0.00
   14   -2   21     -4.28      0.00
   15   -2   21      1.55      0.00
   -5   -1   21     -1.84      0.00
   -4   -1   21      1.04      0.00
   -3   -1   21     -0.69      0.00
   -2   -1   21      1.00      0.00
   -1   -1   21     -0.95      0.00
    0   -1   21      0.16      0.00
    1   -1   21      0.12      0.00
    2   -1   21      1.02      0.00
    3   -1   21      0.37      0.00
    4   -1   21     -1.31      0.00
    5   -1   21      4.22      0.00
    6   -1   21     -1.07      0.00
    7   -1   21      0.68      0.00
    8   -1   21      1.23      0.00
    9   -1   21      1.80      0.00
   10   -1   21      2.69      0.00
   11   -1   21     -6.17      0.00
   12   -1   21      5.75      0.00
   13   -1   21      1.23      0.00
   14   -1   21    -11.12      0.00
   15   -1   21      5.07      0.00
   16   -1   21     -3.04      0.00
   -4    0   21     -1.85      0.00
   -3    0   21      0.28      0.00
   -2    0   21      0.71      0.00
   -1    0   21      0.48      0.00
    0    0   21      1.58      0.00
    1    0   21      2.87      0.00
    2    0   21      1.11      0.00
    3    0   21     -0.74      0.00
    4    0   21      1.03      0.00
    5    0   21      3.04      0.00
    6    0   21     -1.88      0.00
    7    0   21     -1.16      0.00
    8    0   21      1.33      0.00
    9    0   21      1.16      0.00
   10    0   21      0.73      0.00
   11    0   21     -0.54      0.00
   12    0   21     -0.39      0.00
   13    0   21     -1.66      0.00
   14    0   21     -0.76      0.00
   15    0   21     -2.06      0.00
   16    0   21     -0.55      0.00
   -4    1   21      0.75      0.00
   -3    1   21     -2.58      0.00
   -2    1   21      1.73      0.00
   -1    1   21     -1.63      0.00
    0    1   21      0.15      0.00
    1    1   21      5.51      0.00
    2    1   21      4.04      0.00
    3    1   21      1.35      0.00
    4    1   21     -1.42      0.00
    5    1   21      1.12      0.00
    6    1   21     -1.41      0.00
    7    1   21     -1.04      0.00
    8    1   21      2.71      0.00
    9    1   21      0.84      0.00
   10    1   21     -1.94      0.00
   11    1   21      0.08      0.00
   12    1   21     -1.33      0.00
   13    1   21     -4.94      0.00
   14    1   21      1.57      0.00
   15    1   21      3.17      0.00
   16    1   21     -4.27      0.00
   17    1   21     -0.48      0.00
   -4    2   21     -1.02      0.00
   -3    2   21      0.49      0.00
   -2    2   21     -0.35      0.00
   -1    2   21     -1.90      0.00
    0    2   21     -1.00      0.00
    1    2   21      5.93      0.00
    2    2   21      1.84      0.00
    3    2   21      3.05      0.00
    4    2   21      1.79      0.00
    5    2   21     -4.09      0.00
    6    2   21     -2.06      0.00
    7    2   21      1.67      0.00
    8    2   21      3.51      0.00
    9    2   21     -0.34      0.00
   10    2   21      1.68      0.00
   11    2   21     -1.60      0.00
   12    2   21     -5.40      0.00
   13    2   21      0.42      0.00
   14    2   21     -0.14      0.00
   15    2   21     -0.10      0.00
   16    2   21      1.48      0.00
   17    2   21     -3.21      0.00
   -3    3   21     -0.38      0.00
   -2    3   21      0.19      0.00
   -1    3   21     -3.28      0.00
    0    3   21      2.29      0.00
    1    3   21      4.10      0.00
    2    3   21     -0.44      0.00
    3    3   21      1.04      0.00
    4    3   21     -0.48      0.00
    5    3   21     -1.28      0.00
    6    3   21      0.61      0.00
    7    3   21     -0.31      0.00
    8    3   21      5.52      0.00
    9    3   21     -2.67      0.00
   10    3   21      0.63      0.00
   11    3   21      3.57      0.00
   12    3   21     -4.13      0.00
   13    3   21     -1.13      0.00
   14    3   21      2.19      0.00
   15    3   21     -1.28      0.00
   16    3   21     -1.16      0.00
   17    3   21      4.92      0.00
   -2    4   21     -1.95      0.00
   -1    4   21     -1.07      0.00
    0    4   21      2.43      0.00
    1    4   21      1.44      0.00
    2    4   21     -0.56      0.00
    3    4   21     -1.07      0.00
    4    4   21     -3.12      0.00
    5    4   21     -0.16      0.00
    6    4   21      5.43      0.00
    7    4   21     -0.11      0.00
    8    4   21      2.13      0.00
    9    4   21     -0.32      0.00
   10    4   21     -1.48      0.00
   11    4   21      3.50      0.00
   12    4   21      2.99      0.00
   13    4   21      0.35      0.00
   14    4   21     -0.79      0.00
   15    4   21     -0.27      0.00
   16    4   21      0.13      0.00
   17    4   21      2.48      0.00
   18    4   21      1.90      0.00
   -2    5   21     -0.34      0.00
   -1    5   21      0.66      0.00
    0    5   21      0.55      0.00
    1    5   21     -0.86      0.00
    2    5   21     -1.62      0.00
    3    5   21     -0.80      0.00
    4    5   21     -2.30      0.00
    5    5   21      1.70      0.00
    6    5   21      2.62      0.00
    7    5   21     -2.02      0.00
    8    5   21      3.55      0.00
    9    5   21     -2.56      0.00
   10    5   21      4.50      0.00
   11    5   21      1.56      0.00
   12    5   21      4.12      0.00
   13    5   21      5.30      0.00
   14    5   21     -0.77      0.00
   15    5   21      0.96      0.00
   16    5   21     -3.23      0.00
   17    5   21      2.13      0.00
   18    5   21      0.55      0.00
   -1    6   21      0.47      0.00
    0    6   21     -0.83      0.00
    1    6   21      0.26      0.00
    2    6   21     -0.12      0.00
    3    6   21     -7.95      0.00
    4    6   21      5.32      0.00
    5    6   21      2.04      0.00
    6    6   21     -2.54      0.00
    7    6   21      0.72      0.00
    8    6   21     -2.06      0.00
    9    6   21     -2.50      0.00
   10    6   21      3.40      0.00
   11    6   21      6.07      0.00
   12    6   21      4.18      0.00
   13    6   21      5.71      0.00
   14    6   21      4.00      0.00
   15    6   21      1.11      0.00
   16    6   21     -1.42      0.00
   17    6   21      0.29      0.00
   18    6   21     -3.58      0.00
    0    7   21      0.19      0.00
    1    7   21     -0.27      0.00
    2    7   21     -0.74      0.00
    3    7   21     -3.55      0.00
    4    7   21     -1.36      0.00
    5    7   21      4.11      0.00
    6    7   21      0.18      0.00
    7    7   21     -0.85      0.00
    8    7   21     -2.69      0.00
    9    7   21     -6.05      0.00
   10    7   21      1.59      0.00
   11    7   21      4.18      0.00
   12    7   21      6.20      0.00
   13    7   21      3.97      0.00
   14    7   21      5.54      0.00
   15    7   21      4.77      0.00
   16    7   21      0.17      0.00
   17    7   21      2.90      0.00
   18    7   21     -5.32      0.00
    1    8   21     -1.85      0.00
    2    8   21     -1.56      0.00
    3    8   21     -4.06      0.00
    4    8   21      3.45      0.00
    5    8   21     -4.55      0.00
    6    8   21      2.44      0.00
    7    8   21      0.65      0.00
    8    8   21     -6.52      0.00
    9    8   21      1.65      0.00
   10    8   21     -3.05      0.00
   11    8   21     -0.94      0.00
   12    8   21      4.77      0.00
   13    8   21      4.65      0.00
   14    8   21      0.33      0.00
   15    8   21      6.02      0.00
   16    8   21      4.44      0.00
   17    8   21      1.33      0.00
   18    8   21      1.63      0.00
    2    9   21     -0.77      0.00
    3    9   21     -2.10      0.00
    4    9   21     -5.08      0.00
    5    9   21      0.56      0.00
    6    9   21     -1.55      0.00
    7    9   21     -1.38      0.00
    8    9   21     -3.07      0.00
    9    9   21     -0.10      0.00
   10    9   21      0.48      0.00
   11    9   21     -1.99      0.00
   12    9   21      0.12      0.00
   13    9   21      1.97      0.00
   14    9   21     -0.95      0.00
   15    9   21      3.16      0.00
   16    9   21      4.40      0.00
   17    9   21      4.51      0.00
   18    9   21      1.08      0.00
    3   10   21     -0.82      0.00
    4   10   21     -3.24      0.00
    5   10   21     -7.44      0.00
    6   10   21      1.96      0.00
    7   10   21     -1.19      0.00
    8   10   21     -4.68      0.00
    9   10   21      1.06      0.00
   10   10   21     -2.82      0.00
   11   10   21      0.28      0.00
   12   10   21      2.62      0.00
   13   10   21     -3.76      0.00
   14   10   21     -3.55      0.00
   15   10   21      4.70      0.00
   16   10   21      4.34      0.00
   17   10   21      1.16      0.00
    5   11   21      2.34      0.00
    6   11   21     -6.48      0.00
    7   11   21     -2.54      0.00
    8   11   21     -0.16      0.00
    9   11   21      1.78      0.00
   10   11   21     -2.04      0.00
   11   11   21     -4.24      0.00
   12   11   21     -0.84      0.00
   13   11   21      1.90      0.00
   14   11   21     -0.35      0.00
   15   11   21      0.07      0.00
   16   11   21      0.86      0.00
   17   11   21      1.67      0.00
    6   12   21     -0.39      0.00
    7   12   21     -5.44      0.00
    8   12   21      0.76      0.00
    9   12   21      2.66      0.00
   10   12   21      0.71      0.00
   11   12   21     -2.50      0.00
   12   12   21     -3.66      0.00
   13   12   21     -1.50      0.00
   14   12   21      4.85      0.00
   15   12   21      0.16      0.00
   16   12   21     -1.81      0.00
    8   13   21     -0.11      0.00
    9   13   21     -1.84      0.00
   10   13   21      1.32      0.00
   11   13   21      5.05      0.00
   12   13   21      0.73      0.00
   13   13   21     -4.36      0.00
   14   13   21     -3.15      0.00
   15   13   21      1.91      0.00
   11   14   21      2.72      0.00
   12   14   21      4.90      0.00
   13   14   21     -4.11      0.00
   -1  -12   22      0.72      0.00
    0  -12   22     -0.24      0.00
    1  -12   22      2.48      0.00
    2  -12   22      2.06      0.00
    3  -12   22      4.12      0.00
   -3  -11   22      2.43      0.00
   -2  -11   22     -0.90      0.00
   -1  -11   22     -2.50      0.00
    0  -11   22     -1.17      0.00
    1  -11   22      1.73      0.00
    2  -11   22     -1.27      0.00
    3  -11   22      4.58      0.00
    4  -11   22      2.68      0.00
    5  -11   22      3.14      0.00
    6  -11   22     -3.04      0.00
   -4  -10   22     -6.73      0.00
   -3  -10   22      3.92      0.00
   -2  -10   22     -0.57      0.00
   -1  -10   22     -1.54      0.00
    0  -10   22     -0.05      0.00
    1  -10   22     -1.59      0.00
    2  -10   22      0.09      0.00
    3  -10   22      2.16      0.00
    4  -10   22     -4.19      0.00
    5  -10   22      4.56      0.00
    6  -10   22      4.61      0.00
    7  -10   22      1.41      0.00
   -4   -9   22      0.44      0.00
   -3   -9   22      1.07      0.00
   -2   -9   22     -0.62      0.00
   -1   -9   22      0.66      0.00
    0   -9   22     -1.53      0.00
    1   -9   22     -1.07      0.00
    2   -9   22     -3.82      0.00
    3   -9   22      2.31      0.00
    4   -9   22     -2.33      0.00
    5   -9   22     -1.18      0.00
    6   -9   22      1.73      0.00
    7   -9   22     11.09      0.00
    8   -9   22     -3.45      0.00
    9   -9   22      0.92      0.00
   -4   -8   22      5.45      0.00
   -3   -8   22      4.61      0.00
   -2   -8   22     -2.90      0.00
   -1   -8   22      3.24      0.00
    0   -8   22     -0.55      0.00
    1   -8   22     -6.20      0.00
    2   -8   22     -0.71      0.00
    3   -8   22     -3.95      0.00
    4   -8   22      2.80      0.00
    5   -8   22      0.07      0.00
    6   -8   22     -2.57      0.00
    7   -8   22      2.11      0.00
    8   -8   22      3.39      0.00
    9   -8   22      4.68      0.00
   10   -8   22      1.40      0.00
   -5   -7   22     -3.99      0.00
   -4   -7   22      1.52      0.00
   -3   -7   22      4.02      0.00
   -2   -7   22      0.72      0.00
   -1   -7   22     -1.14      0.00
    0   -7   22      1.40      0.00
    1   -7   22     -2.63      0.00
    2   -7   22     -3.00      0.00
    3   -7   22     -1.46      0.00
    4   -7   22     -3.60      0.00
    5   -7   22      1.76      0.00
    6   -7   22     -1.08      0.00
    7   -7   22      0.46      0.00
    8   -7   22     -1.74      0.00
    9   -7   22      4.14      0.00
   10   -7   22      3.70      0.00
   11   -7   22      5.06      0.00
   -5   -6   22      0.28      0.00
   -4   -6   22     -0.55      0.00
   -3   -6   22      1.16      0.00
   -2   -6   22      0.47      0.00
   -1   -6   22     -2.19      0.00
    0   -6   22     -1.84      0.00
    1   -6   22     -0.25      0.00
    2   -6   22      3.82      0.00
    3   -6   22     -6.94      0.00
    4   -6   22      0.47      0.00
    5   -6   22     -3.84      0.00
    6   -6   22     -0.93      0.00
    7   -6   22     -0.88      0.00
    8   -6   22      4.28      0.00
    9   -6   22     -1.73      0.00
   10   -6   22     -1.51      0.00
   11   -6   22      6.12      0.00
   12   -6   22      1.07      0.00
   -5   -5   22     -0.97      0.00
   -4   -5   22      1.54      0.00
   -3   -5   22      1.36      0.00
   -2   -5   22     -1.92      0.00
   -1   -5   22     -1.72      0.00
    0   -5   22     -0.81      0.00
    1   -5   22     -1.78      0.00
    2   -5   22      1.01      0.00
    3   -5   22     -1.73      0.00
    4   -5   22      2.32      0.00
    5   -5   22     -5.37      0.00
    6   -5   22     -5.25      0.00
    7   -5   22      2.09      0.00
    8   -5   22      0.15      0.00
    9   -5   22      3.25      0.00
   10   -5   22     -0.08      0.00
   11   -5   22     -4.76      0.00
   12   -5   22      0.93      0.00
   13   -5   22      2.26      0.00
   -4   -4   22      0.18      0.00
   -3   -4   22      1.77      0.00
   -2   -4   22     -1.84      0.00
   -1   -4   22     -3.73      0.00
    0   -4   22      4.62      0.00
    1   -4   22     -1.12      0.00
    2   -4   22     -3.26      0.00
    3   -4   22      0.12      0.00
    4   -4   22      2.64      0.00
    5   -4   22     -7.19      0.00
    6   -4   22     -2.24      0.00
    7   -4   22      1.42      0.00
    8   -4   22     -0.62      0.00
    9   -4   22     -3.41      0.00
   10   -4   22      4.74      0.00
   11   -4   22     -1.90      0.00
   12   -4   22     -3.19      0.00
   13   -4   22      0.59      0.00
   -4   -3   22      0.24      0.00
   -3   -3   22      0.51      0.00
   -2   -3   22     -0.58      0.00
   -1   -3   22     -1.67      0.00
    0   -3   22      3.39      0.00
    1   -3   22     -0.56      0.00
    2   -3   22     -0.96      0.00
    3   -3   22      0.84      0.00
    4   -3   22     -3.26      0.00
    5   -3   22     -4.12      0.00
    6   -3   22      2.94      0.00
    7   -3   22     -1.42      0.00
    8   -3   22     -7.82      0.00
    9   -3   22     -0.21      0.00
   10   -3   22      1.98      0.00
   11   -3   22     -3.76      0.00
   12   -3   22      7.33      0.00
   13   -3   22     -2.05      0.00
   14   -3   22     -2.84      0.00
   -4   -2   22     -2.54      0.00
   -3   -2   22      0.92      0.00
   -2   -2   22     -2.10      0.00
   -1   -2   22      1.27      0.00
    0   -2   22      2.58      0.00
    1   -2   22     -2.97      0.00
    2   -2   22     -0.10      0.00
    3   -2   22     -1.06      0.00
    4   -2   22      0.29      0.00
    5   -2   22     -1.87      0.00
    6   -2   22      0.14      0.00
    7   -2   22     -0.95      0.00
    8   -2   22     -9.47      0.00
    9   -2   22      0.00      0.00
   10   -2   22      0.68      0.00
   11   -2   22     -2.53      0.00
   12   -2   22      4.24      0.00
   13   -2   22     -0.52      0.00
   14   -2   22      2.37      0.00
   15   -2   22      0.80      0.00
   -4   -1   22     -0.90      0.00
   -3   -1   22     -0.86      0.00
   -2   -1   22     -0.97      0.00
   -1   -1   22     -1.45      0.00
    0   -1   22      0.11      0.00
    1   -1   22     -1.59      0.00
    2   -1   22     -1.42      0.00
    3   -1   22     -1.91      0.00
    4   -1   22     -0.29      0.00
    5   -1   22      1.08      0.00
    6   -1   22     -3.24      0.00
    7   -1   22     -0.73      0.00
    8   -1   22     -1.34      0.00
    9   -1   22     -1.10      0.00
   10   -1   22     -3.94      0.00
   11   -1   22      1.18      0.00
   12   -1   22      2.71      0.00
   13   -1   22     -7.93      0.00
   14   -1   22      8.91      0.00
   15   -1   22      2.27      0.00
   -3    0   22      1.03      0.00
   -2    0   22     -1.30      0.00
   -1    0   22     -0.47      0.00
    0    0   22     -2.42      0.00
    1    0   22     -1.87      0.00
    2    0   22     -4.56      0.00
    3    0   22     -0.06      0.00
    4    0   22     -0.85      0.00
    5    0   22     -3.47      0.00
    6    0   22     -0.13      0.00
    7    0   22      1.68      0.00
    8    0   22      0.47      0.00
    9    0   22     -1.21      0.00
   10    0   22     -1.72      0.00
   11    0   22      1.77      0.00
   12    0   22     -2.93      0.00
   13    0   22      2.45      0.00
   14    0   22      0.60      0.00
   15    0   22     -0.29      0.00
   16    0   22      2.87      0.00
   -3    1   22      0.34      0.00
   -2    1   22     -0.03      0.00
   -1    1   22     -1.19      0.00
    0    1   22      1.87      0.00
    1    1   22     -3.48      0.00
    2    1   22     -4.96      0.00
    3    1   22     -4.74      0.00
    4    1   22     -1.10      0.00
    5    1   22      1.29      0.00
    6    1   22     -1.20      0.00
    7    1   22      2.59      0.00
    8    1   22      0.80      0.00
    9    1   22     -2.59      0.00
   10    1   22     -0.23      0.00
   11    1   22      1.39      0.00
   12    1   22     -0.91      0.00
   13    1   22      2.60      0.00
   14    1   22      3.05      0.00
   15    1   22     -5.03      0.00
   16    1   22      0.39      0.00
   -2    2   22     -1.60      0.00
   -1    2   22     -1.08      0.00
    0    2   22      1.73      0.00
    1    2   22     -0.69      0.00
    2    2   22     -6.67      0.00
    3    2   22     -1.80      0.00
    4    2   22     -4.76      0.00
    5    2   22      0.01      0.00
    6    2   22      4.84      0.00
    7    2   22      1.68      0.00
    8    2   22     -0.76      0.00
    9    2   22      0.13      0.00
   10    2   22     -1.48      0.00
   11    2   22     -2.34      0.00
   12    2   22      0.96      0.00
   13    2   22      4.85      0.00
   14    2   22     -4.34      0.00
   15    2   22      1.29      0.00
   16    2   22     -2.23      0.00
   -2    3   22     -1.75      0.00
   -1    3   22     -0.30      0.00
    0    3   22      0.61      0.00
    1    3   22     -5.90      0.00
    2    3   22     -1.27      0.00
    3    3   22     -0.38      0.00
    4    3   22     -2.86      0.00
    5    3   22      0.54      0.00
    6    3   22     -0.10      0.00
    7    3   22      3.22      0.00
    8    3   22     -1.44      0.00
    9    3   22     -1.52      0.00
   10    3   22      5.90      0.00
   11    3   22     -3.76      0.00
   12    3   22     -4.21      0.00
   13    3   22      3.20      0.00
   14    3   22     -3.66      0.00
   15    3   22     -1.71      0.00
   16    3   22      2.18      0.00
   17    3   22     -4.03      0.00
   -1    4   22      1.77      0.00
    0    4   22     -1.66      0.00
    1    4   22     -5.61      0.00
    2    4   22     -1.98      0.00
    3    4   22      0.63      0.00
    4    4   22      1.16      0.00
    5    4   22      3.39      0.00
    6    4   22     -2.91      0.00
    7    4   22     -3.45      0.00
    8    4   22     -0.18      0.00
    9    4   22      0.11      0.00
   10    4   22      2.08      0.00
   11    4   22      3.89      0.00
   12    4   22     -4.54      0.00
   13    4   22     -3.01      0.00
   14    4   22     -5.46      0.00
   15    4   22      1.62      0.00
   16    4   22     -1.30      0.00
   17    4   22     -2.00      0.00
    0    5   22     -0.74      0.00
    1    5   22     -2.38      0.00
    2    5   22     -0.08      0.00
    3    5   22     -0.65      0.00
    4    5   22      0.70      0.00
    5    5   22      3.28      0.00
    6    5   22     -3.77      0.00
    7    5   22     -0.27      0.00
    8    5   22     -2.69      0.00
    9    5   22      3.60      0.00
   10    5   22     -0.57      0.00
   11    5   22     -3.38      0.00
   12    5   22      3.12      0.00
   13    5   22     -4.16      0.00
   14    5   22     -5.41      0.00
   15    5   22     -3.01      0.00
   16    5   22     -0.92      0.00
   17    5   22      0.46      0.00
    0    6   22     -0.05      0.00
    1    6   22      0.69      0.00
    2    6   22     -1.59      0.00
    3    6   22      3.56      0.00
    4    6   22      1.62      0.00
    5    6   22     -6.29      0.00
    6    6   22      0.83      0.00
    7    6   22      2.07      0.00
    8    6   22     -1.20      0.00
    9    6   22      4.49      0.00
   10    6   22     -0.45      0.00
   11    6   22     -0.06      0.00
   12    6   22     -5.93      0.00
   13    6   22      0.09      0.00
   14    6   22     -3.45      0.00
   15    6   22     -4.04      0.00
   16    6   22     -2.98      0.00
   17    6   22     -1.04      0.00
    1    7   22     -0.10      0.00
    2    7   22      0.55      0.00
    3    7   22      1.02      0.00
    4    7   22      3.37      0.00
    5    7   22     -0.78      0.00
    6    7   22     -4.63      0.00
    7    7   22      2.73      0.00
    8    7   22      0.39      0.00
    9    7   22      4.21      0.00
   10    7   22      2.76      0.00
   11    7   22      2.28      0.00
   12    7   22     -4.05      0.00
   13    7   22     -4.11      0.00
   14    7   22      1.28      0.00
   15    7   22     -5.26      0.00
   16    7   22     -0.46      0.00
   17    7   22     -3.91      0.00
    2    8   22     -1.13      0.00
    3    8   22      4.51      0.00
    4    8   22      1.59      0.00
    5    8   22     -1.48      0.00
    6    8   22      4.12      0.00
    7    8   22     -2.09      0.00
    8    8   22      1.48      0.00
    9    8   22      6.55      0.00
   10    8   22     -0.89      0.00
   11    8   22      5.07      0.00
   12    8   22     -1.03      0.00
   13    8   22     -1.45      0.00
   14    8   22     -0.50      0.00
   15    8   22      0.79      0.00
   16    8   22     -3.04      0.00
   17    8   22     -1.52      0.00
    3    9   22      1.69      0.00
    4    9   22      1.96      0.00
    5    9   22      3.67      0.00
    6    9   22      1.04      0.00
    7    9   22      1.22      0.00
    8    9   22      4.30      0.00
    9    9   22      4.39      0.00
   10    9   22     -0.29      0.00
   11    9   22      2.43      0.00
   12    9   22      4.09      0.00
   13    9   22     -2.82      0.00
   14    9   22      4.09      0.00
   15    9   22      0.03      0.00
   16    9   22     -0.21      0.00
   17    9   22     -2.69      0.00
    5   10   22      5.69      0.00
    6   10   22      4.50      0.00
    7   10   22     -2.43      0.00
    8   10   22      5.62      0.00
    9   10   22      3.56      0.00
   10   10   22     -0.40      0.00
   11   10   22      7.54      0.00
   12   10   22     -1.74      0.00
   13   10   22      0.26      0.00
   14   10   22      6.87      0.00
   15   10   22      0.77      0.00
   16   10   22     -2.97      0.00
    6   11   22     -0.55      0.00
    7   11   22      6.54      0.00
    8   11   22      2.24      0.00
    9   11   22     -1.59      0.00
   10   11   22      2.61      0.00
   11   11   22      2.35      0.00
   12   11   22      5.00      0.00
   13   11   22      1.75      0.00
   14   11   22      2.22      0.00
   15   11   22     -1.92      0.00
   16   11   22      2.89      0.00
    8   12   22      4.11      0.00
    9   12   22      0.05      0.00
   10   12   22     -2.59      0.00
   11   12   22      0.19      0.00
   12   12   22      4.06      0.00
   13   12   22      6.10      0.00
   14   12   22     -0.61      0.00
   15   12   22     -2.55      0.00
    1  -11   23     -1.36      0.00
    2  -11   23      1.34      0.00
   -1  -10   23     -0.09      0.00
    0  -10   23      0.24      0.00
    1  -10   23     -0.97      0.00
    2  -10   23      2.57      0.00
    3  -10   23     -3.24      0.00
    4  -10   23      2.47      0.00
    5  -10   23      2.81      0.00
    6  -10   23     -2.96      0.00
   -2   -9   23      1.21      0.00
   -1   -9   23     -1.89      0.00
    0   -9   23      1.61      0.00
    1   -9   23     -2.13      0.00
    2   -9   23      2.05      0.00
    3   -9   23      2.31      0.00
    4   -9   23     -0.65      0.00
    5   -9   23      1.17      0.00
    6   -9   23      3.98      0.00
    7   -9   23     -5.42      0.00
   -3   -8   23     -6.02      0.00
   -2   -8   23     -0.30      0.00
   -1   -8   23      0.55      0.00
    0   -8   23     -2.45      0.00
    1   -8   23      1.08      0.00
    2   -8   23      4.86      0.00
    3   -8   23      2.10      0.00
    4   -8   23      3.78      0.00
    5   -8   23     -5.19      0.00
    6   -8   23      3.91      0.00
    7   -8   23     -1.06      0.00
    8   -8   23      2.00      0.00
    9   -8   23     -4.33      0.00
   -3   -7   23     -3.91      0.00
   -2   -7   23     -0.86      0.00
   -1   -7   23      0.51      0.00
    0   -7   23     -0.49      0.00
    1   -7   23      0.14      0.00
    2   -7   23      5.95      0.00
    3   -7   23      1.02      0.00
    4   -7   23      2.87      0.00
    5   -7   23      1.63      0.00
    6   -7   23      1.30      0.00
    7   -7   23     -3.11      0.00
    8   -7   23      4.33      0.00
    9   -7   23     -0.82      0.00
   10   -7   23     -3.11      0.00
   -3   -6   23      0.47      0.00
   -2   -6   23     -1.30      0.00
   -1   -6   23      0.22      0.00
    0   -6   23      2.23      0.00
    1   -6   23      4.73      0.00
    2   -6   23     -0.99      0.00
    3   -6   23      0.42      0.00
    4   -6   23      4.38      0.00
    5   -6   23      0.89      0.00
    6   -6   23      6.58      0.00
    7   -6   23     -2.02      0.00
    8   -6   23      1.15      0.00
    9   -6   23     -6.21      0.00
   10   -6   23      4.64      0.00
   11   -6   23     -1.23      0.00
   -3   -5   23     -2.68      0.00
   -2   -5   23      1.02      0.00
   -1   -5   23      0.43      0.00
    0   -5   23      0.95      0.00
    1   -5   23      2.37      0.00
    2   -5   23      2.09      0.00
    3   -5   23      2.24      0.00
    4   -5   23     -0.92      0.00
    5   -5   23      1.47      0.00
    6   -5   23      7.50      0.00
    7   -5   23      0.83      0.00
    8   -5   23      1.08      0.00
    9   -5   23     -3.79      0.00
   10   -5   23     -3.48      0.00
   11   -5   23      0.04      0.00
   12   -5   23      3.70      0.00
   -3   -4   23     -0.80      0.00
   -2   -4   23     -2.09      0.00
   -1   -4   23      6.46      0.00
    0   -4   23     -1.64      0.00
    1   -4   23     -3.60      0.00
    2   -4   23      3.37      0.00
    3   -4   23      2.74      0.00
    4   -4   23     -0.50      0.00
    5   -4   23      1.15      0.00
    6   -4   23      8.34      0.00
    7   -4   23     -1.43      0.00
    8   -4   23     -0.14      0.00
    9   -4   23      4.03      0.00
   10   -4   23     -3.07      0.00
   11   -4   23     -5.42      0.00
   12   -4   23      2.22      0.00
   13   -4   23     -0.19      0.00
   -3   -3   23      0.47      0.00
   -2   -3   23      0.28      0.00
   -1   -3   23      2.28      0.00
    0   -3   23      0.07      0.00
    1   -3   23     -1.43      0.00
    2   -3   23      1.20      0.00
    3   -3   23     -1.98      0.00
    4   -3   23     -0.39      0.00
    5   -3   23      8.34      0.00
    6   -3   23      0.52      0.00
    7   -3   23     -3.46      0.00
    8   -3   23      5.01      0.00
    9   -3   23      4.95      0.00
   10   -3   23     -2.21      0.00
   11   -3   23      2.16      0.00
   12   -3   23     -3.61      0.00
   13   -3   23     -6.73      0.00
   -3   -2   23      1.85      0.00
   -2   -2   23      1.00      0.00
   -1   -2   23      2.11      0.00
    0   -2   23     -3.42      0.00
    1   -2   23      2.16      0.00
    2   -2   23      1.20      0.00
    3   -2   23     -0.23      0.00
    4   -2   23      1.34      0.00
    5   -2   23     -0.47      0.00
    6   -2   23      1.77      0.00
    7   -2   23     -3.78      0.00
    8   -2   23      6.52      0.00
    9   -2   23      5.65      0.00
   10   -2   23     -2.68      0.00
   11   -2   23      3.76      0.00
   12   -2   23     -2.10      0.00
   13   -2   23     -1.74      0.00
   14   -2   23     -2.64      0.00
   -2   -1   23     -0.41      0.00
   -1   -1   23      2.07      0.00
    0   -1   23     -0.49      0.00
    1   -1   23      0.43      0.00
    2   -1   23      1.99      0.00
    3   -1   23     -0.31      0.00
    4   -1   23      4.08      0.00
    5   -1   23     -2.04      0.00
    6   -1   23     -1.75      0.00
    7   -1   23      2.77      0.00
    8   -1   23     -0.50      0.00
    9   -1   23      2.56      0.00
   10   -1   23      0.21      0.00
   11   -1   23      2.46      0.00
   12   -1   23     -1.73      0.00
   13   -1   23      2.82      0.00
   14   -1   23      1.18      0.00
   -2    0   23      0.46      0.00
   -1    0   23      0.07      0.00
    0    0   23     -0.12      0.00
    1    0   23      1.63      0.00
    2    0   23      0.70      0.00
    3    0   23      2.04      0.00
    4    0   23     -0.26      0.00
    5    0   23      0.18      0.00
    6    0   23      3.76      0.00
    7    0   23     -1.98      0.00
    8    0   23     -2.20      0.00
    9    0   23     -0.48      0.00
   10    0   23      1.69      0.00
   11    0   23      1.13      0.00
   12    0   23     -0.05      0.00
   13    0   23      3.03      0.00
   14    0   23     -2.38      0.00
   15    0   23      2.76      0.00
   -1    1   23      2.16      0.00
    0    1   23     -2.04      0.00
    1    1   23     -1.18      0.00
    2    1   23      1.83      0.00
    3    1   23      2.76      0.00
    4    1   23      4.05      0.00
    5    1   23     -2.38      0.00
    6    1   23     -1.05      0.00
    7    1   23     -0.11      0.00
    8    1   23     -3.93      0.00
    9    1   23      0.17      0.00
   10    1   23      1.54      0.00
   11    1   23      1.12      0.00
   12    1   23      0.82      0.00
   13    1   23      1.89      0.00
   14    1   23     -2.05      0.00
   15    1   23      1.85      0.00
   -1    2   23      1.95      0.00
    0    2   23      1.49      0.00
    1    2   23     -2.65      0.00
    2    2   23      1.09      0.00
    3    2   23      3.50      0.00
    4    2   23      2.64      0.00
    5    2   23      2.51      0.00
    6    2   23     -2.83      0.00
    7    2   23     -4.75      0.00
    8    2   23     -2.07      0.00
    9    2   23     -0.50      0.00
   10    2   23     -2.16      0.00
   11    2   23      1.95      0.00
   12    2   23      5.14      0.00
   13    2   23     -1.79      0.00
   14    2   23      0.85      0.00
   15    2   23      5.09      0.00
   16    2   23     -1.06      0.00
    0    3   23     -0.57      0.00
    1    3   23      3.84      0.00
    2    3   23      4.32      0.00
    3    3   23     -1.87      0.00
    4    3   23      1.33      0.00
    5    3   23      1.61      0.00
    6    3   23      0.00      0.00
    7    3   23      0.67      0.00
    8    3   23     -6.82      0.00
    9    3   23      4.73      0.00
   10    3   23     -6.30      0.00
   11    3   23     -4.95      0.00
   12    3   23      7.07      0.00
   13    3   23     -0.20      0.00
   14    3   23      3.39      0.00
   15    3   23      4.70      0.00
   16    3   23      0.14      0.00
    0    4   23     -1.96      0.00
    1    4   23      4.41      0.00
    2    4   23      5.60      0.00
    3    4   23      1.96      0.00
    4    4   23     -1.49      0.00
    5    4   23     -2.43      0.00
    6    4   23     -1.58      0.00
    7    4   23      3.96      0.00
    8    4   23      2.24      0.00
    9    4   23     -0.41      0.00
   10    4   23     -0.84      0.00
   11    4   23     -5.04      0.00
   12    4   23     -4.12      0.00
   13    4   23      1.03      0.00
   14    4   23      6.93      0.00
   15    4   23      3.70      0.00
   16    4   23     -0.25      0.00
    1    5   23      1.74      0.00
    2    5   23      2.38      0.00
    3    5   23     -0.31      0.00
    4    5   23      3.32      0.00
    5    5   23     -2.20      0.00
    6    5   23     -3.31      0.00
    7    5   23      4.07      0.00
    8    5   23      1.54      0.00
    9    5   23      3.04      0.00
   10    5   23     -6.84      0.00
   11    5   23      4.51      0.00
   12    5   23     -1.97      0.00
   13    5   23     -6.58      0.00
   14    5   23      4.54      0.00
   15    5   23      2.37      0.00
   16    5   23      4.37      0.00
    2    6   23     -1.80      0.00
    3    6   23      1.86      0.00
    4    6   23     -4.98      0.00
    5    6   23      2.75      0.00
    6    6   23      4.75      0.00
    7    6   23     -1.50      0.00
    8    6   23     -1.32      0.00
    9    6   23     -0.64      0.00
   10    6   23     -0.06      0.00
   11    6   23     -4.52      0.00
   12    6   23      3.37      0.00
   13    6   23      0.90      0.00
   14    6   23     -3.23      0.00
   15    6   23      0.26      0.00
   16    6   23      3.59      0.00
    3    7   23     -0.34      0.00
    4    7   23     -1.58      0.00
    5    7   23     -3.39      0.00
    6    7   23      4.61      0.00
    7    7   23      0.53      0.00
    8    7   23     -2.60      0.00
    9    7   23     -0.74      0.00
   10    7   23     -2.97      0.00
   11    7   23     -2.23      0.00
   12    7   23     -3.35      0.00
   13    7   23      3.46      0.00
   14    7   23     -0.14      0.00
   15    7   23     -2.04      0.00
   16    7   23      1.46      0.00
    4    8   23     -5.56      0.00
    5    8   23      3.28      0.00
    6    8   23     -2.16      0.00
    7    8   23     -3.33      0.00
    8    8   23      2.98      0.00
    9    8   23     -5.42      0.00
   10    8   23     -1.93      0.00
   11    8   23     -3.59      0.00
   12    8   23     -1.79      0.00
   13    8   23     -0.58      0.00
   14    8   23      0.24      0.00
   15    8   23     -2.07      0.00
   16    8   23     -0.72      0.00
    5    9   23     -2.16      0.00
    6    9   23     -1.49      0.00
    7    9   23      0.17      0.00
    8    9   23     -1.28      0.00
    9    9   23     -7.49      0.00
   10    9   23      0.03      0.00
   11    9   23     -2.08      0.00
   12    9   23     -4.75      0.00
   13    9   23      0.85      0.00
   14    9   23     -1.92      0.00
   15    9   23     -3.42      0.00
    7   10   23      0.61      0.00
    8   10   23      0.21      0.00
    9   10   23     -5.06      0.00
   10   10   23      0.06      0.00
   11   10   23     -3.76      0.00
   12   10   23     -3.16      0.00
   13   10   23      1.00      0.00
   14   10   23     -3.99      0.00
   15   10   23     -3.49      0.00
    9   11   23     -0.61      0.00
   10   11   23      1.49      0.00
   11   11   23     -2.23      0.00
   12   11   23     -1.51      0.00
   13   11   23     -2.70      0.00
   14   11   23     -3.37      0.00
    1   -9   24      0.49      0.00
    2   -9   24      2.65      0.00
    3   -9   24     -4.04      0.00
    4   -9   24      0.43      0.00
    5   -9   24     -0.16      0.00
    0   -8   24     -0.75      0.00
    1   -8   24      2.72      0.00
    2   -8   24     -4.37      0.00
    3   -8   24     -1.18      0.00
    4   -8   24     -4.82      0.00
    5   -8   24      0.44      0.00
    6   -8   24      1.21      0.00
    7   -8   24      0.41      0.00
   -1   -7   24     -1.27      0.00
    0   -7   24     -0.99      0.00
    1   -7   24      1.12      0.00
    2   -7   24     -4.05      0.00
    3   -7   24     -4.54      0.00
    4   -7   24     -1.25      0.00
    5   -7   24     -1.46      0.00
    6   -7   24     -3.03      0.00
    7   -7   24      3.14      0.00
    8   -7   24      0.06      0.00
   -1   -6   24      2.69      0.00
    0   -6   24     -2.34      0.00
    1   -6   24     -1.88      0.00
    2   -6   24     -5.68      0.00
    3   -6   24      0.46      0.00
    4   -6   24     -1.95      0.00
    5   -6   24      0.23      0.00
    6   -6   24     -6.17      0.00
    7   -6   24     -0.24      0.00
    8   -6   24     -1.78      0.00
    9   -6   24      5.90      0.00
   -1   -5   24     -1.08      0.00
    0   -5   24      0.29      0.00
    1   -5   24     -0.10      0.00
    2   -5   24     -3.52      0.00
    3   -5   24     -2.84      0.00
    4   -5   24     -0.29      0.00
    5   -5   24      1.29      0.00
    6   -5   24     -5.96      0.00
    7   -5   24     -0.61      0.00
    8   -5   24     -2.41      0.00
    9   -5   24      1.62      0.00
   10   -5   24      3.88      0.00
   11   -5   24      5.67      0.00
   -1   -4   24     -1.85      0.00
    0   -4   24     -5.06      0.00
    1   -4   24      4.60      0.00
    2   -4   24     -0.39      0.00
    3   -4   24     -0.95      0.00
    4   -4   24     -1.37      0.00
    5   -4   24      0.37      0.00
    6   -4   24     -4.36      0.00
    7   -4   24     -2.32      0.00
    8   -4   24      2.24      0.00
    9   -4   24     -1.24      0.00
   10   -4   24     -1.42      0.00
   11   -4   24      6.66      0.00
   -1   -3   24     -0.16      0.00
    0   -3   24     -2.31      0.00
    1   -3   24     -0.55      0.00
    2   -3   24      1.02      0.00
    3   -3   24     -1.38      0.00
    4   -3   24      6.93      0.00
    5   -3   24     -3.23      0.00
    6   -3   24     -6.89      0.00
    7   -3   24      5.11      0.00
    8   -3   24     -1.34      0.00
    9   -3   24     -1.11      0.00
   10   -3   24     -0.50      0.00
   11   -3   24     -0.18      0.00
   12   -3   24     -0.64      0.00
   -1   -2   24     -1.57      0.00
    0   -2   24      1.10      0.00
    1   -2   24      1.97      0.00
    2   -2   24     -2.69      0.00
    3   -2   24      1.05      0.00
    4   -2   24      0.81      0.00
    5   -2   24     -0.54      0.00
    6   -2   24      0.58      0.00
    7   -2   24      3.39      0.00
    8   -2   24      2.07      0.00
    9   -2   24     -7.12      0.00
   10   -2   24      0.75      0.00
   11   -2   24      0.48      0.00
   12   -2   24     -1.89      0.00
   13   -2   24      0.68      0.00
   -1   -1   24      0.61      0.00
    0   -1   24      0.25      0.00
    1   -1   24      2.78      0.00
    2   -1   24     -0.26      0.00
    3   -1   24      1.23      0.00
    4   -1   24      0.77      0.00
    5   -1   24     -4.66      0.00
    6   -1   24      6.13      0.00
    7   -1   24      1.19      0.00
    8   -1   24      0.47      0.00
    9   -1   24     -0.83      0.00
   10   -1   24     -1.79      0.00
   11   -1   24      0.71      0.00
   12   -1   24     -2.07      0.00
   13   -1   24      0.43      0.00
    0    0   24      2.87      0.00
    1    0   24     -0.02      0.00
    2    0   24      2.91      0.00
    3    0   24      1.53      0.00
    4    0   24     -0.28      0.00
    5    0   24      3.01      0.00
    6    0   24      0.00      0.00
    7    0   24     -2.24      0.00
    8    0   24      2.37      0.00
    9    0   24      2.39      0.00
   10    0   24      2.00      0.00
   11    0   24     -5.44      0.00
   12    0   24      1.13      0.00
   13    0   24     -3.34      0.00
   14    0   24     -0.75      0.00
    0    1   24     -0.72      0.00
    1    1   24      4.03      0.00
    2    1   24      2.79      0.00
    3    1   24      1.19      0.00
    4    1   24     -1.19      0.00
    5    1   24     -0.80      0.00
    6    1   24      3.85      0.00
    7    1   24      0.71      0.00
    8    1   24      1.88      0.00
    9    1   24      2.25      0.00
   10    1   24      0.68      0.00
   11    1   24     -2.67      0.00
   12    1   24     -1.07      0.00
   13    1   24     -4.05      0.00
   14    1   24     -0.67      0.00
    1    2   24     -0.36      0.00
    2    2   24      4.48      0.00
    3    2   24      0.23      0.00
    4    2   24     -1.50      0.00
    5    2   24     -2.29      0.00
    6    2   24     -0.24      0.00
    7    2   24      3.06      0.00
    8    2   24      4.59      0.00
    9    2   24     -0.40      0.00
   10    2   24      2.20      0.00
   11    2   24      1.95      0.00
   12    2   24     -3.03      0.00
   13    2   24     -5.15      0.00
   14    2   24      2.55      0.00
   15    2   24     -7.06      0.00
    1    3   24      0.20      0.00
    2    3   24     -4.34      0.00
    3    3   24     -1.05      0.00
    4    3   24      3.27      0.00
    5    3   24     -1.12      0.00
    6    3   24     -0.29      0.00
    7    3   24     -4.27      0.00
    8    3   24      2.62      0.00
    9    3   24      0.28      0.00
   10    3   24     -1.08      0.00
   11    3   24      7.92      0.00
   12    3   24     -0.01      0.00
   13    3   24     -3.19      0.00
   14    3   24      0.10      0.00
   15    3   24     -5.97      0.00
    2    4   24     -4.34      0.00
    3    4   24     -4.28      0.00
    4    4   24      0.09      0.00
    5    4   24      1.86      0.00
    6    4   24      2.81      0.00
    7    4   24     -1.54      0.00
    8    4   24     -4.79      0.00
    9    4   24     -3.54      0.00
   10    4   24      0.90      0.00
   11    4   24     -2.07      0.00
   12    4   24      6.69      0.00
   13    4   24      4.12      0.00
   14    4   24     -1.02      0.00
   15    4   24     -5.58      0.00
    3    5   24     -0.06      0.00
    4    5   24     -0.12      0.00
    5    5   24     -4.01      0.00
    6    5   24      5.11      0.00
    7    5   24     -0.44      0.00
    8    5   24     -1.23      0.00
    9    5   24     -7.12      0.00
   10    5   24      0.35      0.00
   11    5   24      1.49      0.00
   12    5   24     -5.01      0.00
   13    5   24      5.80      0.00
   14    5   24      4.19      0.00
   15    5   24     -1.52      0.00
    4    6   24      0.92      0.00
    5    6   24      4.55      0.00
    6    6   24     -3.79      0.00
    7    6   24     -4.00      0.00
    8    6   24      3.39      0.00
    9    6   24     -0.93      0.00
   10    6   24     -1.54      0.00
   11    6   24      0.14      0.00
   12    6   24      2.92      0.00
   13    6   24     -5.35      0.00
   14    6   24      2.12      0.00
   15    6   24      3.79      0.00
    5    7   24      2.02      0.00
    6    7   24      0.32      0.00
    7    7   24     -2.72      0.00
    8    7   24      1.70      0.00
    9    7   24      0.03      0.00
   10    7   24      2.73      0.00
   11    7   24     -1.44      0.00
   12    7   24      2.00      0.00
   13    7   24      2.54      0.00
   14    7   24     -4.54      0.00
   15    7   24      2.48      0.00
    6    8   24     -3.31      0.00
    7    8   24      3.43      0.00
    8    8   24      0.83      0.00
    9    8   24      0.17      0.00
   10    8   24      2.97      0.00
   11    8   24     -0.35      0.00
   12    8   24      4.56      0.00
   13    8   24     -1.67      0.00
   14    8   24      0.02      0.00
    8    9   24     -2.33      0.00
    9    9   24      4.48      0.00
   10    9   24      2.04      0.00
   11    9   24      0.06      0.00
   12    9   24      2.43      0.00
   13    9   24      0.84      0.00
    3   -7   25      3.90      0.00
    4   -7   25      3.25      0.00
    5   -7   25     -0.02      0.00
    2   -6   25      1.98      0.00
    3   -6   25      4.99      0.00
    4   -6   25     -0.99      0.00
    5   -6   25     -0.35      0.00
    6   -6   25      0.69      0.00
    7   -6   25      3.89      0.00
    1   -5   25     -2.94      0.00
    2   -5   25      2.49      0.00
    3   -5   25      1.58      0.00
    4   -5   25      1.12      0.00
    5   -5   25     -2.78      0.00
    6   -5   25      2.16      0.00
    7   -5   25      2.19      0.00
    8   -5   25     -0.98      0.00
    9   -5   25      1.73      0.00
    1   -4   25      0.64      0.00
    2   -4   25     -1.68      0.00
    3   -4   25      0.12      0.00
    4   -4   25     -2.67      0.00
    5   -4   25      0.55      0.00
    6   -4   25      0.15      0.00
    7   -4   25      1.84      0.00
    8   -4   25      0.00      0.00
    9   -4   25     -2.54      0.00
   10   -4   25      1.77      0.00
    1   -3   25      2.33      0.00
    2   -3   25     -0.31      0.00
    3   -3   25      1.33      0.00
    4   -3   25     -2.95      0.00
    5   -3   25     -7.49      0.00
    6   -3   25      5.28      0.00
    7   -3   25     -1.53      0.00
    8   -3   25     -1.07      0.00
    9   -3   25     -0.10      0.00
   10   -3   25     -0.99      0.00
   11   -3   25     -0.69      0.00
    1   -2   25     -3.93      0.00
    2   -2   25      0.57      0.00
    3   -2   25      1.63      0.00
    4   -2   25     -4.73      0.00
    5   -2   25      1.52      0.00
    6   -2   25     -1.94      0.00
    7   -2   25     -2.70      0.00
    8   -2   25     -5.40      0.00
    9   -2   25      0.20      0.00
   10   -2   25      5.42      0.00
   11   -2   25     -4.18      0.00
    1   -1   25     -3.33      0.00
    2   -1   25     -2.65      0.00
    3   -1   25     -1.26      0.00
    4   -1   25     -4.85      0.00
    5   -1   25      3.51      0.00
    6   -1   25      0.21      0.00
    7   -1   25     -6.57      0.00
    8   -1   25     -1.46      0.00
    9   -1   25     -2.66      0.00
   10   -1   25      2.40      0.00
   11   -1   25      0.26      0.00
   12   -1   25      1.34      0.00
    2    0   25     -1.67      0.00
    3    0   25     -5.11      0.00
    4    0   25     -2.60      0.00
    5    0   25      1.09      0.00
    6    0   25     -5.65      0.00
    7    0   25      0.28      0.00
    8    0   25      2.14      0.00
    9    0   25     -2.37      0.00
   10    0   25     -4.33      0.00
   11    0   25      1.40      0.00
   12    0   25      3.38      0.00
   13    0   25      0.23      0.00
    2    1   25     -3.81      0.00
    3    1   25     -3.65      0.00
    4    1   25     -2.09      0.00
    5    1   25      1.30      0.00
    6    1   25     -1.21      0.00
    7    1   25     -2.52      0.00
    8    1   25      0.32      0.00
    9    1   25     -2.22      0.00
   10    1   25     -0.71      0.00
   11    1   25     -0.67      0.00
   12    1   25      0.95      0.00
   13    1   25      3.37      0.00
    3    2   25     -4.08      0.00
    4    2   25     -1.18      0.00
    5    2   25      2.55      0.00
    6    2   25      1.23      0.00
    7    2   25      2.06      0.00
    8    2   25     -2.91      0.00
    9    2   25     -1.49      0.00
   10    2   25      1.62      0.00
   11    2   25     -2.40      0.00
   12    2   25     -1.17      0.00
   13    2   25      3.91      0.00
    3    3   25      3.10      0.00
    4    3   25     -1.16      0.00
    5    3   25     -2.74      0.00
    6    3   25      1.69      0.00
    7    3   25      0.92      0.00
    8    3   25      6.84      0.00
    9    3   25     -1.21      0.00
   10    3   25      4.02      0.00
   11    3   25     -1.88      0.00
   12    3   25     -4.72      0.00
   13    3   25      2.12      0.00
    4    4   25      1.46      0.00
    5    4   25     -0.29      0.00
    6    4   25     -2.72      0.00
    7    4   25     -1.09      0.00
    8    4   25      4.02      0.00
    9    4   25      6.51      0.00
   10    4   25      1.92      0.00
   11    4   25      4.18      0.00
   12    4   25      0.17      0.00
   13    4   25     -3.82      0.00
    5    5   25      1.07      0.00
    6    5   25      1.29      0.00
    7    5   25     -3.00      0.00
    8    5   25      0.62      0.00
    9    5   25      0.71      0.00
   10    5   25      9.48      0.00
   11    5   25     -1.79      0.00
   12    5   25      3.89      0.00
   13    5   25      3.58      0.00
    6    6   25     -2.36      0.00
    7    6   25      3.63      0.00
    8    6   25      0.04      0.00
    9    6   25     -0.77      0.00
   10    6   25      0.86      0.00
   11    6   25      4.21      0.00
   12    6   25     -2.38      0.00
   13    6   25      2.51      0.00
    8    7   25      0.16      0.00
    9    7   25     -0.14      0.00
   10    7   25     -1.56      0.00
   11    7   25     -0.17      0.00
   12    7   25      3.16      0.00
    5   -4   26      4.78      0.00
    4   -3   26     -1.93      0.00
    5   -3   26      6.77      0.00
    6   -3   26      2.85      0.00
    7   -3   26     -0.60      0.00
    8   -3   26      2.55      0.00
    4   -2   26      1.53      0.00
    5   -2   26      2.88      0.00
    6   -2   26     -1.80      0.00
    7   -2   26      3.80      0.00
    8   -2   26      2.85      0.00
    9   -2   26      5.48      0.00
    4   -1   26      3.10      0.00
    5   -1   26      2.25      0.00
    6   -1   26     -4.96      0.00
    7   -1   26      3.12      0.00
    8   -1   26      3.50      0.00
    9   -1   26      3.12      0.00
   10   -1   26      1.91      0.00
    4    0   26      4.61      0.00
    5    0   26     -0.58      0.00
    6    0   26     -1.39      0.00
    7    0   26      6.23      0.00
    8    0   26     -2.51      0.00
    9    0   26     -0.85      0.00
   10    0   26      2.22      0.00
    5    1   26     -0.76      0.00
    6    1   26     -0.55      0.00
    7    1   26      0.65      0.00
    8    1   26     -0.70      0.00
    9    1   26      1.12      0.00
   10    1   26     -0.88      0.00
   11    1   26      2.12      0.00
    5    2   26     -0.03      0.00
    6    2   26     -2.60      0.00
    7    2   26     -2.40      0.00
    8    2   26     -3.23      0.00
    9    2   26      2.65      0.00
   10    2   26     -1.87      0.00
   11    2   26      0.47      0.00
    6    3   26     -0.05      0.00
    7    3   26      0.03      0.00
    8    3   26     -3.57      0.00
    9    3   26     -4.71      0.00
   10    3   26     -1.81      0.00
   11    3   26     -2.98      0.00
    8    4   26     -1.64      0.00
    9    4   26     -2.68      0.00
   10    4   26     -5.21      0.00
   11    4   26     -2.02      0.00
    1    0    0    -19.67      0.00
   18    0    0     -0.15      0.00
    0    1    0     97.49      0.00
    1    1    0     59.14      0.00
  -17    2    0     -1.64      0.00
   19    3    0     -2.93      0.00
  -16    4    0     -3.48      0.00
   20    6    0      0.21      0.00
  -14    7    0      2.57      0.00
  -12   10    0      0.27      0.00
  -11   11    0     -0.85      0.00
  -10   12    0      1.81      0.00
   -9   13    0      0.05      0.00
   -8   14    0      2.14      0.00
   -7   15    0     -0.70      0.00
   20   15    0     -1.07      0.00
   -6   16    0     -0.13      0.00
   20   16    0     -1.05      0.00
   19   18    0      2.14      0.00
   -2   19    0     -1.08      0.00
   18   19    0      0.09      0.00
    0   20    0     -1.32      0.00
    2   21    0      0.60      0.00
   16   21    0     -0.66      0.00
    5   22    0      0.29      0.00
   14   22    0     -0.72      0.00
  -14  -22    1      2.20      0.00
   -5  -22    1     -1.92      0.00
   -4  -22    1     -0.47      0.00
  -16  -21    1      1.59      0.00
   -2  -21    1     -0.67      0.00
  -17  -20    1      0.33      0.00
    0  -20    1      2.41      0.00
  -18  -19    1     -0.10      0.00
    2  -19    1     -0.31      0.00
  -19  -17    1     -0.79      0.00
    5  -17    1     -1.64      0.00
    6  -16    1     -0.40      0.00
  -20  -15    1     -0.62      0.00
  -20  -14    1      0.24      0.00
  -20  -13    1     -1.53      0.00
   12  -10    1      0.95      0.00
  -20   -9    1     -0.68      0.00
   13   -9    1     -0.28      0.00
  -20   -8    1      0.02      0.00
  -20   -7    1     -1.37      0.00
   15   -6    1      0.06      0.00
  -19   -3    1     -1.36      0.00
  -18   -1    1      0.28      0.00
   -1   -1    1      0.59      0.00
    0   -1    1    -98.87      0.00
    0    0    1   -111.93      0.00
    1    0    1   -181.51      0.00
    0    1    1    -45.84      0.00
    1    1    1    -45.87      0.00
   19    2    1     -0.13      0.00
  -15    5    1     -1.58      0.00
   20    5    1     -2.34      0.00
  -13    8    1      1.37      0.00
   21   11    1     -0.82      0.00
   -9   13    1     -1.88      0.00
   -8   14    1     -2.13      0.00
   20   16    1      0.16      0.00
   -3   18    1      0.98      0.00
   19   18    1     -0.54      0.00
    0   20    1      1.17      0.00
    2   21    1      0.52      0.00
    5   22    1      2.81      0.00
   15   22    1      0.13      0.00
  -14  -22    2     -0.50      0.00
   -4  -22    2      0.61      0.00
   -2  -21    2      0.49      0.00
  -17  -20    2     -0.05      0.00
    2  -19    2      1.29      0.00
  -19  -17    2     -2.20      0.00
    5  -17    2      0.88      0.00
  -19  -16    2     -0.08      0.00
  -20  -13    2     -0.79      0.00
  -20  -12    2     -0.35      0.00
  -20  -11    2      0.80      0.00
  -20  -10    2      0.08      0.00
  -20   -9    2     -0.27      0.00
   13   -9    2      0.30      0.00
   14   -8    2     -0.21      0.00
  -19   -5    2     -1.49      0.00
   16   -5    2     -3.49      0.00
  -19   -4    2     -0.13      0.00
   17   -3    2      2.11      0.00
   18   -1    2      1.19      0.00
    0    0    2   -117.10      0.00
    1    0    2    140.00      0.00
  -17    1    2     -1.32      0.00
   19    1    2      0.50      0.00
  -16    3    2     -1.55      0.00
   20    4    2     -0.31      0.00
  -14    6    2      2.22      0.00
   21    8    2      0.79      0.00
  -12    9    2      2.76      0.00
   21    9    2      1.93      0.00
   21   10    2      0.48      0.00
   21   11    2     -0.44      0.00
   21   12    2     -1.41      0.00
   21   13    2     -1.27      0.00
   21   14    2      0.10      0.00
   -5   16    2     -2.18      0.00
   -4   17    2      0.86      0.00
   20   17    2     -0.64      0.00
   -1   19    2     -4.18      0.00
   19   19    2      0.47      0.00
    1   20    2     -3.91      0.00
   18   20    2      0.06      0.00
    3   21    2      1.15      0.00
   17   21    2     -0.83      0.00
    5   22    2     -0.81      0.00
   15   22    2     -0.52      0.00
  -13  -22    3      2.66      0.00
   -5  -22    3      0.04      0.00
   -4  -22    3      0.56      0.00
  -15  -21    3      2.49      0.00
  -16  -20    3      1.01      0.00
  -17  -19    3      1.44      0.00
  -18  -18    3      1.05      0.00
    4  -18    3     -1.21      0.00
  -19  -16    3     -0.66      0.00
  -19  -15    3     -0.20      0.00
    9  -14    3     -1.12      0.00
   10  -13    3     -2.13      0.00
   14   -8    3     -0.87      0.00
  -19   -6    3     -0.79      0.00
   16   -5    3     -0.86      0.00
  -18   -2    3      0.54      0.00
  -17    0    3      0.51      0.00
   19    1    3      0.50      0.00
  -16    2    3     -0.56      0.00
   20    3    3      0.81      0.00
  -15    4    3     -1.25      0.00
  -13    7    3      0.53      0.00
   21    7    3     -0.04      0.00
   21    8    3     -0.38      0.00
  -11   10    3     -3.42      0.00
  -10   11    3     -1.53      0.00
   -9   12    3     -1.45      0.00
   -8   13    3      0.07      0.00
   21   13    3     -0.71      0.00
   -7   14    3     -0.44      0.00
   21   14    3      0.94      0.00
   -6   15    3     -0.53      0.00
   21   15    3      1.78      0.00
   -5   16    3      2.17      0.00
   20   17    3     -0.72      0.00
   -2   18    3      2.29      0.00
   19   19    3     -0.72      0.00
    1   20    3      2.92      0.00
   18   20    3      0.19      0.00
    3   21    3     -0.29      0.00
   17   21    3      0.82      0.00
    6   22    3     -0.04      0.00
   15   22    3      0.10      0.00
  -13  -22    4      1.50      0.00
  -12  -22    4     -3.42      0.00
   -5  -22    4     -2.80      0.00
   -4  -22    4      0.65      0.00
  -16  -20    4      0.65      0.00
    1  -20    4     -2.13      0.00
  -17  -19    4     -0.81      0.00
    4  -18    4     -0.02      0.00
  -18  -17    4     -1.09      0.00
    8  -15    4      0.40      0.00
  -19  -14    4      0.05      0.00
    9  -14    4      0.68      0.00
  -19  -13    4      0.04      0.00
   10  -13    4      1.13      0.00
  -19  -12    4      1.15      0.00
   11  -12    4      0.68      0.00
   12  -11    4     -0.12      0.00
  -19  -10    4      1.09      0.00
  -19   -9    4      1.49      0.00
  -19   -8    4      0.38      0.00
  -19   -7    4      0.37      0.00
   15   -7    4      2.33      0.00
  -18   -4    4      0.21      0.00
   17   -4    4     -0.07      0.00
   18   -2    4      0.67      0.00
  -17   -1    4     -2.79      0.00
   19    0    4     -0.38      0.00
   20    3    4     -0.18      0.00
  -14    5    4     -0.16      0.00
   21    6    4      0.62      0.00
   21    7    4     -0.36      0.00
  -12    8    4     -1.68      0.00
   21   15    4     -1.46      0.00
   -3   17    4     -1.37      0.00
   -2   18    4      0.92      0.00
   20   18    4      0.78      0.00
    0   19    4     -1.43      0.00
   19   19    4     -1.12      0.00
   18   20    4     -0.03      0.00
    4   21    4      1.88      0.00
   17   21    4      0.78      0.00
    6   22    4      4.27      0.00
    7   22    4     -1.04      0.00
   15   22    4      0.62      0.00
  -12  -22    5      1.79      0.00
  -11  -22    5     -0.42      0.00
   -5  -22    5      1.20      0.00
  -14  -21    5      0.51      0.00
   -2  -21    5      1.26      0.00
  -15  -20    5     -1.27      0.00
    1  -20    5      2.28      0.00
  -16  -19    5      0.44      0.00
  -17  -18    5     -0.15      0.00
    4  -18    5      1.43      0.00
  -18  -16    5     -0.31      0.00
    7  -16    5     -1.73      0.00
    8  -15    5      1.32      0.00
    9  -14    5     -0.06      0.00
   10  -13    5      0.69      0.00
   11  -12    5     -0.62      0.00
   12  -11    5      2.12      0.00
   13  -10    5     -1.04      0.00
    7   -7    5    -11.63      0.00
   15   -7    5     -4.19      0.00
   16   -6    5      0.53      0.00
  -18   -5    5     -0.94      0.00
   17   -4    5     -0.29      0.00
  -17   -2    5      0.09      0.00
   18   -2    5      0.50      0.00
   19    0    5      0.42      0.00
   20    2    5      0.20      0.00
   21    5    5     -0.50      0.00
  -13    6    5      1.99      0.00
   21    6    5      2.10      0.00
  -11    9    5      1.68      0.00
  -10   10    5     -0.66      0.00
   21   15    5      1.39      0.00
   -4   16    5     -0.02      0.00
   21   16    5      0.91      0.00
   -3   17    5      1.34      0.00
   20   18    5     -0.79      0.00
    0   19    5     -0.32      0.00
   19   19    5      0.38      0.00
    2   20    5      2.62      0.00
   18   20    5      0.28      0.00
    4   21    5      0.00      0.00
   17   21    5      0.39      0.00
    7   22    5     -1.23      0.00
    8   22    5      0.09      0.00
   14   22    5     -0.85      0.00
   15   22    5     -0.77      0.00
  -11  -22    6     -2.15      0.00
  -10  -22    6      1.67      0.00
   -9  -22    6      3.18      0.00
   -7  -22    6     -3.25      0.00
   -6  -22    6      1.86      0.00
   -5  -22    6      1.93      0.00
  -13  -21    6     -1.50      0.00
   -2  -21    6      0.42      0.00
  -15  -20    6      1.24      0.00
    1  -20    6     -0.20      0.00
    4  -18    6     -1.56      0.00
  -17  -17    6     -0.21      0.00
    7  -16    6     -0.13      0.00
    8  -15    6      1.39      0.00
  -18  -14    6      3.01      0.00
    9  -14    6     -0.14      0.00
  -18  -13    6      0.64      0.00
   12  -11    6     -0.95      0.00
   13  -10    6      0.12      0.00
  -18   -8    6     -1.11      0.00
  -18   -7    6     -0.59      0.00
   16   -6    6     -0.51      0.00
  -17   -3    6     -1.19      0.00
  -16    0    6     -1.51      0.00
  -15    2    6      0.96      0.00
   20    2    6      0.85      0.00
   21    5    6     -0.90      0.00
  -12    7    6      0.14      0.00
   -8   12    6     -1.60      0.00
   -7   13    6     -0.29      0.00
   -6   14    6     -2.08      0.00
   21   15    6     -0.52      0.00
   21   16    6      0.24      0.00
   -1   18    6      2.17      0.00
   20   18    6     -1.29      0.00
    1   19    6      1.89      0.00
   19   19    6      1.92      0.00
   18   20    6     -0.07      0.00
    5   21    6     -2.43      0.00
   17   21    6     -1.36      0.00
    8   22    6     -0.98      0.00
    9   22    6      2.02      0.00
   14   22    6      0.46      0.00
   15   22    6      0.96      0.00
   -9  -22    7      1.92      0.00
   -8  -22    7     -4.60      0.00
   -7  -22    7     -0.44      0.00
   -6  -22    7      0.54      0.00
  -12  -21    7      0.64      0.00
   -2  -21    7     -1.74      0.00
  -14  -20    7     -0.41      0.00
  -15  -19    7     -1.24      0.00
  -16  -18    7      0.38      0.00
    4  -18    7      0.20      0.00
  -17  -16    7     -0.38      0.00
    7  -16    7      0.16      0.00
    8  -15    7     -1.91      0.00
  -18  -11    7      1.41      0.00
  -18  -10    7      0.04      0.00
   13  -10    7      3.00      0.00
   14   -9    7     -0.48      0.00
    2   -8    7     -4.89      0.00
   16   -6    7     -0.91      0.00
  -17   -5    7     -0.29      0.00
  -17   -4    7     -0.57      0.00
   18   -3    7      0.63      0.00
   19   -1    7     -2.37      0.00
  -15    1    7      0.98      0.00
   20    2    7     -0.37      0.00
  -14    3    7     -0.66      0.00
   21    5    7      1.51      0.00
  -12    6    7      2.54      0.00
  -10    9    7     -1.96      0.00
   -3   16    7     -0.37      0.00
   21   16    7     -0.40      0.00
   20   18    7      2.10      0.00
   19   19    7     -1.14      0.00
    3   20    7      1.21      0.00
   18   20    7      0.33      0.00
    6   21    7      0.51      0.00
   17   21    7     -0.37      0.00
    9   22    7     -0.24      0.00
   10   22    7      1.92      0.00
   11   22    7      4.22      0.00
   12   22    7     -1.69      0.00
   13   22    7      1.82      0.00
   14   22    7     -0.54      0.00
  -11  -21    8     -0.09      0.00
   -3  -21    8     -1.81      0.00
   -2  -21    8      1.30      0.00
  -13  -20    8      0.69      0.00
    0  -20    8      0.56      0.00
  -14  -19    8     -2.21      0.00
    2  -19    8     -2.21      0.00
  -15  -18    8     -1.16      0.00
    4  -18    8     -0.04      0.00
  -16  -17    8     -0.23      0.00
    7  -16    8     -2.14      0.00
    8  -15    8     -1.11      0.00
  -17  -14    8      1.36      0.00
  -17  -13    8      1.10      0.00
   13  -10    8     -0.51      0.00
   14   -9    8      2.49      0.00
  -17   -8    8     -0.71      0.00
  -17   -7    8     -1.20      0.00
  -17   -6    8      0.80      0.00
   16   -6    8     -0.90      0.00
  -16   -3    8      0.12      0.00
   18   -3    8     -0.02      0.00
   19   -1    8      0.71      0.00
  -15    0    8     -1.28      0.00
   20    1    8      0.43      0.00
  -14    2    8      0.80      0.00
  -13    4    8     -1.42      0.00
   21    4    8     -0.80      0.00
  -11    7    8      0.95      0.00
   -7   12    8      0.12      0.00
   -6   13    8      0.13      0.00
   -5   14    8      0.09      0.00
   21   16    8      0.44      0.00
   -1   17    8      0.25      0.00
   20   18    8      0.84      0.00
    2   19    8     -0.70      0.00
   19   19    8     -0.79      0.00
    4   20    8     -1.00      0.00
   18   20    8      0.24      0.00
    7   21    8      2.19      0.00
   16   21    8     -2.10      0.00
   11   22    8     -3.65      0.00
   12   22    8     -0.78      0.00
   13   22    8     -0.10      0.00
  -10  -21    9      1.10      0.00
   -9  -21    9     -0.76      0.00
   -4  -21    9     -0.19      0.00
   -3  -21    9      0.61      0.00
  -12  -20    9     -1.65      0.00
    0  -20    9     -0.49      0.00
    2  -19    9      4.50      0.00
    4  -18    9      3.36      0.00
  -15  -17    9     -1.20      0.00
    7  -16    9      1.88      0.00
  -16  -15    9      0.53      0.00
    8  -15    9     -0.13      0.00
   13  -10    9     -2.81      0.00
   14   -9    9     -0.78      0.00
  -16   -5    9     -0.47      0.00
   17   -5    9     -1.46      0.00
  -16   -4    9     -0.71      0.00
   18   -3    9      2.84      0.00
   19   -1    9      0.80      0.00
  -14    1    9      0.79      0.00
   20    1    9     -1.11      0.00
  -13    3    9      0.19      0.00
   21    4    9     -0.78      0.00
  -11    6    9      0.56      0.00
   -9    9    9     -1.08      0.00
   -8   10    9     -0.29      0.00
   -3   15    9     -3.57      0.00
   -2   16    9     -1.14      0.00
   21   16    9     -0.02      0.00
    1   18    9      1.18      0.00
   20   18    9     -3.06      0.00
    3   19    9     -2.21      0.00
   19   19    9      0.18      0.00
    5   20    9     -2.28      0.00
   18   20    9     -2.76      0.00
    8   21    9     -2.52      0.00
   15   21    9      0.22      0.00
   16   21    9      0.31      0.00
   -9  -21   10     -0.11      0.00
   -8  -21   10     -0.54      0.00
   -7  -21   10     -0.64      0.00
   -6  -21   10     -0.87      0.00
   -5  -21   10     -2.12      0.00
   -4  -21   10     -1.07      0.00
  -11  -20   10      0.84      0.00
   -1  -20   10      3.06      0.00
  -13  -19   10     -1.12      0.00
    2  -19   10     -2.48      0.00
  -14  -18   10      0.45      0.00
    4  -18   10     -1.60      0.00
  -15  -16   10     -1.33      0.00
    7  -16   10      0.62      0.00
    8  -15   10      0.60      0.00
    9  -14   10      3.39      0.00
  -16  -13   10      0.58      0.00
  -16  -12   10      0.44      0.00
  -16  -11   10      0.19      0.00
   13  -10   10      0.65      0.00
  -16   -9   10     -0.81      0.00
   14   -9   10     -1.13      0.00
  -16   -8   10     -0.73      0.00
  -16   -7   10     -0.55      0.00
   17   -5   10     -0.66      0.00
  -15   -3   10      0.84      0.00
   18   -3   10     -1.35      0.00
   19   -1   10     -0.46      0.00
  -14    0   10      1.95      0.00
   20    1   10      1.45      0.00
  -13    2   10      0.69      0.00
  -12    4   10      0.61      0.00
   21    4   10      4.19      0.00
  -10    7   10      0.31      0.00
   21   15   10      0.22      0.00
   21   16   10      0.50      0.00
    0   17   10      1.13      0.00
   20   17   10      2.69      0.00
    2   18   10     -0.42      0.00
    6   20   10      3.35      0.00
   17   20   10     -1.91      0.00
    9   21   10      0.71      0.00
   10   21   10      1.67      0.00
   14   21   10      2.00      0.00
   15   21   10      0.89      0.00
  -10  -20   11     -0.89      0.00
   -9  -20   11      2.24      0.00
   -2  -20   11      3.22      0.00
   -1  -20   11     -0.26      0.00
  -12  -19   11     -0.34      0.00
    1  -19   11     -4.24      0.00
  -13  -18   11      0.56      0.00
    5  -17   11      2.87      0.00
  -14  -16   11     -0.07      0.00
    8  -15   11      1.23      0.00
  -15  -14   11     -0.60      0.00
    9  -14   11     -1.66      0.00
   10  -13   11     -1.25      0.00
   13  -10   11     -0.28      0.00
   14   -9   11     -2.16      0.00
  -15   -6   11     -1.77      0.00
  -15   -5   11     -0.46      0.00
   17   -5   11      1.29      0.00
   18   -3   11     -3.11      0.00
  -14   -2   11      0.39      0.00
   19   -1   11      1.44      0.00
  -13    1   11      0.86      0.00
   20    1   11      0.12      0.00
  -12    3   11     -0.39      0.00
   21    4   11     -2.42      0.00
  -10    6   11     -1.61      0.00
   -7   10   11      2.48      0.00
   -6   11   11     -0.22      0.00
   -5   12   11      1.87      0.00
   -4   13   11     -0.71      0.00
   -3   14   11     -0.23      0.00
   -2   15   11     -1.29      0.00
   21   15   11     -0.56      0.00
    1   17   11      1.74      0.00
   20   17   11      0.19      0.00
   19   18   11      0.44      0.00
   18   19   11     -0.24      0.00
    7   20   11     -1.41      0.00
   17   20   11      0.04      0.00
   11   21   11     -2.18      0.00
   12   21   11      3.76      0.00
   13   21   11      1.29      0.00
   -9  -20   12      0.60      0.00
   -8  -20   12     -1.38      0.00
   -7  -20   12      0.51      0.00
   -6  -20   12      1.61      0.00
   -3  -20   12     -0.53      0.00
   -2  -20   12     -0.95      0.00
  -11  -19   12      2.70      0.00
  -10  -19   12      2.39      0.00
    1  -19   12      3.61      0.00
  -12  -18   12     -0.84      0.00
    3  -18   12     -4.65      0.00
  -13  -17   12      0.92      0.00
    5  -17   12     -1.31      0.00
  -14  -15   12      0.83      0.00
    9  -14   12     -0.26      0.00
   10  -13   12      1.51      0.00
  -15  -12   12     -0.89      0.00
   11  -12   12      1.60      0.00
  -15  -11   12     -0.03      0.00
   12  -11   12      0.20      0.00
  -15  -10   12      0.60      0.00
   13  -10   12      1.82      0.00
  -15   -9   12      0.38      0.00
   14   -9   12      2.94      0.00
  -15   -8   12      0.49      0.00
   16   -6   12      2.52      0.00
  -14   -4   12     -1.15      0.00
   18   -3   12      2.33      0.00
  -13   -1   12     -1.14      0.00
   19   -1   12     -1.24      0.00
   20    1   12     -1.80      0.00
   21    4   12     -1.01      0.00
  -10    5   12     -0.25      0.00
   -8    8   12     -1.88      0.00
   -7    9   12     -1.76      0.00
   -1   15   12     -0.49      0.00
   21   15   12      1.25      0.00
    2   17   12     -3.65      0.00
   20   17   12     -0.87      0.00
   19   18   12      1.79      0.00
   18   19   12      0.65      0.00
    8   20   12      1.39      0.00
    9   20   12     -0.90      0.00
   15   20   12     -0.48      0.00
   16   20   12      1.35      0.00
   -6  -20   13     -1.59      0.00
   -5  -20   13      1.67      0.00
   -4  -20   13     -1.26      0.00
   -9  -19   13     -2.41      0.00
    0  -19   13      1.53      0.00
  -11  -18   13      1.50      0.00
    2  -18   13     -2.83      0.00
  -12  -17   13     -0.87      0.00
    6  -16   13     -0.93      0.00
  -13  -15   13     -0.41      0.00
  -14  -13   13      1.11      0.00
   10  -13   13      0.19      0.00
  -14  -12   13      0.37      0.00
   11  -12   13     -1.32      0.00
  -14  -11   13      0.02      0.00
   12  -11   13     -0.46      0.00
   13  -10   13      0.61      0.00
  -14   -8   13     -1.56      0.00
  -14   -7   13      0.02      0.00
  -14   -6   13     -1.12      0.00
   16   -6   13     -3.46      0.00
  -13   -3   13      0.40      0.00
   18   -3   13     -1.40      0.00
  -13   -2   13     -1.23      0.00
   19   -1   13     -0.65      0.00
  -12    0   13      0.93      0.00
   20    1   13      0.32      0.00
  -11    2   13      0.19      0.00
  -10    4   13     -1.55      0.00
   21    4   13      0.62      0.00
   21    5   13      0.87      0.00
   -8    7   13      2.04      0.00
   21   14   13     -0.24      0.00
    1   16   13      0.56      0.00
   20   16   13      3.36      0.00
    7   19   13      0.71      0.00
   17   19   13     -1.57      0.00
   10   20   13      3.44      0.00
   11   20   13      0.16      0.00
   12   20   13     -0.85      0.00
   13   20   13      2.22      0.00
   14   20   13      0.16      0.00
   15   20   13     -0.55      0.00
   -8  -19   14      0.22      0.00
   -7  -19   14     -0.14      0.00
   -6  -19   14      2.69      0.00
   -3  -19   14      1.07      0.00
   -2  -19   14     -0.29      0.00
   -1  -19   14      1.82      0.00
  -10  -18   14     -0.82      0.00
   -9  -18   14      1.62      0.00
    1  -18   14      1.44      0.00
    2  -18   14      2.88      0.00
  -11  -17   14      1.19      0.00
    4  -17   14     -3.46      0.00
  -12  -15   14     -0.54      0.00
    7  -15   14      1.36      0.00
  -13  -13   14     -0.51      0.00
   12  -11   14     -1.43      0.00
   15   -7   14      0.63      0.00
  -13   -6   14      0.79      0.00
   16   -6   14     -1.39      0.00
  -13   -5   14     -0.84      0.00
  -12   -2   14      0.48      0.00
   19   -1   14      0.93      0.00
  -11    1   14     -0.55      0.00
   20    2   14      1.49      0.00
  -10    3   14      0.50      0.00
   21    5   14      0.98      0.00
   -8    6   14     -0.94      0.00
   21    6   14      4.27      0.00
   -5   10   14      2.10      0.00
   -4   11   14      0.25      0.00
   -3   12   14      0.03      0.00
   -2   13   14     -0.48      0.00
   21   13   14      1.84      0.00
   21   14   14      0.74      0.00
    2   16   14     -1.06      0.00
   20   16   14     -0.60      0.00
    4   17   14     -2.61      0.00
   19   17   14      2.68      0.00
    6   18   14      2.94      0.00
   18   18   14     -1.62      0.00
    8   19   14     -1.27      0.00
    9   19   14      0.14      0.00
   16   19   14      1.29      0.00
   -5  -19   15     -1.99      0.00
   -4  -19   15     -0.30      0.00
   -3  -19   15      1.45      0.00
   -8  -18   15      0.43      0.00
   -7  -18   15      5.57      0.00
    0  -18   15     -0.72      0.00
    1  -18   15      1.41      0.00
   -9  -17   15     -0.56      0.00
    3  -17   15     -2.06      0.00
    5  -16   15      0.20      0.00
  -11  -15   15     -0.51      0.00
    7  -15   15     -1.03      0.00
  -12  -14   15      0.55      0.00
    8  -14   15     -0.74      0.00
  -12  -13   15      0.97      0.00
   15   -7   15      2.88      0.00
  -12   -4   15      1.23      0.00
   17   -4   15      0.79      0.00
  -11   -1   15      0.95      0.00
   19    0   15     -1.40      0.00
  -10    1   15     -0.84      0.00
   20    2   15     -1.17      0.00
   -9    3   15      0.54      0.00
   -8    5   15      0.49      0.00
   21    5   15     -1.47      0.00
   21    6   15     -1.11      0.00
   21    7   15      1.30      0.00
   -6    8   15      0.64      0.00
   -5    9   15     -1.42      0.00
   -4   10   15     -1.27      0.00
   -3   11   15     -1.11      0.00
   21   11   15     -1.30      0.00
   -2   12   15     -0.18      0.00
   21   12   15     -2.22      0.00
   -1   13   15      1.15      0.00
   21   13   15     -1.42      0.00
    0   14   15     -2.13      0.00
   20   15   15      0.25      0.00
    3   16   15      2.10      0.00
   19   16   15     -1.28      0.00
    5   17   15      2.91      0.00
    7   18   15     -0.51      0.00
   17   18   15     -3.33      0.00
   11   19   15      0.88      0.00
   12   19   15     -4.32      0.00
   13   19   15     -1.62      0.00
   14   19   15      1.26      0.00
   -6  -18   16     -2.07      0.00
   -5  -18   16      1.81      0.00
   -4  -18   16      0.19      0.00
   -3  -18   16      2.54      0.00
   -2  -18   16     -1.98      0.00
   -1  -18   16     -1.64      0.00
   -8  -17   16      2.76      0.00
    2  -17   16      3.19      0.00
   -9  -16   16      0.08      0.00
    4  -16   16      3.24      0.00
  -10  -15   16      0.21      0.00
    6  -15   16     -0.66      0.00
  -11  -14   16      0.29      0.00
  -11  -13   16     -0.99      0.00
    9  -13   16     -0.23      0.00
   10  -12   16      2.10      0.00
   11  -11   16      0.93      0.00
  -12  -10   16      0.09      0.00
   12  -10   16     -0.52      0.00
  -12   -9   16      1.94      0.00
   13   -9   16      0.91      0.00
  -12   -8   16     -1.59      0.00
   14   -8   16     -2.51      0.00
  -12   -7   16      0.00      0.00
   16   -5   16     -0.38      0.00
  -11   -4   16     -0.69      0.00
   17   -4   16     -2.73      0.00
  -11   -3   16     -0.02      0.00
   18   -2   16      0.04      0.00
  -10    0   16     -0.10      0.00
   19    0   16     -1.79      0.00
   -9    2   16      0.68      0.00
   20    3   16      2.45      0.00
   -8    4   16     -0.81      0.00
   21    6   16     -1.92      0.00
   -6    7   16     -0.86      0.00
   21    7   16     -1.88      0.00
   -5    8   16     -0.37      0.00
   21    8   16     -2.07      0.00
   -4    9   16      0.47      0.00
   21    9   16     -1.72      0.00
   21   10   16     -1.49      0.00
   21   11   16     -1.34      0.00
    0   13   16     -0.68      0.00
    1   14   16     -0.63      0.00
   20   14   16      1.83      0.00
    4   16   16      0.88      0.00
   19   16   16      0.48      0.00
    6   17   16     -1.11      0.00
    9   18   16      0.03      0.00
   10   18   16     -3.41      0.00
   15   18   16     -2.94      0.00
   16   18   16     -2.85      0.00
   -6  -17   17      1.96      0.00
   -5  -17   17      1.82      0.00
    0  -17   17     -0.69      0.00
    1  -17   17      2.10      0.00
   -8  -16   17      0.84      0.00
    3  -16   17      1.68      0.00
   -9  -15   17      1.94      0.00
    5  -15   17     -0.09      0.00
    7  -14   17      2.11      0.00
  -10  -13   17     -1.42      0.00
    8  -13   17     -0.48      0.00
  -11  -11   17     -0.45      0.00
   11  -11   17      1.35      0.00
  -11  -10   17      2.21      0.00
   12  -10   17     -0.30      0.00
  -11   -9   17      0.06      0.00
   13   -9   17      0.43      0.00
  -11   -8   17     -0.15      0.00
  -11   -7   17      1.09      0.00
  -11   -6   17     -0.71      0.00
   16   -5   17     -1.73      0.00
  -10   -3   17     -0.93      0.00
   17   -3   17      1.14      0.00
  -10   -2   17      0.08      0.00
   -9    0   17      1.36      0.00
   19    1   17      1.00      0.00
   -8    2   17      0.15      0.00
   20    3   17     -2.22      0.00
   -7    4   17     -0.22      0.00
   20    4   17     -4.64      0.00
   -5    7   17      2.06      0.00
   -4    8   17      0.18      0.00
    1   13   17      2.09      0.00
   20   13   17     -2.99      0.00
    4   15   17      0.18      0.00
   19   15   17     -1.97      0.00
    6   16   17     -0.04      0.00
   18   16   17      1.64      0.00
    8   17   17     -0.96      0.00
   16   17   17      6.00      0.00
   13   18   17     -1.42      0.00
   -3  -17   18     -0.94      0.00
   -2  -17   18     -1.56      0.00
   -6  -16   18     -1.87      0.00
   -5  -16   18      2.75      0.00
    2  -16   18     -1.65      0.00
   -7  -15   18      1.34      0.00
    4  -15   18     -1.16      0.00
   -8  -14   18     -2.17      0.00
    6  -14   18     -1.38      0.00
   -9  -13   18      0.32      0.00
    8  -13   18     -1.68      0.00
    9  -12   18     -3.71      0.00
  -10  -11   18      0.03      0.00
   10  -11   18     -3.54      0.00
  -10  -10   18      0.04      0.00
  -10   -9   18     -1.26      0.00
  -10   -8   18      0.61      0.00
  -10   -7   18     -0.06      0.00
   14   -7   18     -1.33      0.00
  -10   -6   18      0.11      0.00
   15   -6   18     -1.49      0.00
   17   -3   18     -0.58      0.00
   -9   -2   18     -0.16      0.00
   18   -1   18      0.36      0.00
   -8    0   18     -3.16      0.00
   19    1   18     -0.36      0.00
   19    2   18     -0.52      0.00
   -6    4   18      0.61      0.00
   20    4   18      1.77      0.00
   20    5   18      0.51      0.00
   -5    6   18     -1.24      0.00
   20    6   18      1.85      0.00
   -4    7   18     -1.32      0.00
   20   11   18     -2.14      0.00
    1   12   18      1.44      0.00
   20   12   18      0.55      0.00
    2   13   18     -2.08      0.00
   19   14   18      1.80      0.00
    5   15   18      4.07      0.00
   18   15   18      0.64      0.00
    7   16   18      1.00      0.00
    8   16   18      2.40      0.00
   17   16   18     -1.80      0.00
   11   17   18      0.42      0.00
   12   17   18     -3.08      0.00
   13   17   18      0.19      0.00
   14   17   18     -1.77      0.00
   -3  -16   19     -1.29      0.00
   -2  -16   19      4.41      0.00
   -1  -16   19     -1.34      0.00
    0  -16   19     -0.35      0.00
   -6  -15   19      0.01      0.00
   -5  -15   19      1.63      0.00
    3  -15   19     -3.28      0.00
   -7  -14   19      0.15      0.00
    5  -14   19      0.02      0.00
    7  -13   19     -1.24      0.00
   -8  -12   19     -1.15      0.00
   10  -11   19      6.99      0.00
   -9  -10   19     -1.24      0.00
   11  -10   19      2.65      0.00
   -9   -9   19      0.44      0.00
   12   -9   19      5.15      0.00
   -9   -8   19     -1.19      0.00
   13   -8   19      3.46      0.00
   -9   -7   19     -1.70      0.00
   -9   -6   19      1.09      0.00
   -9   -5   19     -0.43      0.00
   15   -5   19     -0.16      0.00
   16   -4   19      1.23      0.00
   -8   -2   19      0.22      0.00
   17   -2   19      0.50      0.00
   18    0   19     -0.24      0.00
   -7    1   19      1.57      0.00
   19    2   19     -1.69      0.00
   -6    3   19      0.45      0.00
   19    3   19     -2.28      0.00
   -5    4   19     -1.28      0.00
   -4    6   19      0.87      0.00
   20    6   19     -2.20      0.00
   -3    7   19      0.67      0.00
   20    7   19      0.49      0.00
   -2    8   19      0.41      0.00
   20    8   19     -1.44      0.00
   20    9   19     -1.34      0.00
   20   10   19      2.62      0.00
    1   11   19     -3.13      0.00
    2   12   19      0.49      0.00
   19   12   19      4.07      0.00
    5   14   19     -0.16      0.00
   18   14   19     -0.95      0.00
    7   15   19     -2.71      0.00
   17   15   19      6.26      0.00
   10   16   19      1.54      0.00
   11   16   19      0.97      0.00
   12   16   19      1.09      0.00
   13   16   19      3.05      0.00
   14   16   19      2.97      0.00
   15   16   19     -0.61      0.00
   -3  -15   20     -0.87      0.00
   -2  -15   20     -1.54      0.00
   -1  -15   20     -0.71      0.00
    0  -15   20      2.38      0.00
    1  -15   20     -0.04      0.00
   -5  -14   20      1.75      0.00
   -4  -14   20      0.43      0.00
    4  -14   20      1.17      0.00
   -6  -13   20      1.18      0.00
    6  -13   20     -1.72      0.00
   -7  -12   20     -0.35      0.00
    8  -12   20     -1.59      0.00
   -7  -11   20      1.11      0.00
    9  -11   20      1.55      0.00
   10  -10   20     -4.01      0.00
   -8   -9   20      1.62      0.00
   11   -9   20     -0.37      0.00
   -8   -8   20     -0.51      0.00
   12   -8   20     -0.95      0.00
   -8   -7   20      0.52      0.00
   13   -7   20      0.99      0.00
   -8   -6   20     -0.91      0.00
   14   -6   20     -0.54      0.00
   -8   -5   20     -0.16      0.00
   16   -3   20      2.14      0.00
   -7   -2   20      0.21      0.00
   17   -1   20      0.00      0.00
   -6    1   20      1.02      0.00
   18    1   20      1.85      0.00
   -5    3   20     -0.95      0.00
   -4    4   20     -0.07      0.00
   19    4   20      3.23      0.00
   19    5   20      0.91      0.00
   -3    6   20      0.04      0.00
   -2    7   20     -1.37      0.00
   -1    8   20     -0.33      0.00
    0    9   20      2.99      0.00
   19    9   20     -1.96      0.00
    1   10   20      1.18      0.00
   19   10   20     -1.56      0.00
    2   11   20      2.59      0.00
   19   11   20      0.03      0.00
   18   12   20      1.19      0.00
    5   13   20      2.55      0.00
   18   13   20      1.04      0.00
    7   14   20      1.74      0.00
   17   14   20     -2.97      0.00
    9   15   20     -4.90      0.00
   10   15   20      0.08      0.00
   11   15   20     -0.63      0.00
   14   15   20     -1.56      0.00
   15   15   20     -0.96      0.00
   -2  -14   21      1.91      0.00
   -1  -14   21     -1.16      0.00
    0  -14   21     -2.02      0.00
    1  -14   21      0.68      0.00
    2  -14   21      0.66      0.00
   -4  -13   21      3.12      0.00
    4  -13   21     -2.45      0.00
    5  -13   21     -0.53      0.00
   -5  -12   21     -0.16      0.00
    6  -12   21     -1.45      0.00
   -6  -11   21      0.07      0.00
    8  -11   21      1.33      0.00
   -6  -10   21      0.64      0.00
    9  -10   21     -2.28      0.00
   -7   -7   21     -0.31      0.00
   14   -5   21      0.41      0.00
   15   -4   21      0.21      0.00
   -6   -3   21     -0.44      0.00
   -6   -2   21     -0.70      0.00
   16   -2   21      0.60      0.00
   -5    0   21     -0.60      0.00
   17    0   21     -2.16      0.00
   -5    1   21     -1.10      0.00
   18    2   21      1.27      0.00
   18    3   21     -2.74      0.00
   -3    4   21      1.90      0.00
   -1    7   21      0.17      0.00
   19    7   21      0.46      0.00
    0    8   21      1.27      0.00
   19    8   21      0.40      0.00
    1    9   21     -2.26      0.00
    2   10   21      0.13      0.00
   18   10   21      2.42      0.00
    4   11   21     -3.46      0.00
   18   11   21      2.19      0.00
    5   12   21      0.36      0.00
   17   12   21      0.03      0.00
    7   13   21      2.15      0.00
   16   13   21      1.16      0.00
    9   14   21     -0.41      0.00
   10   14   21      1.24      0.00
   14   14   21     -1.16      0.00
   15   14   21     -0.63      0.00
   -1  -13   22      0.30      0.00
    0  -13   22      3.36      0.00
    1  -13   22      3.19      0.00
    2  -13   22      0.62      0.00
   -3  -12   22     -1.88      0.00
   -2  -12   22     -2.63      0.00
    4  -12   22      1.80      0.00
    5  -12   22     -0.07      0.00
   -4  -11   22     -3.52      0.00
    7  -11   22      5.22      0.00
    8  -10   22      1.85      0.00
   -5   -9   22      0.13      0.00
   -5   -8   22     -3.29      0.00
   11   -8   22      1.17      0.00
   12   -7   22     -1.10      0.00
   -5   -4   22      1.93      0.00
   14   -4   22     -0.56      0.00
   -5   -3   22      0.99      0.00
   15   -3   22      0.27      0.00
   -5   -2   22      0.56      0.00
   16   -1   22     -0.96      0.00
   -4    0   22     -0.30      0.00
   17    1   22      1.29      0.00
   -3    2   22     -0.17      0.00
   17    2   22     -0.73      0.00
   -2    4   22     -0.25      0.00
   18    4   22     -4.11      0.00
   -1    5   22      0.03      0.00
   18    5   22     -1.62      0.00
   18    6   22      1.54      0.00
   18    7   22     -0.01      0.00
   18    8   22     -0.51      0.00
   18    9   22     -0.02      0.00
    4   10   22     -0.37      0.00
   17   10   22     -0.53      0.00
    5   11   22     -0.27      0.00
   17   11   22     -1.36      0.00
    7   12   22      2.19      0.00
   16   12   22      1.14      0.00
   10   13   22      2.47      0.00
   11   13   22     -1.06      0.00
   12   13   22     -2.67      0.00
   13   13   22     -0.15      0.00
   14   13   22      5.82      0.00
   -1  -11   23      0.85      0.00
    0  -11   23      2.33      0.00
    3  -11   23      0.06      0.00
    4  -11   23     -1.56      0.00
    5  -11   23     -1.02      0.00
   -2  -10   23     -2.20      0.00
    7  -10   23     -2.44      0.00
   -3   -9   23     -2.13      0.00
    8   -9   23     -3.26      0.00
   10   -8   23     -2.67      0.00
   -4   -7   23      3.29      0.00
   11   -7   23     -3.76      0.00
   -4   -6   23     -1.62      0.00
   12   -6   23     -4.25      0.00
   -4   -5   23     -0.16      0.00
   -4   -4   23     -0.98      0.00
   14   -3   23      3.72      0.00
   -3   -1   23      2.14      0.00
   15   -1   23     -5.64      0.00
   16    0   23      0.00      0.00
   -2    1   23     -0.06      0.00
   16    1   23      3.35      0.00
   -2    2   23      1.74      0.00
   -1    3   23      1.82      0.00
   17    3   23      0.22      0.00
   17    4   23      0.73      0.00
    0    5   23     -0.69      0.00
   17    5   23      0.27      0.00
    1    6   23      0.91      0.00
   17    6   23      2.26      0.00
    2    7   23      0.46      0.00
   17    7   23     -1.31      0.00
    3    8   23      1.59      0.00
   17    8   23      0.80      0.00
    4    9   23      0.84      0.00
   16    9   23      0.07      0.00
    6   10   23     -4.77      0.00
   16   10   23     -0.32      0.00
    8   11   23     -2.47      0.00
   15   11   23      0.54      0.00
   10   12   23      0.86      0.00
   11   12   23      2.96      0.00
   12   12   23     -0.93      0.00
   13   12   23     -2.54      0.00
    1  -10   24      1.58      0.00
    2  -10   24      0.17      0.00
    3  -10   24     -1.02      0.00
    4  -10   24      1.98      0.00
   -1   -9   24     -0.42      0.00
    0   -9   24     -1.43      0.00
    6   -9   24     -1.55      0.00
   -1   -8   24     -1.66      0.00
    8   -8   24     -1.22      0.00
   -2   -7   24      1.58      0.00
    9   -7   24     -2.08      0.00
   -2   -6   24     -0.97      0.00
   10   -6   24      2.29      0.00
   -2   -5   24      0.93      0.00
   -2   -4   24      2.30      0.00
   12   -4   24      2.24      0.00
   -2   -3   24     -0.80      0.00
   13   -3   24      6.40      0.00
   -2   -2   24     -0.39      0.00
   14   -2   24      1.78      0.00
   14   -1   24     -2.74      0.00
   -1    0   24     -0.40      0.00
   15    0   24     -0.23      0.00
   -1    1   24     -0.96      0.00
   15    1   24     -1.08      0.00
    0    2   24     -1.24      0.00
   16    3   24     -1.38      0.00
    1    4   24      1.56      0.00
   16    4   24     -1.13      0.00
    2    5   24     -1.56      0.00
   16    5   24     -1.57      0.00
    3    6   24     -0.49      0.00
   16    6   24     -0.09      0.00
    4    7   24      1.27      0.00
   16    7   24     -0.55      0.00
    5    8   24      0.90      0.00
   15    8   24      1.18      0.00
    7    9   24     -0.49      0.00
   14    9   24     -1.63      0.00
   15    9   24      3.10      0.00
    9   10   24      0.03      0.00
   10   10   24      2.50      0.00
   11   10   24     -0.48      0.00
   12   10   24      1.46      0.00
   13   10   24     -0.66      0.00
   14   10   24      0.96      0.00
    2   -8   25      0.15      0.00
    3   -8   25      3.02      0.00
    4   -8   25     -0.13      0.00
    5   -8   25      4.97      0.00
    1   -7   25      0.16      0.00
    2   -7   25     -0.07      0.00
    6   -7   25      1.62      0.00
    7   -7   25      0.99      0.00
    0   -6   25     -0.29      0.00
    1   -6   25      0.33      0.00
    8   -6   25      0.00      0.00
    9   -6   25     -0.45      0.00
    0   -5   25      0.83      0.00
   10   -5   25     -1.59      0.00
    0   -4   25      3.95      0.00
   11   -4   25     -1.76      0.00
    0   -3   25      0.32      0.00
   12   -3   25      0.80      0.00
    0   -2   25      1.02      0.00
   12   -2   25      1.89      0.00
    0   -1   25     -0.32      0.00
   13   -1   25      0.69      0.00
    1    0   25     -2.48      0.00
    1    1   25     -1.64      0.00
   14    1   25      1.29      0.00
    2    2   25     -1.80      0.00
   14    2   25     -1.10      0.00
    2    3   25      0.20      0.00
   14    3   25     -1.56      0.00
    3    4   25      3.08      0.00
   14    4   25     -3.56      0.00
    4    5   25     -1.97      0.00
   14    5   25     -5.95      0.00
    5    6   25     -3.55      0.00
   14    6   25      2.84      0.00
    6    7   25     -1.22      0.00
    7    7   25      0.21      0.00
   13    7   25     -3.24      0.00
   14    7   25      2.23      0.00
    8    8   25     -1.86      0.00
    9    8   25     -1.54      0.00
   10    8   25     -1.60      0.00
   11    8   25      2.36      0.00
   12    8   25     -2.80      0.00
   13    8   25      0.50      0.00
    3   -5   26     -1.58      0.00
    4   -5   26      0.45      0.00
    5   -5   26      1.24      0.00
    6   -5   26      3.10      0.00
    7   -5   26     -3.43      0.00
    3   -4   26     -0.31      0.00
    4   -4   26      1.52      0.00
    6   -4   26     -1.14      0.00
    7   -4   26      1.32      0.00
    8   -4   26     -0.92      0.00
    9   -4   26      0.45      0.00
    2   -3   26     -1.42      0.00
    3   -3   26     -0.29      0.00
    9   -3   26     -1.05      0.00
   10   -3   26      0.17      0.00
    2   -2   26      2.02      0.00
    3   -2   26     -1.91      0.00
   10   -2   26     -4.23      0.00
   11   -2   26      0.57      0.00
    3   -1   26      2.18      0.00
   11   -1   26     -1.28      0.00
    3    0   26      2.67      0.00
   11    0   26      3.96      0.00
   12    0   26     -2.34      0.00
    3    1   26      2.28      0.00
    4    1   26      2.59      0.00
   12    1   26      0.95      0.00
    4    2   26      1.82      0.00
   12    2   26      0.57      0.00
    5    3   26      1.70      0.00
   12    3   26      2.31      0.00
    6    4   26      0.22      0.00
    7    4   26      3.31      0.00
   12    4   26     -3.28      0.00
    7    5   26     -0.43      0.00
    8    5   26      0.36      0.00
    9    5   26      3.09      0.00
   10    5   26     -3.86      0.00
   11    5   26     -3.72      0.00
   12    5   26      0.56      0.00
    9    6   26      0.92      0.00
   10    6   26      0.12      0.00
   11    6   26     -0.87      0.00
    0    0    0      0.00      0.00
# SQUEEZE RESULTS
# Note: Data are Listed for all Voids in the P1 Unit Cell
# i.e. Centre of Gravity, Solvent Accessible Volume,
# Recovered number of Electrons in the Void and
# Details about the Squeezed Material
loop_
  _platon_squeeze_void_nr
  _platon_squeeze_void_average_x
  _platon_squeeze_void_average_y
  _platon_squeeze_void_average_z
  _platon_squeeze_void_volume
  _platon_squeeze_void_count_electrons
  _platon_squeeze_void_content
   1  0.000  0.000  0.500       882       297 ' '
   2  0.345  0.280  0.563         8         4 ' '
   3  0.655  0.720  0.438         8         2 ' '
_platon_squeeze_details
(replace by semicolon in column 1 when used as .sqf)
TITL T         P -1         R = 0.16
CELL   16.3600   17.0310   19.9430     89.55     69.60     62.89
SPGR P-1
# Solvent Accessible Volume =     905.9
# Electrons Found in S.A.V. =     299.0
# Note: Atoms in Void as Cxxx and Qxxx all others
C101 0.706 0.811 0.739 !       7.60 eA-3
C102 0.317 0.924 0.311 !       7.21 eA-3
C103 0.153 0.080 0.361 !       6.26 eA-3
C104 0.309 0.091 0.314 !       5.83 eA-3
C105 0.802 0.324 0.673 !       5.42 eA-3
C106 0.438 0.015 0.284 !       5.29 eA-3
C107 0.237 0.092 0.394 !       5.17 eA-3
C108 0.599 0.374 0.672 !       4.94 eA-3
C109 0.659 0.940 0.674 !       4.89 eA-3
C110 0.922 0.077 0.517 !       4.89 eA-3
C111 0.404 0.588 0.332 !       4.55 eA-3
C112 0.815 0.902 0.630 !       4.47 eA-3
C113 0.731 0.960 0.643 !       4.45 eA-3
C114 0.222 0.645 0.330 !       4.44 eA-3
C115 0.920 0.073 0.690 !       4.20 eA-3
C116 0.703 0.924 0.600 !       4.14 eA-3
Q117 0.470 0.511 0.775 !       4.13 eA-3
C118 0.229 0.669 0.346 !       4.11 eA-3
C119 0.561 0.939 0.704 !       4.07 eA-3
C120 0.674 0.098 0.671 !       4.04 eA-3
C121 0.625 0.457 0.797 !       3.94 eA-3
C122 0.044 0.973 0.327 !       3.80 eA-3
C123 0.968 0.060 0.667 !       3.79 eA-3
C124 0.583 0.470 0.791 !       3.66 eA-3
C125 0.934 0.124 0.511 !       3.63 eA-3
C126 0.641 0.924 0.592 !       3.56 eA-3
C127 0.645 0.927 0.640 !       3.55 eA-3
C128 0.282 0.751 0.233 !       3.54 eA-3
C129 0.296 0.652 0.287 !       3.52 eA-3
Q130 0.593 0.997 0.625 !       3.48 eA-3
C131 0.140 0.898 0.269 !       3.41 eA-3
C132 0.329 0.137 0.327 !       3.39 eA-3
C133 0.218 0.732 0.320 !       3.21 eA-3
C134 0.658 0.425 0.782 !       3.18 eA-3
C135 0.921 0.116 0.636 !       3.17 eA-3
C136 0.980 0.039 0.628 !       3.15 eA-3
C137 0.295 0.029 0.375 !       3.13 eA-3
C138 0.078 0.953 0.403 !       3.10 eA-3
C139 0.669 0.894 0.629 !       3.06 eA-3
C140 0.239 0.075 0.356 !       3.05 eA-3
C141 0.729 0.292 0.733 !       3.00 eA-3
C142 0.981 0.064 0.693 !       3.00 eA-3
C143 0.747 0.369 0.654 !       2.98 eA-3
C144 0.393 0.016 0.329 !       2.98 eA-3
C145 0.703 0.425 0.747 !       2.90 eA-3
C146 0.783 0.345 0.702 !       2.86 eA-3
Q147 0.468 0.947 0.311 !       2.81 eA-3
C148 0.718 0.123 0.688 !       2.81 eA-3
C149 0.058 0.948 0.356 !       2.78 eA-3
Q150 0.971 0.501 0.092 !       2.76 eA-3
Q151 0.513 0.402 0.455 !       2.75 eA-3
C152 0.766 0.239 0.690 !       2.65 eA-3
C153 0.311 0.687 0.261 !       2.65 eA-3
Q154 0.962 0.597 0.776 !       2.65 eA-3
C155 0.814 0.137 0.748 !       2.63 eA-3
C156 0.839 0.215 0.763 !       2.61 eA-3
C157 0.752 0.154 0.738 !       2.60 eA-3
C158 0.533 0.481 0.783 !       2.60 eA-3
C159 0.222 0.879 0.262 !       2.60 eA-3
C160 0.029 0.971 0.471 !       2.59 eA-3
Q161 0.240 0.053 0.498 !       2.59 eA-3
C162 0.716 0.935 0.690 !       2.59 eA-3
C163 0.639 0.716 0.813 !       2.58 eA-3
Q164 0.361 0.013 0.388 !       2.58 eA-3
C165 0.674 0.391 0.811 !       2.58 eA-3
C166 0.996 0.985 0.464 !       2.56 eA-3
Q167 0.856 0.044 0.308 !       2.55 eA-3
C168 0.283 0.749 0.259 !       2.55 eA-3
C169 0.313 0.691 0.216 !       2.50 eA-3
C170 0.108 0.782 0.285 !       2.49 eA-3
C171 0.168 0.750 0.374 !       2.47 eA-3
C172 0.434 0.157 0.279 !       2.44 eA-3
C173 0.802 0.200 0.775 !       2.42 eA-3
C174 0.780 0.229 0.719 !       2.41 eA-3
C175 0.222 0.720 0.265 !       2.34 eA-3
C176 0.120 0.811 0.266 !       2.34 eA-3
Q177 0.574 0.045 0.252 !       2.31 eA-3
C178 0.110 0.936 0.482 !       2.30 eA-3
Q179 0.016 0.059 0.728 !       2.29 eA-3
C180 0.659 0.323 0.689 !       2.28 eA-3
C181 0.608 0.050 0.722 !       2.27 eA-3
C182 0.126 0.811 0.305 !       2.27 eA-3
C183 0.938 0.018 0.608 !       2.26 eA-3
Q184 0.529 0.941 0.622 !       2.26 eA-3
Q185 0.517 0.467 0.453 !       2.25 eA-3
C186 0.270 0.721 0.330 !       2.24 eA-3
C187 0.689 0.339 0.783 !       2.23 eA-3
C188 0.830 0.827 0.653 !       2.23 eA-3
C189 0.094 0.998 0.379 !       2.22 eA-3
C190 0.617 0.370 0.722 !       2.20 eA-3
C191 0.318 0.031 0.327 !       2.20 eA-3
Q192 0.558 0.967 0.606 !       2.20 eA-3
Q193 0.471 0.426 0.453 !       2.20 eA-3
Q194 0.547 0.438 0.238 !       2.18 eA-3
C195 0.814 0.096 0.607 !       2.15 eA-3
C196 0.503 0.973 0.719 !       2.15 eA-3
Q197 0.841 0.342 0.106 !       2.15 eA-3
C198 0.389 0.545 0.314 !       2.15 eA-3
C199 0.719 0.280 0.780 !       2.15 eA-3
(replace by semicolon in column 1 when used as .sqf)
;
_shelx_fab_checksum              86812
_publcif_funding_html
;
;
loop_
_space_group_symop_operation_xyz
'x, y, z'
'-x, -y, -z'
loop_
_atom_site_label
_atom_site_type_symbol
_atom_site_fract_x
_atom_site_fract_y
_atom_site_fract_z
_atom_site_U_iso_or_equiv
_atom_site_adp_type
_atom_site_occupancy
_atom_site_site_symmetry_order
_atom_site_calc_flag
_atom_site_refinement_flags_posn
_atom_site_refinement_flags_adp
_atom_site_refinement_flags_occupancy
_atom_site_disorder_assembly
_atom_site_disorder_group
Cd1 Cd 0.67731(6) 0.11853(6) 0.44454(5) 0.0350(2) Uani 1 1 d . . . . .
Cd2 Cd 0.77332(6) 0.20834(6) 0.26162(5) 0.0337(2) Uani 1 1 d . . . . .
Cd3 Cd 0.86015(6) 0.29951(6) 0.07911(6) 0.0421(3) Uani 1 1 d . . . . .
O1 O 0.5806(6) 0.1620(6) 0.3828(6) 0.052(3) Uani 1 1 d . . . . .
O2 O 0.6104(6) 0.2552(7) 0.3097(5) 0.052(2) Uani 1 1 d . . . . .
O3 O -0.2907(7) 0.9733(5) 0.4079(6) 0.0571(18) Uani 1 1 d . . . . .
O4 O -0.2000(7) 0.9875(5) 0.4584(6) 0.0571(18) Uani 1 1 d . . . . .
O5 O -0.3024(7) 0.2324(6) 0.4911(6) 0.056(3) Uani 1 1 d . . . . .
O6 O -0.2143(5) 0.1720(5) 0.3751(4) 0.0343(18) Uani 1 1 d . . . . .
O9 O 0.9353(6) 0.1728(8) 0.2121(6) 0.068(3) Uani 1 1 d . . . . .
O10 O 0.9527(6) 0.2730(6) 0.1448(6) 0.052(2) Uani 1 1 d . . . . .
O11 O 1.8370(10) -0.5622(8) 0.0661(12) 0.128(7) Uani 1 1 d . . . . .
O12 O 1.7025(14) -0.5482(10) 0.1516(11) 0.130(7) Uani 1 1 d . . . . .
O13 O 1.7670(6) 0.2335(6) 0.1473(5) 0.047(2) Uani 1 1 d . . . . .
O14 O 1.8706(12) 0.1587(12) 0.0385(7) 0.137(8) Uani 1 1 d . . . . .
N1 N 0.5548(7) 0.1397(7) 0.5539(6) 0.044(3) Uani 1 1 d . . . . .
N2 N 0.0100(8) 0.2441(9) 0.9773(7) 0.058(3) Uani 1 1 d . . . . .
C1 C 0.5090(10) 0.0922(11) 0.5660(8) 0.058(4) Uani 1 1 d . . . . .
H1A H 0.529194 0.046818 0.527975 0.070 Uiso 1 1 calc R U . . .
C2 C 0.4324(11) 0.1035(12) 0.6309(10) 0.071(5) Uani 1 1 d . . . . .
H2A H 0.404190 0.065324 0.637497 0.086 Uiso 1 1 calc R U . . .
C3 C 0.4002(11) 0.1722(13) 0.6843(9) 0.067(5) Uani 1 1 d . . . . .
C4 C 0.4444(14) 0.2265(15) 0.6732(10) 0.092(6) Uani 1 1 d . . . . .
H4A H 0.423022 0.274665 0.709185 0.110 Uiso 1 1 calc R U . . .
C5 C 0.5203(12) 0.2070(12) 0.6076(9) 0.074(5) Uani 1 1 d . . . . .
H5A H 0.550665 0.243508 0.599618 0.089 Uiso 1 1 calc R U . . .
C6 C 0.3152(13) 0.1962(15) 0.7547(11) 0.085(6) Uani 1 1 d . . . . .
H6A H 0.294315 0.249508 0.784762 0.102 Uiso 1 1 calc R U . . .
C7 C 0.2690(12) 0.1566(15) 0.7788(11) 0.082(6) Uani 1 1 d . . . . .
H7A H 0.290537 0.101883 0.750381 0.098 Uiso 1 1 calc R U . . .
C8 C 0.1793(10) 0.1864(14) 0.8505(11) 0.078(6) Uani 1 1 d . . . . .
C9 C 0.1490(15) 0.1311(17) 0.8820(16) 0.146(13) Uani 1 1 d . . . . .
H9A H 0.182797 0.070521 0.859716 0.175 Uiso 1 1 calc R U . . .
C10 C 0.0677(12) 0.1611(14) 0.9479(12) 0.106(8) Uani 1 1 d . . . . .
H10A H 0.054244 0.118234 0.972217 0.127 Uiso 1 1 calc R U . . .
C11 C 0.0335(15) 0.3080(16) 0.9497(9) 0.090(7) Uani 1 1 d . . . . .
H11A H -0.006204 0.369153 0.970846 0.108 Uiso 1 1 calc R U . . .
C12 C 0.1243(16) 0.2742(16) 0.8854(11) 0.093(7) Uani 1 1 d . . . . .
H12A H 0.146923 0.314572 0.866430 0.112 Uiso 1 1 calc R U . . .
C13 C 0.5551(8) 0.2261(9) 0.3503(7) 0.044(3) Uani 1 1 d . . . . .
C14 C 0.4466(8) 0.2760(8) 0.3601(7) 0.038(3) Uani 1 1 d . . . . .
C15 C 0.4116(10) 0.3473(10) 0.3285(9) 0.057(4) Uani 1 1 d . . . . .
H15A H 0.455422 0.366949 0.299822 0.069 Uiso 1 1 calc R U . . .
C16 C 0.3118(10) 0.3929(10) 0.3370(10) 0.060(4) Uani 1 1 d . . . . .
H16A H 0.289810 0.441404 0.313036 0.073 Uiso 1 1 calc R U . . .
C17 C 0.2459(9) 0.3671(9) 0.3801(9) 0.050(4) Uani 1 1 d . . . . .
C18 C 0.2834(9) 0.2953(10) 0.4142(9) 0.061(4) Uani 1 1 d . . . . .
H18A H 0.239254 0.277036 0.444725 0.074 Uiso 1 1 calc R U . . .
C19 C 0.3809(9) 0.2497(9) 0.4056(8) 0.046(3) Uani 1 1 d . . . . .
H19A H 0.403144 0.201654 0.429900 0.055 Uiso 1 1 calc R U . . .
C20 C -0.2215(10) 0.9388(8) 0.4315(10) 0.0571(18) Uani 1 1 d . . . . .
C21 C -0.1656(9) 0.8391(8) 0.4230(8) 0.042(3) Uani 1 1 d . . . . .
C22 C -0.0876(9) 0.7993(8) 0.4467(9) 0.051(4) Uani 1 1 d . . . . .
H22A H -0.068417 0.835579 0.465646 0.061 Uiso 1 1 calc R U . . .
C23 C -0.0384(10) 0.7088(8) 0.4431(9) 0.052(4) Uani 1 1 d . . . . .
H23A H 0.013127 0.683520 0.460305 0.062 Uiso 1 1 calc R U . . .
C24 C -0.0646(9) 0.6526(8) 0.4135(9) 0.048(4) Uani 1 1 d . . . . .
C25 C -0.1399(10) 0.6938(8) 0.3887(9) 0.053(4) Uani 1 1 d . . . . .
H25A H -0.157048 0.658007 0.367039 0.064 Uiso 1 1 calc R U . . .
C26 C -0.1902(10) 0.7835(8) 0.3942(8) 0.051(4) Uani 1 1 d . . . . .
H26A H -0.242981 0.808672 0.378230 0.062 Uiso 1 1 calc R U . . .
C27 C -0.2345(8) 0.2229(7) 0.4305(7) 0.036(3) Uani 1 1 d . . . . .
C28 C -0.1800(8) 0.2747(8) 0.4265(7) 0.038(3) Uani 1 1 d . . . . .
C29 C -0.2197(9) 0.3507(8) 0.4742(7) 0.043(3) Uani 1 1 d . . . . .
H29A H -0.283393 0.371906 0.511036 0.052 Uiso 1 1 calc R U . . .
C30 C -0.1681(9) 0.3989(9) 0.4700(8) 0.051(4) Uani 1 1 d . . . . .
H30A H -0.197518 0.452764 0.502532 0.061 Uiso 1 1 calc R U . . .
C31 C -0.0712(8) 0.3648(8) 0.4160(8) 0.041(3) Uani 1 1 d . . . . .
C32 C -0.0309(9) 0.2857(8) 0.3682(8) 0.048(4) Uani 1 1 d . . . . .
H32A H 0.033801 0.262189 0.332257 0.057 Uiso 1 1 calc R U . . .
C33 C -0.0852(9) 0.2410(9) 0.3727(8) 0.047(3) Uani 1 1 d . . . . .
H33A H -0.057719 0.188110 0.339529 0.056 Uiso 1 1 calc R U . . .
C34 C 0.1388(9) 0.4162(8) 0.3915(9) 0.048(4) Uani 1 1 d . . . . .
C35 C 0.0843(8) 0.3706(7) 0.3976(8) 0.045(4) Uani 1 1 d . . . . .
H35A H 0.116953 0.307838 0.392919 0.054 Uiso 1 1 calc R U . . .
C36 C -0.0179(8) 0.4161(8) 0.4107(8) 0.045(3) Uani 1 1 d . . . . .
C37 C -0.0643(8) 0.5078(8) 0.4178(9) 0.050(4) Uani 1 1 d . . . . .
H37A H -0.132986 0.539260 0.428283 0.060 Uiso 1 1 calc R U . . .
C38 C -0.0125(9) 0.5557(7) 0.4100(8) 0.047(4) Uani 1 1 d . . . . .
C39 C 0.0885(10) 0.5076(9) 0.3973(9) 0.051(4) Uani 1 1 d . . . . .
H39A H 0.123846 0.539430 0.392459 0.061 Uiso 1 1 calc R U . . .
O15 O 0.791(4) 0.072(3) 0.253(3) 0.071(3) Uani 0.2 1 d . U P . .
N3 N 0.8593(8) 0.0505(5) 0.2185(7) 0.071(3) Uani 0.8 1 d G U P . .
C40 C 0.9478(9) 0.0134(7) 0.1572(7) 0.060(4) Uani 0.8 1 d G U P . .
H40A H 0.964483 0.050485 0.126512 0.072 Uiso 0.8 1 calc R U P . .
C41 C 1.0117(7) -0.0786(8) 0.1414(7) 0.074(5) Uani 0.8 1 d G U P . .
H41A H 1.071547 -0.103730 0.100041 0.088 Uiso 0.8 1 calc R U P . .
C42 C 0.9871(9) -0.1335(5) 0.1869(8) 0.070(5) Uani 0.8 1 d DG U P . .
C43 C 0.8986(11) -0.0964(7) 0.2481(7) 0.079(6) Uani 0.8 1 d G U P . .
H43A H 0.881916 -0.133476 0.278837 0.094 Uiso 0.8 1 calc R U P . .
C44 C 0.8347(8) -0.0044(8) 0.2639(6) 0.070(5) Uani 0.8 1 d G U P . .
H44 H 0.774851 0.020739 0.305309 0.084 Uiso 0.8 1 calc R U P . .
C45 C 1.0559(16) -0.2301(10) 0.1658(13) 0.082(6) Uani 0.8 1 d D U P . .
H45A H 1.111952 -0.246955 0.122387 0.099 Uiso 0.8 1 calc R U P . .
C46 C 1.0525(19) -0.2975(11) 0.1976(14) 0.099(8) Uani 0.8 1 d D U P . .
H46A H 0.996086 -0.278829 0.241013 0.119 Uiso 0.8 1 calc R U P . .
C47 C 1.1148(12) -0.3912(7) 0.1808(9) 0.093(6) Uani 0.8 1 d DG U P . .
C48 C 1.1816(13) -0.4276(10) 0.1090(9) 0.097(7) Uani 0.8 1 d G U P . .
H48A H 1.183561 -0.390072 0.074396 0.116 Uiso 0.8 1 calc R U P . .
C49 C 1.2457(12) -0.5196(11) 0.0885(8) 0.114(8) Uani 0.8 1 d G U P . .
H49A H 1.290891 -0.544158 0.040014 0.136 Uiso 0.8 1 calc R U P . .
N4 N 1.2428(12) -0.5751(7) 0.1397(11) 0.119(8) Uani 0.8 1 d G U P . .
C50 C 1.1760(15) -0.5387(10) 0.2115(10) 0.139(11) Uani 0.8 1 d G U P . .
H50A H 1.174057 -0.576262 0.246121 0.167 Uiso 0.8 1 calc R U P . .
C51 C 1.1119(13) -0.4468(10) 0.2320(8) 0.116(8) Uani 0.8 1 d G U P . .
H51A H 1.066726 -0.422176 0.280505 0.139 Uiso 0.8 1 calc R U P . .
O8 O 0.7492(10) 0.3254(9) 0.0192(9) 0.033(4) Uani 0.5 1 d D U P . .
N5 N 0.5925(14) 0.3561(16) 0.0336(13) 0.073(6) Uani 0.5 1 d D U P . .
C52 C 0.6577(14) 0.3474(17) 0.0573(14) 0.058(6) Uani 0.5 1 d D U P . .
H52A H 0.637352 0.357968 0.108149 0.069 Uiso 0.5 1 calc R U P . .
C53 C 0.671(4) 0.237(2) -0.081(2) 0.140(16) Uani 0.5 1 d D U P . .
H53A H 0.684915 0.234827 -0.132598 0.210 Uiso 0.5 1 calc R U P . .
H53B H 0.732902 0.202257 -0.074232 0.210 Uiso 0.5 1 calc R U P . .
H53C H 0.627058 0.211841 -0.060216 0.210 Uiso 0.5 1 calc R U P . .
C54 C 0.623(2) 0.331(2) -0.0446(14) 0.102(10) Uani 0.5 1 d D U P . .
H54A H 0.667865 0.354424 -0.069065 0.122 Uiso 0.5 1 calc R U P . .
H54B H 0.562865 0.363931 -0.055161 0.122 Uiso 0.5 1 calc R U P . .
C55 C 0.481(2) 0.2880(19) 0.0472(19) 0.068(8) Uani 0.5 1 d D U P . .
H55A H 0.414590 0.297967 0.076956 0.102 Uiso 0.5 1 calc R U P . .
H55B H 0.487842 0.288558 -0.003171 0.102 Uiso 0.5 1 calc R U P . .
H55C H 0.530110 0.230440 0.051071 0.102 Uiso 0.5 1 calc R U P . .
C56 C 0.4963(15) 0.3624(19) 0.0733(17) 0.085(8) Uani 0.5 1 d D U P . .
H56A H 0.444614 0.420181 0.070541 0.103 Uiso 0.5 1 calc R U P . .
H56B H 0.486779 0.362204 0.124652 0.103 Uiso 0.5 1 calc R U P . .
C57 C 0.9844(10) 0.2046(11) 0.1714(8) 0.052(4) Uani 1 1 d . . . . .
C58 C 1.0933(9) 0.1564(9) 0.1569(7) 0.043(3) Uani 1 1 d . . . . .
C59 C 1.1574(9) 0.1894(9) 0.1176(8) 0.050(4) Uani 1 1 d . . . . .
H59A H 1.132954 0.243116 0.099817 0.060 Uiso 1 1 calc R U . . .
C60 C 1.2591(9) 0.1396(8) 0.1056(8) 0.045(3) Uani 1 1 d . . . . .
H60A H 1.301432 0.163051 0.081852 0.054 Uiso 1 1 calc R U . . .
C61 C 1.2998(8) 0.0573(8) 0.1275(8) 0.043(3) Uani 1 1 d . . . . .
C62 C 1.2376(8) 0.0241(9) 0.1631(8) 0.050(4) Uani 1 1 d . . . . .
H62A H 1.264016 -0.032421 0.176584 0.060 Uiso 1 1 calc R U . . .
C63 C 1.1346(10) 0.0736(10) 0.1799(8) 0.053(4) Uani 1 1 d . . . . .
H63A H 1.092652 0.051154 0.206699 0.063 Uiso 1 1 calc R U . . .
C64 C 1.749(2) -0.5157(17) 0.1079(17) 0.113(8) Uani 1 1 d . . . . .
C65 C 1.6992(12) -0.4171(10) 0.1034(11) 0.073(5) Uani 1 1 d . . . . .
C66 C 1.5987(12) -0.3626(10) 0.1444(10) 0.067(5) Uani 1 1 d . . . . .
H66A H 1.561697 -0.387073 0.175155 0.081 Uiso 1 1 calc R U . . .
C67 C 1.5525(11) -0.2729(10) 0.1408(9) 0.057(4) Uani 1 1 d . . . . .
H67A H 1.484417 -0.237136 0.169756 0.069 Uiso 1 1 calc R U . . .
C68 C 1.6037(10) -0.2336(9) 0.0952(8) 0.050(4) Uani 1 1 d . . . . .
C69 C 1.7052(10) -0.2899(9) 0.0516(9) 0.061(4) Uani 1 1 d . . . . .
H69A H 1.742320 -0.267031 0.018766 0.073 Uiso 1 1 calc R U . . .
C70 C 1.7498(11) -0.3803(10) 0.0578(11) 0.080(6) Uani 1 1 d . . . . .
H70A H 1.817795 -0.417269 0.029254 0.096 Uiso 1 1 calc R U . . .
C71 C 1.7966(11) 0.1756(11) 0.0934(8) 0.057(4) Uani 1 1 d . . . . .
C72 C 1.7379(11) 0.1303(11) 0.0940(7) 0.055(4) Uani 1 1 d . . . . .
C73 C 1.7741(13) 0.0608(12) 0.0367(9) 0.074(5) Uani 1 1 d . . . . .
H73A H 1.836650 0.040614 -0.001362 0.089 Uiso 1 1 calc R U . . .
C74 C 1.7150(11) 0.0231(10) 0.0379(8) 0.058(4) Uani 1 1 d . . . . .
H74A H 1.738740 -0.023083 -0.000669 0.070 Uiso 1 1 calc R U . . .
C75 C 1.6236(10) 0.0489(9) 0.0921(8) 0.047(3) Uani 1 1 d . . . . .
C76 C 1.5897(11) 0.1148(10) 0.1488(9) 0.054(4) Uani 1 1 d . . . . .
H76A H 1.528544 0.131946 0.187716 0.064 Uiso 1 1 calc R U . . .
C77 C 1.6457(10) 0.1569(10) 0.1491(8) 0.052(4) Uani 1 1 d . . . . .
H77A H 1.620299 0.204050 0.187326 0.062 Uiso 1 1 calc R U . . .
C78 C 1.4085(8) 0.0059(8) 0.1110(8) 0.045(3) Uani 1 1 d . . . . .
C79 C 1.4554(8) -0.0848(8) 0.1043(8) 0.047(4) Uani 1 1 d . . . . .
H79A H 1.418801 -0.114776 0.106129 0.056 Uiso 1 1 calc R U . . .
C80 C 1.5559(9) -0.1363(9) 0.0948(8) 0.045(3) Uani 1 1 d . . . . .
C81 C 1.6095(10) -0.0909(9) 0.0887(8) 0.048(3) Uani 1 1 d . . . . .
H81A H 1.677209 -0.123395 0.081356 0.058 Uiso 1 1 calc R U . . .
C82 C 1.5653(9) 0.0018(8) 0.0932(8) 0.045(3) Uani 1 1 d . . . . .
C83 C 1.4632(10) 0.0517(9) 0.1059(8) 0.051(4) Uani 1 1 d . . . . .
H83A H 1.432070 0.114530 0.110916 0.062 Uiso 1 1 calc R U . . .
O7 O 0.741(2) 0.3558(17) 0.2802(15) 0.071(3) Uani 0.6 1 d . . P . .
O16 O 0.725(3) 0.351(2) 0.298(2) 0.071(3) Uani 0.4 1 d D . P . .
N6 N 0.6281(18) 0.5008(16) 0.3565(15) 0.071(3) Uani 0.4 1 d D . P . .
C84 C 0.712(2) 0.4257(17) 0.326(2) 0.071(3) Uani 0.4 1 d D . P . .
H84A H 0.760140 0.416498 0.348606 0.086 Uiso 0.4 1 calc R U P . .
C85 C 0.512(3) 0.459(2) 0.4489(19) 0.071(3) Uani 0.4 1 d D . P . .
H85A H 0.450034 0.457449 0.460698 0.107 Uiso 0.4 1 calc R U P . .
H85B H 0.565623 0.398761 0.442299 0.107 Uiso 0.4 1 calc R U P . .
H85C H 0.505844 0.497201 0.488137 0.107 Uiso 0.4 1 calc R U P . .
C86 C 0.535(2) 0.496(2) 0.3791(18) 0.071(3) Uani 0.4 1 d D . P . .
H86A H 0.539021 0.457687 0.340017 0.086 Uiso 0.4 1 calc R U P . .
H86B H 0.479286 0.556054 0.385821 0.086 Uiso 0.4 1 calc R U P . .
C87 C 0.568(3) 0.581(2) 0.4857(16) 0.071(3) Uani 0.4 1 d D . P . .
H87A H 0.571523 0.627758 0.509999 0.107 Uiso 0.4 1 calc R U P . .
H87B H 0.498953 0.598101 0.496490 0.107 Uiso 0.4 1 calc R U P . .
H87C H 0.598669 0.525429 0.502783 0.107 Uiso 0.4 1 calc R U P . .
C88 C 0.623(3) 0.567(2) 0.4037(17) 0.071(3) Uani 0.4 1 d D . P . .
H88A H 0.592837 0.624955 0.388497 0.086 Uiso 0.4 1 calc R U P . .
H88B H 0.692015 0.552676 0.394756 0.086 Uiso 0.4 1 calc R U P . .
C89 C 0.9342(10) -0.5438(12) 0.1843(7) 0.108(5) Uani 1 1 d D U . . .
H89A H 0.917006 -0.585703 0.166029 0.129 Uiso 0.23(2) 1 calc R U P A 1
H89B H 0.937171 -0.600247 0.168339 0.129 Uiso 0.23(2) 1 calc R U P A 2
Cl1 Cl 0.9864(15) -0.5901(12) 0.2476(9) 0.176(6) Uani 0.77(2) 1 d D U P A 1
Cl2 Cl 0.8233(7) -0.4438(7) 0.2321(6) 0.124(4) Uani 0.77(2) 1 d D U P A 1
Cl3 Cl 1.0126(9) -0.5233(8) 0.1103(5) 0.123(4) Uani 0.77(2) 1 d D U P A 1
Cl1A Cl 1.040(3) -0.583(3) 0.207(3) 0.169(19) Uani 0.23(2) 1 d D U P A 2
Cl2A Cl 0.819(3) -0.490(5) 0.260(3) 0.29(3) Uani 0.23(2) 1 d D U P A 2
Cl3A Cl 0.954(4) -0.499(4) 0.103(2) 0.21(2) Uani 0.23(2) 1 d D U P A 2
loop_
_atom_site_aniso_label
_atom_site_aniso_U_11
_atom_site_aniso_U_22
_atom_site_aniso_U_33
_atom_site_aniso_U_23
_atom_site_aniso_U_13
_atom_site_aniso_U_12
Cd1 0.0271(4) 0.0274(5) 0.0512(6) 0.0057(4) -0.0144(4) -0.0143(4)
Cd2 0.0247(4) 0.0302(4) 0.0472(5) 0.0069(4) -0.0129(4) -0.0147(3)
Cd3 0.0298(5) 0.0398(5) 0.0581(7) 0.0021(5) -0.0147(4) -0.0193(4)
O1 0.037(5) 0.036(5) 0.100(8) 0.030(5) -0.049(5) -0.014(4)
O2 0.019(4) 0.073(7) 0.066(6) 0.018(5) -0.015(4) -0.025(4)
O3 0.048(3) 0.020(3) 0.112(5) 0.013(3) -0.050(4) -0.009(3)
O4 0.048(3) 0.020(3) 0.112(5) 0.013(3) -0.050(4) -0.009(3)
O5 0.056(6) 0.052(6) 0.070(7) 0.009(5) -0.014(5) -0.041(5)
O6 0.029(4) 0.032(4) 0.045(5) 0.003(4) -0.016(4) -0.017(4)
O9 0.022(5) 0.091(8) 0.072(7) 0.031(6) -0.013(5) -0.017(5)
O10 0.035(5) 0.039(5) 0.083(7) 0.007(5) -0.036(5) -0.010(4)
O11 0.060(8) 0.033(6) 0.28(2) 0.026(9) -0.071(12) -0.010(6)
O12 0.160(16) 0.065(9) 0.22(2) 0.066(11) -0.107(15) -0.073(11)
O13 0.047(5) 0.049(5) 0.054(6) 0.002(5) -0.016(5) -0.033(5)
O14 0.156(13) 0.196(16) 0.076(9) -0.056(10) 0.041(9) -0.160(14)
N1 0.027(5) 0.037(6) 0.050(7) -0.005(5) -0.007(5) -0.007(5)
N2 0.027(6) 0.064(8) 0.085(9) 0.014(7) -0.020(6) -0.026(6)
C1 0.045(8) 0.079(11) 0.055(9) -0.007(8) -0.008(7) -0.041(8)
C2 0.038(8) 0.091(13) 0.094(13) 0.008(11) -0.022(9) -0.042(9)
C3 0.037(8) 0.101(14) 0.062(10) 0.007(10) -0.021(8) -0.031(9)
C4 0.074(12) 0.121(17) 0.062(12) -0.022(11) 0.007(9) -0.055(13)
C5 0.066(11) 0.073(11) 0.064(11) -0.010(9) 0.003(9) -0.038(9)
C6 0.058(10) 0.132(18) 0.083(13) 0.037(12) -0.034(10) -0.056(12)
C7 0.052(10) 0.115(16) 0.087(13) 0.029(12) -0.027(9) -0.047(11)
C8 0.023(7) 0.080(13) 0.105(15) 0.023(12) -0.018(8) -0.009(8)
C9 0.057(12) 0.106(18) 0.18(3) 0.071(18) 0.013(14) -0.009(12)
C10 0.042(9) 0.081(14) 0.128(18) 0.013(13) 0.028(11) -0.021(10)
C11 0.104(15) 0.145(19) 0.054(11) 0.006(11) -0.007(10) -0.104(15)
C12 0.109(16) 0.14(2) 0.087(14) 0.038(14) -0.032(12) -0.108(17)
C13 0.019(6) 0.055(8) 0.054(8) -0.001(7) -0.015(6) -0.013(6)
C14 0.018(5) 0.028(6) 0.067(9) 0.005(6) -0.021(6) -0.006(5)
C15 0.033(7) 0.052(9) 0.097(12) 0.020(8) -0.031(8) -0.025(7)
C16 0.044(8) 0.047(8) 0.106(13) 0.037(9) -0.037(9) -0.028(7)
C17 0.025(6) 0.036(7) 0.094(11) 0.012(7) -0.025(7) -0.019(6)
C18 0.022(6) 0.052(9) 0.099(13) 0.008(8) -0.008(7) -0.021(6)
C19 0.029(6) 0.040(7) 0.069(10) 0.023(7) -0.024(6) -0.014(6)
C20 0.048(3) 0.020(3) 0.112(5) 0.013(3) -0.050(4) -0.009(3)
C21 0.038(7) 0.028(6) 0.070(9) 0.014(6) -0.033(7) -0.014(5)
C22 0.038(7) 0.021(6) 0.103(12) 0.009(7) -0.039(8) -0.012(5)
C23 0.043(7) 0.024(6) 0.106(12) 0.013(7) -0.051(8) -0.015(6)
C24 0.031(6) 0.027(6) 0.092(11) 0.005(7) -0.032(7) -0.012(5)
C25 0.045(7) 0.023(6) 0.105(12) 0.000(7) -0.053(8) -0.009(6)
C26 0.049(8) 0.025(7) 0.080(11) 0.004(7) -0.042(8) -0.007(6)
C27 0.021(5) 0.025(6) 0.063(9) 0.005(6) -0.016(6) -0.012(5)
C28 0.026(6) 0.031(6) 0.058(8) -0.002(6) -0.012(6) -0.017(5)
C29 0.024(6) 0.042(7) 0.059(9) -0.003(6) -0.008(6) -0.018(5)
C30 0.028(6) 0.043(8) 0.076(10) -0.008(7) -0.018(7) -0.013(6)
C31 0.028(6) 0.039(7) 0.067(9) 0.006(6) -0.021(6) -0.024(6)
C32 0.026(6) 0.026(6) 0.080(10) -0.005(6) -0.005(6) -0.015(5)
C33 0.041(7) 0.045(8) 0.062(9) -0.001(7) -0.010(6) -0.034(6)
C34 0.031(6) 0.021(6) 0.101(12) 0.007(7) -0.033(7) -0.013(5)
C35 0.015(5) 0.011(5) 0.106(11) 0.003(6) -0.025(6) -0.003(4)
C36 0.024(6) 0.033(7) 0.085(10) 0.001(7) -0.028(7) -0.013(5)
C37 0.020(6) 0.023(6) 0.106(12) -0.002(7) -0.027(7) -0.008(5)
C38 0.030(6) 0.012(5) 0.099(11) -0.008(6) -0.033(7) -0.003(5)
C39 0.045(7) 0.038(7) 0.095(11) 0.015(7) -0.037(8) -0.033(6)
O15 0.062(6) 0.037(4) 0.100(8) 0.001(4) -0.023(5) -0.019(4)
N3 0.062(6) 0.037(4) 0.100(8) 0.001(4) -0.023(5) -0.019(4)
C40 0.044(8) 0.050(8) 0.090(11) 0.019(8) -0.033(7) -0.022(7)
C41 0.057(10) 0.056(8) 0.097(13) 0.014(8) -0.022(9) -0.024(7)
C42 0.080(11) 0.047(7) 0.080(12) 0.009(7) -0.030(8) -0.030(7)
C43 0.105(14) 0.048(8) 0.069(12) 0.002(8) -0.019(9) -0.036(9)
C44 0.084(11) 0.052(7) 0.074(11) 0.003(7) -0.025(8) -0.037(7)
C45 0.074(12) 0.060(8) 0.093(15) 0.016(9) -0.023(11) -0.024(9)
C46 0.107(16) 0.058(8) 0.097(15) 0.021(9) -0.033(13) -0.018(10)
C47 0.130(16) 0.060(8) 0.108(12) 0.011(8) -0.061(12) -0.049(10)
C48 0.115(16) 0.072(10) 0.102(11) -0.007(9) -0.079(11) -0.017(11)
C49 0.102(17) 0.080(12) 0.134(15) 0.012(10) -0.056(14) -0.017(12)
N4 0.104(15) 0.078(12) 0.134(15) 0.016(9) -0.061(12) -0.003(11)
C50 0.15(2) 0.073(11) 0.136(16) 0.015(12) -0.055(16) -0.005(15)
C51 0.15(2) 0.050(9) 0.136(15) 0.018(9) -0.055(15) -0.044(12)
O8 0.041(7) 0.022(7) 0.061(11) 0.016(7) -0.039(8) -0.021(7)
N5 0.046(10) 0.083(14) 0.123(15) 0.071(13) -0.065(11) -0.034(10)
C52 0.051(10) 0.050(14) 0.110(17) 0.052(13) -0.049(11) -0.042(11)
C53 0.26(5) 0.15(3) 0.15(3) 0.07(2) -0.13(3) -0.17(3)
C54 0.086(19) 0.11(2) 0.131(16) 0.063(19) -0.079(16) -0.040(19)
C55 0.038(15) 0.09(2) 0.09(2) 0.031(18) -0.042(16) -0.026(14)
C56 0.033(11) 0.078(18) 0.15(2) 0.037(18) -0.059(13) -0.016(13)
C57 0.038(7) 0.066(10) 0.049(9) -0.009(8) -0.021(7) -0.019(7)
C58 0.036(7) 0.041(7) 0.047(8) 0.004(6) -0.018(6) -0.013(6)
C59 0.033(7) 0.035(7) 0.073(10) -0.002(7) -0.023(7) -0.007(6)
C60 0.037(7) 0.032(7) 0.069(9) 0.007(6) -0.026(7) -0.016(6)
C61 0.024(6) 0.024(6) 0.073(10) -0.012(6) -0.022(6) -0.003(5)
C62 0.021(6) 0.031(7) 0.087(11) 0.008(7) -0.023(7) -0.004(5)
C63 0.034(7) 0.057(9) 0.067(10) 0.004(7) -0.013(7) -0.027(7)
C64 0.13(2) 0.088(17) 0.18(3) 0.018(17) -0.10(2) -0.065(17)
C65 0.061(10) 0.031(8) 0.135(17) 0.019(9) -0.047(11) -0.022(8)
C66 0.071(11) 0.041(8) 0.093(13) 0.013(8) -0.020(9) -0.038(8)
C67 0.045(8) 0.049(9) 0.076(11) 0.005(8) -0.014(8) -0.028(7)
C68 0.045(8) 0.037(7) 0.073(10) 0.001(7) -0.027(7) -0.021(6)
C69 0.033(7) 0.030(7) 0.094(12) -0.007(7) -0.003(7) -0.011(6)
C70 0.033(8) 0.038(8) 0.137(17) -0.008(10) -0.015(9) -0.005(7)
C71 0.060(9) 0.077(11) 0.049(9) 0.002(8) -0.011(7) -0.053(9)
C72 0.061(9) 0.080(11) 0.037(8) -0.003(7) -0.007(7) -0.053(9)
C73 0.074(11) 0.098(13) 0.060(10) -0.018(9) -0.004(8) -0.064(11)
C74 0.072(10) 0.066(10) 0.055(9) -0.009(7) -0.014(8) -0.055(9)
C75 0.048(8) 0.051(8) 0.065(9) 0.015(7) -0.032(7) -0.035(7)
C76 0.051(8) 0.055(9) 0.071(10) 0.004(8) -0.029(8) -0.035(7)
C77 0.049(8) 0.062(9) 0.050(9) -0.009(7) -0.011(7) -0.037(7)
C78 0.018(6) 0.032(7) 0.070(9) -0.010(6) -0.014(6) -0.004(5)
C79 0.019(6) 0.036(7) 0.073(10) -0.014(7) -0.009(6) -0.010(5)
C80 0.033(6) 0.041(7) 0.067(9) 0.006(7) -0.020(6) -0.022(6)
C81 0.039(7) 0.050(8) 0.064(9) 0.000(7) -0.023(7) -0.025(6)
C82 0.033(6) 0.034(7) 0.073(10) 0.001(7) -0.025(7) -0.017(6)
C83 0.045(8) 0.033(7) 0.083(11) -0.004(7) -0.038(8) -0.014(6)
O7 0.062(6) 0.037(4) 0.100(8) 0.001(4) -0.023(5) -0.019(4)
O16 0.062(6) 0.037(4) 0.100(8) 0.001(4) -0.023(5) -0.019(4)
N6 0.062(6) 0.037(4) 0.100(8) 0.001(4) -0.023(5) -0.019(4)
C84 0.062(6) 0.037(4) 0.100(8) 0.001(4) -0.023(5) -0.019(4)
C85 0.062(6) 0.037(4) 0.100(8) 0.001(4) -0.023(5) -0.019(4)
C86 0.062(6) 0.037(4) 0.100(8) 0.001(4) -0.023(5) -0.019(4)
C87 0.062(6) 0.037(4) 0.100(8) 0.001(4) -0.023(5) -0.019(4)
C88 0.062(6) 0.037(4) 0.100(8) 0.001(4) -0.023(5) -0.019(4)
C89 0.129(13) 0.102(13) 0.105(12) 0.017(9) -0.047(8) -0.065(9)
Cl1 0.236(15) 0.152(10) 0.134(11) 0.027(10) -0.109(11) -0.061(10)
Cl2 0.118(6) 0.114(7) 0.112(7) -0.001(5) -0.019(5) -0.054(5)
Cl3 0.123(8) 0.128(8) 0.117(6) 0.002(5) -0.018(5) -0.079(7)
Cl1A 0.21(2) 0.12(3) 0.13(3) -0.02(2) -0.12(2) 0.00(3)
Cl2A 0.20(2) 0.19(4) 0.23(4) 0.05(3) 0.04(2) 0.00(3)
Cl3A 0.17(3) 0.25(4) 0.16(2) 0.11(2) -0.10(2) -0.04(3)
loop_
_atom_type_symbol
_atom_type_description
_atom_type_scat_dispersion_real
_atom_type_scat_dispersion_imag
_atom_type_scat_source
C C 0.0033 0.0016 'International Tables Vol C Tables 4.2.6.8 and 6.1.1.4'
H H 0.0000 0.0000 'International Tables Vol C Tables 4.2.6.8 and 6.1.1.4'
N N 0.0061 0.0033 'International Tables Vol C Tables 4.2.6.8 and 6.1.1.4'
O O 0.0106 0.0060 'International Tables Vol C Tables 4.2.6.8 and 6.1.1.4'
Cd Cd -0.8075 1.2024 'International Tables Vol C Tables 4.2.6.8 and 6.1.1.4'
Cl Cl 0.1484 0.1585 'International Tables Vol C Tables 4.2.6.8 and 6.1.1.4'
loop_
_geom_angle_atom_site_label_1
_geom_angle_atom_site_label_2
_geom_angle_atom_site_label_3
_geom_angle
_geom_angle_site_symmetry_1
_geom_angle_site_symmetry_3
_geom_angle_publ_flag
O1 Cd1 N1 95.9(4) . . ?
O1 Cd1 O4 139.3(3) . 1_645 ?
N1 Cd1 O4 96.1(4) . 1_645 ?
O1 Cd1 O3 85.6(3) . 1_645 ?
N1 Cd1 O3 93.5(4) . 1_645 ?
O4 Cd1 O3 55.0(3) 1_645 1_645 ?
O1 Cd1 O5 114.9(3) . 1_655 ?
N1 Cd1 O5 90.2(4) . 1_655 ?
O4 Cd1 O5 103.7(3) 1_645 1_655 ?
O3 Cd1 O5 158.7(3) 1_645 1_655 ?
O1 Cd1 O6 95.5(3) . 1_655 ?
N1 Cd1 O6 145.4(3) . 1_655 ?
O4 Cd1 O6 96.2(3) 1_645 1_655 ?
O3 Cd1 O6 119.9(3) 1_645 1_655 ?
O5 Cd1 O6 55.5(3) 1_655 1_655 ?
O1 Cd1 C20 113.2(4) . 1_645 ?
N1 Cd1 C20 94.9(5) . 1_645 ?
O4 Cd1 C20 27.0(3) 1_645 1_645 ?
O3 Cd1 C20 28.0(4) 1_645 1_645 ?
O5 Cd1 C20 130.7(4) 1_655 1_645 ?
O6 Cd1 C20 110.2(4) 1_655 1_645 ?
O1 Cd1 C27 108.5(4) . 1_655 ?
N1 Cd1 C27 118.2(4) . 1_655 ?
O4 Cd1 C27 99.5(3) 1_645 1_655 ?
O3 Cd1 C27 142.6(3) 1_645 1_655 ?
O5 Cd1 C27 28.0(3) 1_655 1_655 ?
O6 Cd1 C27 27.6(3) 1_655 1_655 ?
C20 Cd1 C27 122.6(4) 1_645 1_655 ?
O15 Cd2 O16 165.0(18) . . ?
O15 Cd2 O2 85.5(15) . . ?
O16 Cd2 O2 83.1(11) . . ?
O15 Cd2 O9 99.2(15) . . ?
O16 Cd2 O9 92.5(11) . . ?
O2 Cd2 O9 175.2(4) . . ?
O15 Cd2 O7 174.6(17) . . ?
O16 Cd2 O7 9.7(14) . . ?
O2 Cd2 O7 89.8(7) . . ?
O9 Cd2 O7 85.5(8) . . ?
O15 Cd2 O13 97.2(17) . 1_455 ?
O16 Cd2 O13 92.5(13) . 1_455 ?
O2 Cd2 O13 90.6(3) . 1_455 ?
O9 Cd2 O13 87.8(3) . 1_455 ?
O7 Cd2 O13 85.5(8) . 1_455 ?
O15 Cd2 N3 24.3(14) . . ?
O16 Cd2 N3 168.0(12) . . ?
O2 Cd2 N3 108.7(4) . . ?
O9 Cd2 N3 75.9(4) . . ?
O7 Cd2 N3 160.9(7) . . ?
O13 Cd2 N3 89.8(4) 1_455 . ?
O15 Cd2 O6 79.3(17) . 1_655 ?
O16 Cd2 O6 91.3(13) . 1_655 ?
O2 Cd2 O6 90.7(3) . 1_655 ?
O9 Cd2 O6 91.2(3) . 1_655 ?
O7 Cd2 O6 98.1(8) . 1_655 ?
O13 Cd2 O6 176.1(3) 1_455 1_655 ?
N3 Cd2 O6 86.4(4) . 1_655 ?
O10 Cd3 O11 96.4(5) . 1_465 ?
O10 Cd3 N2 85.9(4) . 1_654 ?
O11 Cd3 N2 88.0(6) 1_465 1_654 ?
O10 Cd3 O13 95.2(3) . 1_455 ?
O11 Cd3 O13 137.5(5) 1_465 1_455 ?
N2 Cd3 O13 133.5(4) 1_654 1_455 ?
O10 Cd3 O8 174.0(5) . . ?
O11 Cd3 O8 86.7(5) 1_465 . ?
N2 Cd3 O8 99.3(5) 1_654 . ?
O13 Cd3 O8 79.1(4) 1_455 . ?
O10 Cd3 O14 109.0(5) . 1_455 ?
O11 Cd3 O14 151.7(7) 1_465 1_455 ?
N2 Cd3 O14 81.9(4) 1_654 1_455 ?
O13 Cd3 O14 53.7(3) 1_455 1_455 ?
O8 Cd3 O14 69.2(6) . 1_455 ?
O10 Cd3 O12 102.5(5) . 1_465 ?
O11 Cd3 O12 52.5(5) 1_465 1_465 ?
N2 Cd3 O12 140.1(5) 1_654 1_465 ?
O13 Cd3 O12 85.1(4) 1_455 1_465 ?
O8 Cd3 O12 75.4(5) . 1_465 ?
O14 Cd3 O12 129.2(5) 1_455 1_465 ?
O10 Cd3 C71 107.6(4) . 1_455 ?
O11 Cd3 C71 151.3(5) 1_465 1_455 ?
N2 Cd3 C71 108.7(4) 1_654 1_455 ?
O13 Cd3 C71 27.5(4) 1_455 1_455 ?
O8 Cd3 C71 68.1(5) . 1_455 ?
O14 Cd3 C71 26.9(4) 1_455 1_455 ?
O12 Cd3 C71 105.7(5) 1_465 1_455 ?
C13 O1 Cd1 132.9(8) . . ?
C13 O2 Cd2 135.4(9) . . ?
C20 O3 Cd1 91.5(7) . 1_465 ?
C20 O4 Cd1 93.9(7) . 1_465 ?
C27 O5 Cd1 91.7(7) . 1_455 ?
C27 O6 Cd1 91.5(7) . 1_455 ?
C27 O6 Cd2 129.1(8) . 1_455 ?
Cd1 O6 Cd2 115.3(3) 1_455 1_455 ?
C57 O9 Cd2 136.0(10) . . ?
C57 O10 Cd3 125.4(8) . . ?
C64 O11 Cd3 101.4(15) . 1_645 ?
C64 O12 Cd3 83.3(17) . 1_645 ?
C71 O13 Cd2 127.2(10) . 1_655 ?
C71 O13 Cd3 92.9(8) . 1_655 ?
Cd2 O13 Cd3 116.7(3) 1_655 1_655 ?
C71 O14 Cd3 89.0(9) . 1_655 ?
C1 N1 C5 115.9(12) . . ?
C1 N1 Cd1 122.6(9) . . ?
C5 N1 Cd1 121.3(10) . . ?
C10 N2 C11 120.6(15) . . ?
C10 N2 Cd3 124.8(11) . 1_456 ?
C11 N2 Cd3 114.6(11) . 1_456 ?
N1 C1 C2 125.0(14) . . ?
N1 C1 H1A 117.5 . . ?
C2 C1 H1A 117.5 . . ?
C3 C2 C1 117.1(15) . . ?
C3 C2 H2A 121.5 . . ?
C1 C2 H2A 121.5 . . ?
C2 C3 C4 120.0(15) . . ?
C2 C3 C6 123.3(17) . . ?
C4 C3 C6 116.6(17) . . ?
C5 C4 C3 117.1(17) . . ?
C5 C4 H4A 121.5 . . ?
C3 C4 H4A 121.5 . . ?
N1 C5 C4 124.8(16) . . ?
N1 C5 H5A 117.6 . . ?
C4 C5 H5A 117.6 . . ?
C7 C6 C3 129(2) . . ?
C7 C6 H6A 115.5 . . ?
C3 C6 H6A 115.5 . . ?
C6 C7 C8 127(2) . . ?
C6 C7 H7A 116.7 . . ?
C8 C7 H7A 116.7 . . ?
C9 C8 C12 116.0(19) . . ?
C9 C8 C7 123(2) . . ?
C12 C8 C7 121.1(18) . . ?
C8 C9 C10 121(2) . . ?
C8 C9 H9A 119.6 . . ?
C10 C9 H9A 119.6 . . ?
N2 C10 C9 124(2) . . ?
N2 C10 H10A 118.2 . . ?
C9 C10 H10A 118.2 . . ?
N2 C11 C12 114.6(19) . . ?
N2 C11 H11A 122.7 . . ?
C12 C11 H11A 122.7 . . ?
C8 C12 C11 123.6(17) . . ?
C8 C12 H12A 118.2 . . ?
C11 C12 H12A 118.2 . . ?
O1 C13 O2 126.8(11) . . ?
O1 C13 C14 117.4(11) . . ?
O2 C13 C14 115.8(12) . . ?
C15 C14 C19 119.2(11) . . ?
C15 C14 C13 121.7(12) . . ?
C19 C14 C13 119.1(12) . . ?
C14 C15 C16 121.8(13) . . ?
C14 C15 H15A 119.1 . . ?
C16 C15 H15A 119.1 . . ?
C17 C16 C15 120.2(14) . . ?
C17 C16 H16A 119.9 . . ?
C15 C16 H16A 119.9 . . ?
C16 C17 C18 116.8(12) . . ?
C16 C17 C34 121.1(13) . . ?
C18 C17 C34 122.1(12) . . ?
C19 C18 C17 123.5(13) . . ?
C19 C18 H18A 118.3 . . ?
C17 C18 H18A 118.3 . . ?
C18 C19 C14 118.6(13) . . ?
C18 C19 H19A 120.7 . . ?
C14 C19 H19A 120.7 . . ?
O4 C20 O3 119.5(11) . . ?
O4 C20 C21 121.7(11) . . ?
O3 C20 C21 118.8(11) . . ?
O4 C20 Cd1 59.1(6) . 1_465 ?
O3 C20 Cd1 60.4(6) . 1_465 ?
C21 C20 Cd1 179.0(11) . 1_465 ?
C26 C21 C22 117.7(11) . . ?
C26 C21 C20 122.3(11) . . ?
C22 C21 C20 120.0(11) . . ?
C23 C22 C21 121.3(12) . . ?
C23 C22 H22A 119.4 . . ?
C21 C22 H22A 119.4 . . ?
C22 C23 C24 120.4(12) . . ?
C22 C23 H23A 119.8 . . ?
C24 C23 H23A 119.8 . . ?
C25 C24 C23 116.8(11) . . ?
C25 C24 C38 122.8(11) . . ?
C23 C24 C38 120.5(11) . . ?
C26 C25 C24 122.7(12) . . ?
C26 C25 H25A 118.6 . . ?
C24 C25 H25A 118.6 . . ?
C25 C26 C21 121.1(12) . . ?
C25 C26 H26A 119.5 . . ?
C21 C26 H26A 119.5 . . ?
O6 C27 O5 120.8(10) . . ?
O6 C27 C28 120.7(11) . . ?
O5 C27 C28 118.5(11) . . ?
O6 C27 Cd1 60.9(5) . 1_455 ?
O5 C27 Cd1 60.3(6) . 1_455 ?
C28 C27 Cd1 174.5(9) . 1_455 ?
C29 C28 C33 120.3(10) . . ?
C29 C28 C27 121.9(11) . . ?
C33 C28 C27 117.8(10) . . ?
C28 C29 C30 121.6(11) . . ?
C28 C29 H29A 119.2 . . ?
C30 C29 H29A 119.2 . . ?
C29 C30 C31 118.7(12) . . ?
C29 C30 H30A 120.6 . . ?
C31 C30 H30A 120.6 . . ?
C32 C31 C30 118.9(10) . . ?
C32 C31 C36 122.3(11) . . ?
C30 C31 C36 118.8(11) . . ?
C31 C32 C33 120.9(11) . . ?
C31 C32 H32A 119.6 . . ?
C33 C32 H32A 119.6 . . ?
C28 C33 C32 119.7(12) . . ?
C28 C33 H33A 120.2 . . ?
C32 C33 H33A 120.2 . . ?
C39 C34 C35 117.0(10) . . ?
C39 C34 C17 122.0(10) . . ?
C35 C34 C17 121.0(10) . . ?
C34 C35 C36 122.0(10) . . ?
C34 C35 H35A 119.0 . . ?
C36 C35 H35A 119.0 . . ?
C37 C36 C35 118.1(10) . . ?
C37 C36 C31 122.3(10) . . ?
C35 C36 C31 119.7(11) . . ?
C36 C37 C38 122.0(10) . . ?
C36 C37 H37A 119.0 . . ?
C38 C37 H37A 119.0 . . ?
C39 C38 C37 117.7(10) . . ?
C39 C38 C24 122.8(11) . . ?
C37 C38 C24 119.4(10) . . ?
C34 C39 C38 123.2(11) . . ?
C34 C39 H39A 118.4 . . ?
C38 C39 H39A 118.4 . . ?
N3 O15 Cd2 88(3) . . ?
O15 N3 C40 165(4) . . ?
O15 N3 C44 59(3) . . ?
C40 N3 C44 120.0 . . ?
O15 N3 Cd2 68(3) . . ?
C40 N3 Cd2 119.0(6) . . ?
C44 N3 Cd2 119.1(6) . . ?
N3 C40 C41 120.0 . . ?
N3 C40 H40A 120.0 . . ?
C41 C40 H40A 120.0 . . ?
C40 C41 C42 120.0 . . ?
C40 C41 H41A 120.0 . . ?
C42 C41 H41A 120.0 . . ?
C43 C42 C41 120.0 . . ?
C43 C42 C45 122.7(12) . . ?
C41 C42 C45 117.2(12) . . ?
C44 C43 C42 120.0 . . ?
C44 C43 H43A 120.0 . . ?
C42 C43 H43A 120.0 . . ?
C43 C44 N3 120.0 . . ?
C43 C44 H44 120.0 . . ?
N3 C44 H44 120.0 . . ?
C46 C45 C42 130.9(19) . . ?
C46 C45 H45A 114.6 . . ?
C42 C45 H45A 114.6 . . ?
C45 C46 C47 134(2) . . ?
C45 C46 H46A 112.9 . . ?
C47 C46 H46A 112.9 . . ?
C48 C47 C51 120.0 . . ?
C48 C47 C46 116.8(15) . . ?
C51 C47 C46 123.2(15) . . ?
C49 C48 C47 120.0 . . ?
C49 C48 H48A 120.0 . . ?
C47 C48 H48A 120.0 . . ?
C48 C49 N4 120.0 . . ?
C48 C49 H49A 120.0 . . ?
N4 C49 H49A 120.0 . . ?
C50 N4 C49 120.0 . . ?
N4 C50 C51 120.0 . . ?
N4 C50 H50A 120.0 . . ?
C51 C50 H50A 120.0 . . ?
C50 C51 C47 120.0 . . ?
C50 C51 H51A 120.0 . . ?
C47 C51 H51A 120.0 . . ?
C52 O8 Cd3 119.4(14) . . ?
C52 N5 C56 128(2) . . ?
C52 N5 C54 119(2) . . ?
C56 N5 C54 110.5(18) . . ?
N5 C52 O8 127(2) . . ?
N5 C52 H52A 116.6 . . ?
O8 C52 H52A 116.6 . . ?
C54 C53 H53A 109.5 . . ?
C54 C53 H53B 109.5 . . ?
H53A C53 H53B 109.5 . . ?
C54 C53 H53C 109.5 . . ?
H53A C53 H53C 109.5 . . ?
H53B C53 H53C 109.5 . . ?
N5 C54 C53 123(3) . . ?
N5 C54 H54A 106.7 . . ?
C53 C54 H54A 106.7 . . ?
N5 C54 H54B 106.7 . . ?
C53 C54 H54B 106.7 . . ?
H54A C54 H54B 106.6 . . ?
C56 C55 H55A 109.5 . . ?
C56 C55 H55B 109.5 . . ?
H55A C55 H55B 109.5 . . ?
C56 C55 H55C 109.5 . . ?
H55A C55 H55C 109.5 . . ?
H55B C55 H55C 109.5 . . ?
N5 C56 C55 116(2) . . ?
N5 C56 H56A 108.4 . . ?
C55 C56 H56A 108.4 . . ?
N5 C56 H56B 108.4 . . ?
C55 C56 H56B 108.4 . . ?
H56A C56 H56B 107.5 . . ?
O9 C57 O10 127.4(13) . . ?
O9 C57 C58 114.8(14) . . ?
O10 C57 C58 117.7(14) . . ?
C59 C58 C63 118.6(12) . . ?
C59 C58 C57 121.7(13) . . ?
C63 C58 C57 119.7(13) . . ?
C58 C59 C60 118.2(13) . . ?
C58 C59 H59A 120.9 . . ?
C60 C59 H59A 120.9 . . ?
C61 C60 C59 123.0(13) . . ?
C61 C60 H60A 118.5 . . ?
C59 C60 H60A 118.5 . . ?
C62 C61 C60 118.3(11) . . ?
C62 C61 C78 121.0(12) . . ?
C60 C61 C78 120.7(12) . . ?
C61 C62 C63 120.8(13) . . ?
C61 C62 H62A 119.6 . . ?
C63 C62 H62A 119.6 . . ?
C62 C63 C58 121.0(13) . . ?
C62 C63 H63A 119.5 . . ?
C58 C63 H63A 119.5 . . ?
O11 C64 O12 122(2) . . ?
O11 C64 C65 117(2) . . ?
O12 C64 C65 121(2) . . ?
C70 C65 C66 118.2(14) . . ?
C70 C65 C64 121.7(18) . . ?
C66 C65 C64 120.0(18) . . ?
C67 C66 C65 120.7(14) . . ?
C67 C66 H66A 119.7 . . ?
C65 C66 H66A 119.7 . . ?
C66 C67 C68 121.9(14) . . ?
C66 C67 H67A 119.1 . . ?
C68 C67 H67A 119.1 . . ?
C67 C68 C69 117.3(13) . . ?
C67 C68 C80 121.9(13) . . ?
C69 C68 C80 120.7(13) . . ?
C70 C69 C68 119.0(14) . . ?
C70 C69 H69A 120.5 . . ?
C68 C69 H69A 120.5 . . ?
C65 C70 C69 122.9(14) . . ?
C65 C70 H70A 118.6 . . ?
C69 C70 H70A 118.6 . . ?
O14 C71 O13 121.6(12) . . ?
O14 C71 C72 118.9(13) . . ?
O13 C71 C72 119.4(12) . . ?
O14 C71 Cd3 64.1(8) . 1_655 ?
O13 C71 Cd3 59.7(7) . 1_655 ?
C72 C71 Cd3 161.6(12) . 1_655 ?
C77 C72 C73 118.8(12) . . ?
C77 C72 C71 121.3(12) . . ?
C73 C72 C71 119.9(13) . . ?
C74 C73 C72 117.9(14) . . ?
C74 C73 H73A 121.1 . . ?
C72 C73 H73A 121.1 . . ?
C75 C74 C73 123.8(13) . . ?
C75 C74 H74A 118.1 . . ?
C73 C74 H74A 118.1 . . ?
C76 C75 C74 118.3(12) . . ?
C76 C75 C82 119.9(13) . . ?
C74 C75 C82 121.6(12) . . ?
C75 C76 C77 120.1(14) . . ?
C75 C76 H76A 120.0 . . ?
C77 C76 H76A 120.0 . . ?
C72 C77 C76 121.1(13) . . ?
C72 C77 H77A 119.5 . . ?
C76 C77 H77A 119.5 . . ?
C79 C78 C83 119.0(11) . . ?
C79 C78 C61 120.9(11) . . ?
C83 C78 C61 120.0(11) . . ?
C78 C79 C80 123.5(11) . . ?
C78 C79 H79A 118.2 . . ?
C80 C79 H79A 118.2 . . ?
C81 C80 C79 117.0(12) . . ?
C81 C80 C68 119.6(11) . . ?
C79 C80 C68 123.3(11) . . ?
C80 C81 C82 121.4(12) . . ?
C80 C81 H81A 119.3 . . ?
C82 C81 H81A 119.3 . . ?
C81 C82 C83 119.9(11) . . ?
C81 C82 C75 119.6(11) . . ?
C83 C82 C75 120.2(11) . . ?
C82 C83 C78 119.0(12) . . ?
C82 C83 H83A 120.5 . . ?
C78 C83 H83A 120.5 . . ?
C84 O7 Cd2 148(3) . . ?
C84 O16 Cd2 166(4) . . ?
C84 N6 C88 119(2) . . ?
C84 N6 C86 117(2) . . ?
C88 N6 C86 114(2) . . ?
O7 C84 O16 18(2) . . ?
O7 C84 N6 134(3) . . ?
O16 C84 N6 128(3) . . ?
O7 C84 H84A 112.4 . . ?
O16 C84 H84A 112.4 . . ?
N6 C84 H84A 112.4 . . ?
C86 C85 C87 148(3) . 2_666 ?
C86 C85 H85A 109.5 . . ?
C87 C85 H85A 38.7 2_666 . ?
C86 C85 H85B 109.5 . . ?
C87 C85 H85B 84.7 2_666 . ?
H85A C85 H85B 109.5 . . ?
C86 C85 H85C 109.5 . . ?
C87 C85 H85C 91.5 2_666 . ?
H85A C85 H85C 109.5 . . ?
H85B C85 H85C 109.5 . . ?
N6 C86 C85 113(2) . . ?
N6 C86 H86A 108.9 . . ?
C85 C86 H86A 108.9 . . ?
N6 C86 H86B 108.9 . . ?
C85 C86 H86B 108.9 . . ?
H86A C86 H86B 107.7 . . ?
C88 C87 C85 139(3) . 2_666 ?
C88 C87 H87A 109.5 . . ?
C85 C87 H87A 111.6 2_666 . ?
C88 C87 H87B 109.5 . . ?
C85 C87 H87B 51.5 2_666 . ?
H87A C87 H87B 109.5 . . ?
C88 C87 H87C 109.5 . . ?
C85 C87 H87C 60.2 2_666 . ?
H87A C87 H87C 109.5 . . ?
H87B C87 H87C 109.5 . . ?
N6 C88 C87 119(2) . . ?
N6 C88 H88A 107.5 . . ?
C87 C88 H88A 107.5 . . ?
N6 C88 H88B 107.5 . . ?
C87 C88 H88B 107.5 . . ?
H88A C88 H88B 107.0 . . ?
Cl3 C89 Cl1 113.8(11) . . ?
Cl3 C89 Cl2 110.9(10) . . ?
Cl1 C89 Cl2 106.6(10) . . ?
Cl2A C89 Cl1A 114(3) . . ?
Cl2A C89 Cl3A 122(3) . . ?
Cl1A C89 Cl3A 111(2) . . ?
Cl3 C89 H89A 108.5 . . ?
Cl1 C89 H89A 108.5 . . ?
Cl2 C89 H89A 108.5 . . ?
Cl2A C89 H89B 102.5 . . ?
Cl1A C89 H89B 102.5 . . ?
Cl3A C89 H89B 102.5 . . ?
loop_
_geom_bond_atom_site_label_1
_geom_bond_atom_site_label_2
_geom_bond_distance
_geom_bond_site_symmetry_2
_geom_bond_publ_flag
Cd1 O1 2.201(9) . ?
Cd1 N1 2.283(10) . ?
Cd1 O4 2.319(8) 1_645 ?
Cd1 O3 2.346(8) 1_645 ?
Cd1 O5 2.358(9) 1_655 ?
Cd1 O6 2.373(8) 1_655 ?
Cd1 C20 2.697(12) 1_645 ?
Cd1 C27 2.715(11) 1_655 ?
Cd2 O15 2.21(5) . ?
Cd2 O16 2.22(3) . ?
Cd2 O2 2.225(8) . ?
Cd2 O9 2.256(9) . ?
Cd2 O7 2.32(2) . ?
Cd2 O13 2.346(10) 1_455 ?
Cd2 N3 2.385(8) . ?
Cd2 O6 2.393(8) 1_655 ?
Cd3 O10 2.227(9) . ?
Cd3 O11 2.237(12) 1_465 ?
Cd3 N2 2.340(12) 1_654 ?
Cd3 O13 2.351(8) 1_455 ?
Cd3 O8 2.385(14) . ?
Cd3 O14 2.448(12) 1_455 ?
Cd3 O12 2.614(18) 1_465 ?
Cd3 C71 2.721(13) 1_455 ?
O1 C13 1.243(16) . ?
O2 C13 1.271(15) . ?
O3 C20 1.268(15) . ?
O4 C20 1.227(15) . ?
O5 C27 1.275(15) . ?
O6 C27 1.258(14) . ?
O9 C57 1.238(18) . ?
O10 C57 1.240(18) . ?
O11 C64 1.24(3) . ?
O12 C64 1.25(3) . ?
O13 C71 1.257(16) . ?
O14 C71 1.229(17) . ?
N1 C1 1.303(17) . ?
N1 C5 1.337(18) . ?
N2 C10 1.28(2) . ?
N2 C11 1.36(2) . ?
C1 C2 1.39(2) . ?
C1 H1A 0.9400 . ?
C2 C3 1.36(2) . ?
C2 H2A 0.9400 . ?
C3 C4 1.39(2) . ?
C3 C6 1.48(2) . ?
C4 C5 1.36(2) . ?
C4 H4A 0.9400 . ?
C5 H5A 0.9400 . ?
C6 C7 1.21(2) . ?
C6 H6A 0.9400 . ?
C7 C8 1.52(2) . ?
C7 H7A 0.9400 . ?
C8 C9 1.31(3) . ?
C8 C12 1.37(3) . ?
C9 C10 1.39(3) . ?
C9 H9A 0.9400 . ?
C10 H10A 0.9400 . ?
C11 C12 1.44(3) . ?
C11 H11A 0.9400 . ?
C12 H12A 0.9400 . ?
C13 C14 1.515(15) . ?
C14 C15 1.345(19) . ?
C14 C19 1.389(17) . ?
C15 C16 1.397(18) . ?
C15 H15A 0.9400 . ?
C16 C17 1.369(18) . ?
C16 H16A 0.9400 . ?
C17 C18 1.39(2) . ?
C17 C34 1.487(16) . ?
C18 C19 1.364(17) . ?
C18 H18A 0.9400 . ?
C19 H19A 0.9400 . ?
C20 C21 1.492(16) . ?
C21 C26 1.380(17) . ?
C21 C22 1.393(17) . ?
C22 C23 1.364(16) . ?
C22 H22A 0.9400 . ?
C23 C24 1.416(17) . ?
C23 H23A 0.9400 . ?
C24 C25 1.372(17) . ?
C24 C38 1.461(16) . ?
C25 C26 1.348(17) . ?
C25 H25A 0.9400 . ?
C26 H26A 0.9400 . ?
C27 C28 1.498(15) . ?
C28 C29 1.351(17) . ?
C28 C33 1.387(16) . ?
C29 C30 1.405(17) . ?
C29 H29A 0.9400 . ?
C30 C31 1.411(17) . ?
C30 H30A 0.9400 . ?
C31 C32 1.390(17) . ?
C31 C36 1.470(15) . ?
C32 C33 1.392(15) . ?
C32 H32A 0.9400 . ?
C33 H33A 0.9400 . ?
C34 C39 1.373(17) . ?
C34 C35 1.402(15) . ?
C35 C36 1.408(14) . ?
C35 H35A 0.9400 . ?
C36 C37 1.373(16) . ?
C37 C38 1.393(16) . ?
C37 H37A 0.9400 . ?
C38 C39 1.394(17) . ?
C39 H39A 0.9400 . ?
O15 N3 0.98(6) . ?
N3 C40 1.3900 . ?
N3 C44 1.3900 . ?
C40 C41 1.3900 . ?
C40 H40A 0.9400 . ?
C41 C42 1.3900 . ?
C41 H41A 0.9400 . ?
C42 C43 1.3900 . ?
C42 C45 1.464(15) . ?
C43 C44 1.3900 . ?
C43 H43A 0.9400 . ?
C44 H44 0.9400 . ?
C45 C46 1.321(17) . ?
C45 H45A 0.9400 . ?
C46 C47 1.409(16) . ?
C46 H46A 0.9400 . ?
C47 C48 1.3900 . ?
C47 C51 1.3900 . ?
C48 C49 1.3900 . ?
C48 H48A 0.9400 . ?
C49 N4 1.3900 . ?
C49 H49A 0.9400 . ?
N4 C50 1.3900 . ?
C50 C51 1.3900 . ?
C50 H50A 0.9400 . ?
C51 H51A 0.9400 . ?
O8 C52 1.288(17) . ?
N5 C52 1.261(16) . ?
N5 C56 1.447(17) . ?
N5 C54 1.462(17) . ?
C52 H52A 0.9400 . ?
C53 C54 1.476(19) . ?
C53 H53A 0.9700 . ?
C53 H53B 0.9700 . ?
C53 H53C 0.9700 . ?
C54 H54A 0.9800 . ?
C54 H54B 0.9800 . ?
C55 C56 1.528(19) . ?
C55 H55A 0.9700 . ?
C55 H55B 0.9700 . ?
C55 H55C 0.9700 . ?
C56 H56A 0.9800 . ?
C56 H56B 0.9800 . ?
C57 C58 1.498(18) . ?
C58 C59 1.409(19) . ?
C58 C63 1.411(19) . ?
C59 C60 1.409(17) . ?
C59 H59A 0.9400 . ?
C60 C61 1.393(18) . ?
C60 H60A 0.9400 . ?
C61 C62 1.369(18) . ?
C61 C78 1.487(15) . ?
C62 C63 1.407(17) . ?
C62 H62A 0.9400 . ?
C63 H63A 0.9400 . ?
C64 C65 1.52(3) . ?
C65 C70 1.36(2) . ?
C65 C66 1.39(2) . ?
C66 C67 1.38(2) . ?
C66 H66A 0.9400 . ?
C67 C68 1.395(19) . ?
C67 H67A 0.9400 . ?
C68 C69 1.411(18) . ?
C68 C80 1.477(18) . ?
C69 C70 1.40(2) . ?
C69 H69A 0.9400 . ?
C70 H70A 0.9400 . ?
C71 C72 1.479(17) . ?
C72 C77 1.385(18) . ?
C72 C73 1.40(2) . ?
C73 C74 1.377(18) . ?
C73 H73A 0.9400 . ?
C74 C75 1.371(19) . ?
C74 H74A 0.9400 . ?
C75 C76 1.364(19) . ?
C75 C82 1.496(16) . ?
C76 C77 1.399(17) . ?
C76 H76A 0.9400 . ?
C77 H77A 0.9400 . ?
C78 C79 1.359(17) . ?
C78 C83 1.411(17) . ?
C79 C80 1.406(16) . ?
C79 H79A 0.9400 . ?
C80 C81 1.388(16) . ?
C81 C82 1.393(18) . ?
C81 H81A 0.9400 . ?
C82 C83 1.411(17) . ?
C83 H83A 0.9400 . ?
O7 C84 1.29(4) . ?
O16 C84 1.291(19) . ?
N6 C84 1.312(18) . ?
N6 C88 1.435(18) . ?
N6 C86 1.478(18) . ?
C84 H84A 0.9900 . ?
C85 C86 1.519(19) . ?
C85 C87 1.87(5) 2_666 ?
C85 H85A 0.9700 . ?
C85 H85B 0.9700 . ?
C85 H85C 0.9700 . ?
C86 H86A 0.9800 . ?
C86 H86B 0.9800 . ?
C87 C88 1.527(19) . ?
C87 H87A 0.9700 . ?
C87 H87B 0.9700 . ?
C87 H87C 0.9700 . ?
C88 H88A 0.9800 . ?
C88 H88B 0.9800 . ?
C89 Cl3 1.739(13) . ?
C89 Cl1 1.752(14) . ?
C89 Cl2 1.761(14) . ?
C89 Cl2A 1.770(17) . ?
C89 Cl1A 1.772(17) . ?
C89 Cl3A 1.774(17) . ?
C89 H89A 0.9900 . ?
C89 H89B 0.9900 . ?
loop_
_publcif_info_exptl_table_extra_item
sin_theta_over_lambda_max
loop_
_publcif_info_exptl_table_header_item
?
