#------------------------------------------------------------------------------
#$Date: 2020-03-04 08:10:05 +0200 (Wed, 04 Mar 2020) $
#$Revision: 248733 $
#$URL: file:///home/coder/svn-repositories/cod/cif/7/12/61/7126107.cif $
#------------------------------------------------------------------------------
#
# This file is available in the Crystallography Open Database (COD),
# http://www.crystallography.net/
#
# All data on this site have been placed in the public domain by the
# contributors.
#
data_7126107
loop_
_publ_author_name
'Wang, Jia-Yin'
'Li, Wen-Hua'
'Wei, Zhong'
'Zhang, Chong'
'Li, Ya-Hui'
'Dong, Xi-Yan'
'Xu, Gang'
'Zang, Shuang-Quan'
_publ_section_title
;
 A hydrophobic semiconducting metal-organic framework assembled from
 silver chalcogenide wires.
;
_journal_issue                   14
_journal_name_full
'Chemical communications (Cambridge, England)'
_journal_page_first              2091
_journal_page_last               2094
_journal_paper_doi               10.1039/c9cc08402a
_journal_volume                  56
_journal_year                    2020
_chemical_formula_moiety         'C12 H18 Ag3 F2 O2 S2'
_chemical_formula_sum            'C12 H18 Ag3 F2 O2 S2'
_chemical_formula_weight         619.99
_space_group_crystal_system      orthorhombic
_space_group_IT_number           24
_space_group_name_Hall           'I 2b 2c'
_space_group_name_H-M_alt        'I 21 21 21'
_atom_sites_solution_hydrogens   geom
_atom_sites_solution_primary     direct
_audit_creation_date             2019-12-21
_audit_creation_method
;
Olex2 1.2
(compiled 2018.05.29 svn.r3508 for OlexSys, GUI svn.r5506)
;
_audit_update_record
;
2019-12-21 deposited with the CCDC.	2020-01-07 downloaded from the CCDC.
;
_cell_angle_alpha                90
_cell_angle_beta                 90
_cell_angle_gamma                90
_cell_formula_units_Z            8
_cell_length_a                   11.3195(7)
_cell_length_b                   22.5808(11)
_cell_length_c                   23.2576(14)
_cell_measurement_reflns_used    3313
_cell_measurement_temperature    200.00(10)
_cell_measurement_theta_max      69.2390
_cell_measurement_theta_min      3.9050
_cell_volume                     5944.7(6)
_computing_cell_refinement       'CrysAlisPro 1.171.39.27b (Rigaku OD, 2015)'
_computing_data_collection       'CrysAlisPro 1.171.39.27b (Rigaku OD, 2015)'
_computing_data_reduction        'CrysAlisPro 1.171.39.27b (Rigaku OD, 2015)'
_computing_molecular_graphics    'Olex2 (Dolomanov et al., 2009)'
_computing_publication_material  'Olex2 (Dolomanov et al., 2009)'
_computing_structure_refinement  'ShelXL (Sheldrick, 2015)'
_computing_structure_solution    'ShelXS (Sheldrick, 2008)'
_diffrn_ambient_environment      N~2~
_diffrn_ambient_temperature      200.00(10)
_diffrn_detector                 'CCD plate'
_diffrn_measured_fraction_theta_full 0.997
_diffrn_measured_fraction_theta_max 0.959
_diffrn_measurement_details
;
List of Runs (angles in degrees, time in seconds):

  # Type    Start    End  Width  t~exp~   \w     \q     \k     \f   Frames
#--------------------------------------------------------------------------
  1  \w     12.00  54.00   0.50    0.81    --    0.00  38.00-120.00   84
  2  \w    -22.00  77.00   0.50    0.81    --    0.00  57.00 120.00  198
  3  \w     79.00 124.00   0.50    8.00    --   95.20 -77.00   0.00   90
  4  \w    103.00 166.00   0.50    8.00    --   95.20  61.00  60.00  126
  5  \w      8.00 115.00   0.50    8.00    --   95.20 -61.00   0.00  214
  6  \w     88.00 171.00   0.50    8.00    --   95.20  30.00 -30.00  166
  7  \w     94.00 119.00   0.50    8.00    --   95.20 -77.00-180.00   50
;
_diffrn_measurement_device       'four-circle diffractometer'
_diffrn_measurement_device_type  'XtaLAB AFC12 (RINC): Kappa single'
_diffrn_measurement_method       '\w scans'
_diffrn_orient_matrix_type
'CrysAlisPro convention (1999,Acta A55,543-557)'
_diffrn_orient_matrix_UB_11      -0.0212046000
_diffrn_orient_matrix_UB_12      0.0083200000
_diffrn_orient_matrix_UB_13      0.0649703000
_diffrn_orient_matrix_UB_21      0.0457114000
_diffrn_orient_matrix_UB_22      -0.0631750000
_diffrn_orient_matrix_UB_23      0.0112516000
_diffrn_orient_matrix_UB_31      0.1264223000
_diffrn_orient_matrix_UB_32      0.0242561000
_diffrn_orient_matrix_UB_33      0.0067677000
_diffrn_radiation_monochromator  graphite
_diffrn_radiation_probe          x-ray
_diffrn_radiation_type           CuK\a
_diffrn_radiation_wavelength     1.54184
_diffrn_reflns_av_R_equivalents  0.0818
_diffrn_reflns_av_unetI/netI     0.0961
_diffrn_reflns_Laue_measured_fraction_full 0.997
_diffrn_reflns_Laue_measured_fraction_max 0.959
_diffrn_reflns_limit_h_max       13
_diffrn_reflns_limit_h_min       -10
_diffrn_reflns_limit_k_max       27
_diffrn_reflns_limit_k_min       -28
_diffrn_reflns_limit_l_max       28
_diffrn_reflns_limit_l_min       -27
_diffrn_reflns_number            9730
_diffrn_reflns_point_group_measured_fraction_full 0.895
_diffrn_reflns_point_group_measured_fraction_max 0.841
_diffrn_reflns_theta_full        67.684
_diffrn_reflns_theta_max         74.815
_diffrn_reflns_theta_min         2.727
_diffrn_source                   'fine-focus sealed X-ray tube'
_diffrn_source_type              'Enhance (Cu) X-ray Source'
_exptl_absorpt_coefficient_mu    17.122
_exptl_absorpt_correction_T_max  1.00000
_exptl_absorpt_correction_T_min  0.38971
_exptl_absorpt_correction_type   multi-scan
_exptl_absorpt_process_details
;
CrysAlisPro 1.171.39.27b (Rigaku Oxford Diffraction, 2015)
Empirical absorption correction using spherical harmonics,
 implemented in SCALE3 ABSPACK scaling algorithm.
;
_exptl_crystal_colour            colourless
_exptl_crystal_colour_primary    colourless
_exptl_crystal_density_diffrn    1.385
_exptl_crystal_description       needle
_exptl_crystal_F_000             2376
_exptl_crystal_size_max          0.3
_exptl_crystal_size_mid          0.05
_exptl_crystal_size_min          0.04
_refine_diff_density_max         2.949
_refine_diff_density_min         -1.530
_refine_diff_density_rms         0.324
_refine_ls_abs_structure_details
;
 Refined as an inversion twin.
;
_refine_ls_abs_structure_Flack   0.26(6)
_refine_ls_extinction_method     none
_refine_ls_goodness_of_fit_ref   1.092
_refine_ls_hydrogen_treatment    constr
_refine_ls_matrix_type           full
_refine_ls_number_parameters     197
_refine_ls_number_reflns         5168
_refine_ls_number_restraints     106
_refine_ls_restrained_S_all      1.087
_refine_ls_R_factor_all          0.1384
_refine_ls_R_factor_gt           0.1185
_refine_ls_shift/su_max          0.001
_refine_ls_shift/su_mean         0.000
_refine_ls_structure_factor_coef Fsqd
_refine_ls_weighting_details
'w=1/[\s^2^(Fo^2^)+(0.2000P)^2^] where P=(Fo^2^+2Fc^2^)/3'
_refine_ls_weighting_scheme      calc
_refine_ls_wR_factor_gt          0.3038
_refine_ls_wR_factor_ref         0.3189
_reflns_Friedel_coverage         0.587
_reflns_Friedel_fraction_full    0.768
_reflns_Friedel_fraction_max     0.695
_reflns_number_gt                3392
_reflns_number_total             5168
_reflns_threshold_expression     'I > 2\s(I)'
_iucr_refine_instructions_details
;
TITL hy_a.res in I2(1)2(1)2(1)
    hy.res
    created by SHELXL-2018/3 at 12:20:34 on 21-Dec-2019
REM Old TITL hy in I212121 #24
REM SHELXT solution in I2(1)2(1)2(1)
REM R1 0.220, Rweak 0.097, Alpha 0.033, Orientation as input
REM Flack x = 0.264 ( 0.028 ) from Parsons' quotients
REM Formula found by SHELXT: C25 N4 O4 F2 S4 Ag6
CELL 1.54184 11.3195 22.5808 23.2576 90 90 90
ZERR 8 0.0007 0.0011 0.0014 0 0 0
LATT -2
SYMM 0.5-X,-Y,0.5+Z
SYMM -X,0.5+Y,0.5-Z
SYMM 0.5+X,0.5-Y,-Z
SFAC C H Ag F O S
UNIT 96 144 24 16 16 16
SADI 0.01 O2 C9 O1 C9
SADI 0.01 C4 C1 C2 C1 C3 C1
SADI 0.01 C4 C3 C3 C2
SADI 0.01 C3 C2 C2 C4
SADI 0.01 C6 C5 C7 C5 C8 C5
RIGU 0.001 0.001 C9 C10 C12 F2 C11 F1
RIGU 0.001 0.001 C1 C4 C2 C3
RIGU 0.001 0.001 C8 C7 C5 C6
ISOR 0.01 0.02 C8 C9 C4 F2 F1

L.S. 50 0 0
PLAN  5
SIZE 0.08 0.06 0.12
list 4
MORE -1
CONF
ABIN
fmap 2 53
acta
TWIN -1 0 0 0 -1 0 0 0 -1 2
REM <olex2.extras>
REM <HklSrc "%.\\hy.hkl">
REM </olex2.extras>

WGHT    0.200000
BASF   0.25978
FVAR       0.10398
PART 1
AG1   3    0.387656    0.798730    0.547428    11.00000    0.07305    0.07532 =
         0.06757    0.00435    0.00681   -0.00581
PART 0
AG2   3    0.228002    0.657378    0.561700    11.00000    0.10453    0.07226 =
         0.06686    0.00792    0.01052   -0.00426
AG3   3   -0.035885    0.680454    0.575633    11.00000    0.10422    0.08826 =
         0.07974    0.03045    0.02394    0.03170
S1    6    0.554766    0.857315    0.518051    11.00000    0.05040    0.07212 =
         0.07556    0.01378    0.00801    0.00664
S2    6    0.218504    0.763161    0.595828    11.00000    0.06235    0.06321 =
         0.05897    0.00186   -0.00095    0.00388
F1    4    0.103246    0.615828    0.774961    11.00000    0.17646    0.11726 =
         0.12641    0.01154    0.01614    0.01127
F2    4    0.087983    0.459937    0.641325    11.00000    0.18267    0.14202 =
         0.12294    0.00201   -0.00274    0.00103
O1    5    0.197418    0.587364    0.629461    11.00000    0.08663    0.07924 =
         0.08431   -0.00316   -0.02785    0.01447
O2    5    0.013555    0.619724    0.651475    11.00000    0.04985    0.13530 =
         0.08126    0.01297    0.02034    0.02410
C1    1    0.498285    0.937704    0.522491    11.00000    0.07235    0.09456 =
         0.13813    0.00950   -0.00622    0.00400
C2    1    0.439753    0.941691    0.580024    11.00000    0.09551    0.05138 =
         0.14074    0.00748    0.00258   -0.00788
AFIX 137
H2A   2    0.390902    0.907463    0.585868    11.00000   -1.50000
H2B   2    0.391874    0.976746    0.581576    11.00000   -1.50000
H2C   2    0.498916    0.943422    0.609550    11.00000   -1.50000
AFIX   0
C3    1    0.607827    0.974743    0.517283    11.00000    0.08470    0.09668 =
         0.12352   -0.02091    0.00664   -0.00626
AFIX 137
H3A   2    0.659295    0.966670    0.549140    11.00000   -1.50000
H3B   2    0.586665    1.015912    0.517389    11.00000   -1.50000
H3C   2    0.647603    0.965342    0.481988    11.00000   -1.50000
AFIX   0
C4    1    0.415613    0.944242    0.472697    11.00000    0.08287    0.12227 =
         0.14243   -0.00235   -0.01355    0.01080
AFIX 137
H4A   2    0.446513    0.973055    0.446335    11.00000   -1.50000
H4B   2    0.339741    0.957023    0.486343    11.00000   -1.50000
H4C   2    0.407540    0.906842    0.453467    11.00000   -1.50000
AFIX   0
C5    1    0.260616    0.765171    0.668353    11.00000    0.05986    0.09827 =
         0.07548   -0.01941    0.00641    0.00796
C6    1    0.150844    0.751691    0.707355    11.00000    0.06096    0.11429 =
         0.11828    0.02768    0.02077    0.03252
AFIX 137
H6A   2    0.089205    0.779644    0.699156    11.00000   -1.50000
H6B   2    0.173167    0.754861    0.747058    11.00000   -1.50000
H6C   2    0.122965    0.712315    0.699728    11.00000   -1.50000
AFIX   0
C7    1    0.312262    0.827469    0.684930    11.00000    0.11020    0.10359 =
         0.05086   -0.01656   -0.00128   -0.00701
AFIX 137
H7A   2    0.378012    0.836530    0.660388    11.00000   -1.50000
H7B   2    0.338097    0.826820    0.724240    11.00000   -1.50000
H7C   2    0.252227    0.857115    0.680290    11.00000   -1.50000
AFIX   0
C8    1    0.350532    0.715735    0.687143    11.00000    0.02369    0.10061 =
         0.08080   -0.00409   -0.00075   -0.01611
AFIX 137
H8A   2    0.349661    0.684208    0.659454    11.00000   -1.50000
H8B   2    0.328303    0.700529    0.724140    11.00000   -1.50000
H8C   2    0.428522    0.732289    0.689306    11.00000   -1.50000
AFIX   0
C9    1    0.099197    0.582781    0.656992    11.00000    0.11148    0.09625 =
         0.08698    0.01249   -0.00064   -0.00286
C10   1    0.102436    0.539060    0.704618    11.00000    0.05689    0.10844 =
         0.10062    0.02751    0.01316    0.00997
C11   1    0.100642    0.555693    0.757709    11.00000    0.26309    0.10706 =
         0.09815    0.03131    0.01342    0.02118
C12   1    0.100098    0.485351    0.695110    11.00000    0.12414    0.10780 =
         0.10507    0.02731    0.00510    0.01081
HKLF 4




REM  hy_a.res in I2(1)2(1)2(1)
REM wR2 = 0.3189, GooF = S = 1.092, Restrained GooF = 1.087 for all data
REM R1 = 0.1185 for 3392 Fo > 4sig(Fo) and 0.1384 for all 5168 data
REM 197 parameters refined using 106 restraints

END  
     
WGHT      0.2000      0.0000 

REM Highest difference peak  2.949,  deepest hole -1.530,  1-sigma level  0.324
Q1    1   0.3854  0.8340  0.5788  11.00000  0.05    2.95
Q2    1   0.3860  0.7639  0.5181  11.00000  0.05    2.80
Q3    1  -0.0362  0.6448  0.5420  11.00000  0.05    2.56
Q4    1   0.2259  0.6928  0.5975  11.00000  0.05    2.55
Q5    1   0.2256  0.6262  0.5952  11.00000  0.05    2.47

  REM The information below was added by Olex2.
  REM
  REM R1 = 0.1185 for 3392 Fo > 4sig(Fo) and 0.1384 for all 9730 data
  REM n/a parameters refined using n/a restraints
  REM Highest difference peak 2.95, deepest hole -1.53
  REM Mean Shift 0, Max Shift 0.001.

  REM +++ Tabular Listing of Refinement Information +++
  REM R1_all = 0.1384
  REM R1_gt = 0.1185
  REM wR_ref = 0.3189
  REM GOOF = 1.092
  REM Shift_max = 0.001
  REM Shift_mean = 0
  REM Reflections_all = 9730
  REM Reflections_gt = 3392
  REM Parameters = n/a
  REM Hole = -1.53
  REM Peak = 2.95
  REM Flack = n/a

  
;
_cod_data_source_file            c9cc08402a2.cif
_cod_data_source_block           hy
_cod_database_code               7126107
_shelx_shelxl_version_number     2018/3
_chemical_oxdiff_formula         'C N O Ag S F'
_chemical_oxdiff_usercomment     'C H O'
_shelx_space_group_comment
;
The symmetry employed for this shelxl refinement is uniquely defined
by the following loop, which should always be used as a source of
symmetry information in preference to the above space-group names.
They are only intended as comments.
;
_shelx_estimated_absorpt_t_max   0.426
_shelx_estimated_absorpt_t_min   0.233
_reflns_odcompleteness_completeness 99.70
_reflns_odcompleteness_iscentric 1
_reflns_odcompleteness_theta     66.97
_olex2_refinement_description
;
1. Twinned data refinement
 Scales: 0.74(6)
 0.26(6)
2. Fixed Uiso
 At 1.5 times of:
  All C(H,H,H) groups
3. Restrained distances
 O2-C9 \\sim O1-C9
 with sigma of 0.01
 C4-C1 \\sim C2-C1 \\sim C3-C1
 with sigma of 0.01
 C4-C3 \\sim C3-C2
 with sigma of 0.01
 C3-C2 \\sim C2-C4
 with sigma of 0.01
 C6-C5 \\sim C7-C5 \\sim C8-C5
 with sigma of 0.01
4. Uiso/Uaniso restraints and constraints
Uanis(C8) \\sim Ueq, Uanis(C9) \\sim Ueq, Uanis(C4) \\sim Ueq, Uanis(F2) \\sim
Ueq, Uanis(F1) \\sim Ueq: with sigma of 0.01 and sigma for terminal atoms of
0.02
5. Rigid body (RIGU) restrains
 C9, C10, C12, F2, C11, F1
 with sigma for 1-2 distances of 0.001 and sigma for 1-3 distances of 0.001
 C1, C4, C2, C3
 with sigma for 1-2 distances of 0.001 and sigma for 1-3 distances of 0.001
 C8, C7, C5, C6
 with sigma for 1-2 distances of 0.001 and sigma for 1-3 distances of 0.001
6.a Idealised Me refined as rotating group:
 C2(H2A,H2B,H2C), C3(H3A,H3B,H3C), C4(H4A,H4B,H4C), C6(H6A,H6B,H6C), C7(H7A,
 H7B,H7C), C8(H8A,H8B,H8C)
;
_shelx_fab_file
;
-13 -10 -3 7.2142 -0.2694
-13 -9 -6 -5.0084 0.3688
-13 -9 -4 2.7454 2.9906
-13 -9 -2 -4.7207 0.6924
-13 -8 -7 -3.9525 0.5954
-13 -8 -5 1.9543 -6.4642
-13 -8 -3 2.7409 0.8441
-13 -8 -1 -2.0011 4.1322
-13 -7 -8 -5.0180 8.8497
-13 -7 -6 -6.2639 1.5412
-13 -7 -4 0.7997 1.6166
-13 -7 -2 -0.8771 10.3526
-13 -6 -9 9.4218 7.1876
-13 -6 -7 2.2940 1.0750
-13 -6 -5 7.5213 5.7513
-13 -6 -3 6.9413 -6.1357
-13 -6 -1 7.1847 -7.7906
-13 -5 -8 -3.1726 -3.3078
-13 -5 -6 8.1563 -3.4680
-13 -5 -4 0.2862 -8.3433
-13 -5 -2 -25.6164 7.8294
-13 -4 -9 4.8079 3.3899
-13 -4 -7 -2.5511 -6.7565
-13 -4 -5 -2.1675 -3.6525
-13 -4 -3 9.6388 13.3332
-13 -4 -1 -5.1990 16.9721
-13 -3 -10 4.5325 -1.9031
-13 -3 -8 -4.3300 -6.5273
-13 -3 -6 -1.7580 4.7964
-13 -3 -4 0.2962 -8.4984
-13 -3 -2 3.7044 -1.9612
-13 -2 -11 -2.2386 -4.9536
-13 -2 -9 -1.8907 -2.0592
-13 -2 -7 -1.6712 2.9066
-13 -2 -5 4.3817 3.7949
-13 -2 -3 -2.3032 -0.1242
-13 -2 -1 11.6913 18.7697
-13 -1 -10 -3.3069 1.8938
-13 -1 -8 1.1863 -1.3091
-13 -1 -6 0.5224 -2.2704
-13 -1 -4 7.6619 -6.1089
-13 -1 -2 9.4618 -8.4152
-12 -14 -4 -0.1144 -1.2102
-12 -13 -7 -4.4019 -0.8165
-12 -13 -5 0.8966 12.2206
-12 -12 -8 2.8325 3.2397
-12 -12 -6 -8.9828 -0.7576
-12 -12 -4 11.4471 6.7571
-12 -12 -2 0.9290 -3.7468
-12 -11 -7 -5.1186 4.1635
-12 -11 -5 9.9549 12.9369
-12 -11 -3 -1.4217 -8.4641
-12 -11 -1 -2.8533 3.8748
-12 -10 -10 9.7386 -5.1627
-12 -10 -8 3.0420 -0.6424
-12 -10 -6 1.4283 -2.9049
-12 -10 -4 4.9641 -1.4214
-12 -10 -2 0.0106 -4.2661
-12 -9 -11 -3.6390 -6.6264
-12 -9 -9 -3.6391 -5.9068
-12 -9 -7 -1.7618 6.8406
-12 -9 -5 2.0949 3.8088
-12 -9 -3 -9.2657 -3.6457
-12 -9 -1 -4.8509 2.9945
-12 -8 -12 0.1569 -3.8146
-12 -8 -10 -3.3308 0.9875
-12 -8 -8 2.9960 2.2152
-12 -8 -6 9.4924 -1.1103
-12 -8 -4 -4.7691 4.8879
-12 -8 -2 5.4401 6.6195
-12 -7 -13 5.1266 -1.9880
-12 -7 -11 -3.5328 -2.8953
-12 -7 -9 -1.2448 4.4643
-12 -7 -7 2.4101 -1.8276
-12 -7 -5 3.3718 -1.9066
-12 -7 -3 -4.1682 5.1106
-12 -7 -1 9.2841 -5.6744
-12 -6 -12 -2.1686 -1.7207
-12 -6 -10 2.9512 0.0469
-12 -6 -8 3.2399 -1.6740
-12 -6 -6 3.4215 -1.7048
-12 -6 -4 0.2706 4.6970
-12 -6 -2 4.6264 -0.7274
-12 -5 -13 -6.1077 -0.1437
-12 -5 -11 1.7900 -0.8217
-12 -5 -9 -7.4668 -0.5130
-12 -5 -7 1.5326 -0.7618
-12 -5 -5 3.2650 -4.3554
-12 -5 -3 -1.7433 -0.4564
-12 -5 -1 0.2977 -2.4835
-12 -4 -14 -3.5139 -0.8561
-12 -4 -12 0.1732 2.2101
-12 -4 -10 1.4512 3.1324
-12 -4 -8 1.3075 1.3515
-12 -4 -6 -1.4630 1.1516
-12 -4 -4 -0.2203 -0.3472
-12 -4 -2 2.6904 2.5923
-12 -3 -13 -2.3714 1.1688
-12 -3 -11 3.0761 0.6255
-12 -3 -9 -0.4116 -1.1117
-12 -3 -7 0.8956 -0.2687
-12 -3 -5 5.0970 4.1810
-12 -3 -3 -4.2669 -9.2459
-12 -3 -1 2.7810 -0.4267
-12 -2 -14 -0.0001 1.1488
-12 -2 -12 0.9387 -0.8098
-12 -2 -10 0.9471 1.7053
-12 -2 -8 -0.1486 -1.0260
-12 -2 -6 3.1674 1.2263
-12 -2 -4 -2.1393 -2.2946
-12 -2 -2 2.1698 5.5848
-12 -1 -13 -1.1064 2.7673
-12 -1 -11 0.2330 1.2300
-12 -1 -9 0.4478 -2.2750
-12 -1 -7 0.3514 1.5235
-12 -1 -5 1.8393 -2.8037
-12 -1 -3 -1.1151 -5.0784
-12 -1 -1 10.7159 -0.5184
-11 -16 -5 -1.8879 2.1315
-11 -16 -3 1.4771 -0.9425
-11 -16 -1 13.3143 -4.7046
-11 -15 -8 0.9299 -4.1645
-11 -15 -6 -0.0952 1.0992
-11 -15 -4 3.5176 -2.4358
-11 -15 -2 2.9488 -10.3820
-11 -14 -9 2.2623 -1.4731
-11 -14 -7 -1.8773 2.1340
-11 -14 -5 -3.2833 -2.8146
-11 -14 -3 -7.4124 -3.1602
-11 -14 -1 -1.0694 -3.9396
-11 -13 -10 0.1942 0.9516
-11 -13 -8 -2.9409 -5.6779
-11 -13 -6 4.1818 -3.2481
-11 -13 -4 -9.0075 4.8093
-11 -13 -2 8.7763 0.1885
-11 -12 -11 -1.1643 -0.4440
-11 -12 -9 3.1718 2.2972
-11 -12 -7 -15.7117 3.5987
-11 -12 -5 -0.8946 -2.6824
-11 -12 -3 -0.7881 -5.3388
-11 -12 -1 1.5150 2.8351
-11 -11 -14 -0.1588 -1.1452
-11 -11 -12 -0.8403 2.3802
-11 -11 -10 -0.4399 -5.7427
-11 -11 -8 4.5889 6.4379
-11 -11 -6 4.8512 3.6272
-11 -11 -4 -23.6766 -0.4112
-11 -11 -2 18.5120 -0.9102
-11 -10 -13 -2.0992 4.4443
-11 -10 -11 -4.4834 4.1418
-11 -10 -9 1.9963 0.9687
-11 -10 -7 -7.2358 -3.4102
-11 -10 -5 -3.5230 13.0290
-11 -10 -3 1.1119 -6.8426
-11 -10 -1 -1.4992 -9.3380
-11 -9 -14 -6.3808 -7.1417
-11 -9 -12 3.3665 6.5768
-11 -9 -10 9.9896 0.8359
-11 -9 -8 0.7671 3.5517
-11 -9 -6 9.9360 8.4491
-11 -9 -4 -12.9998 -4.5417
-11 -9 -2 -2.5649 -1.0162
-11 -8 -13 1.2181 1.5066
-11 -8 -11 0.3112 -4.8722
-11 -8 -9 3.6148 -7.4412
-11 -8 -7 -5.3569 0.0365
-11 -8 -5 -1.3694 1.1084
-11 -8 -3 -2.0234 6.6324
-11 -8 -1 2.4408 3.4720
-11 -7 -14 3.5278 -5.2788
-11 -7 -12 -8.0360 0.8907
-11 -7 -10 3.2591 0.0196
-11 -7 -8 3.4206 6.4297
-11 -7 -6 -0.5425 5.9244
-11 -7 -4 2.1837 -6.7575
-11 -7 -2 -0.2932 5.9593
-11 -6 -15 -5.5581 -2.6680
-11 -6 -13 0.7994 2.3736
-11 -6 -11 -1.7787 0.5100
-11 -6 -9 3.8347 -6.2272
-11 -6 -7 2.3273 -1.9004
-11 -6 -5 -9.5236 -1.6406
-11 -6 -3 5.3640 -4.2760
-11 -6 -1 -2.1841 17.7797
-11 -5 -16 -7.2567 2.6089
-11 -5 -14 -0.3045 1.0441
-11 -5 -12 -1.2844 -2.5819
-11 -5 -10 -1.5020 3.9232
-11 -5 -8 3.4920 4.1988
-11 -5 -6 -7.1364 0.9357
-11 -5 -4 -2.5217 0.2638
-11 -5 -2 5.0483 0.3456
-11 -4 -17 0.4535 0.6548
-11 -4 -15 0.0303 4.0730
-11 -4 -13 -1.6794 1.0443
-11 -4 -11 -4.3700 -5.2341
-11 -4 -9 10.0113 6.3998
-11 -4 -7 1.5232 -6.4482
-11 -4 -5 -7.8547 4.6660
-11 -4 -3 2.3513 -0.9028
-11 -4 -1 -3.7550 -1.2391
-11 -3 -16 -1.4012 2.1273
-11 -3 -14 3.5518 -1.6357
-11 -3 -12 -3.8311 8.1123
-11 -3 -10 -0.8251 1.5083
-11 -3 -8 8.8286 -4.1095
-11 -3 -6 -10.9825 -4.0229
-11 -3 -4 -0.3378 9.6911
-11 -3 -2 2.1161 -2.6248
-11 -2 -17 1.3770 3.9582
-11 -2 -15 0.7219 -2.4372
-11 -2 -13 6.1887 -4.3655
-11 -2 -11 0.8365 2.6093
-11 -2 -9 6.3662 -1.9571
-11 -2 -7 -6.2534 -4.4700
-11 -2 -5 -6.8245 9.3690
-11 -2 -3 0.4671 0.4335
-11 -2 -1 -0.2966 -3.8870
-11 -1 -18 -2.2643 1.9490
-11 -1 -16 -3.0285 -3.0722
-11 -1 -14 -4.6374 -4.2229
-11 -1 -12 -3.4524 -5.2842
-11 -1 -10 3.8691 6.7325
-11 -1 -8 -3.8990 -14.7772
-11 -1 -6 -2.9182 14.1245
-11 -1 -4 3.0534 8.6396
-11 -1 -2 -2.6963 4.6545
-10 -19 -5 0.1273 -2.7209
-10 -19 -3 7.7654 -0.6970
-10 -19 -1 7.6325 -3.3514
-10 -18 -6 -0.1154 -0.6694
-10 -18 -4 0.0863 2.1807
-10 -18 -2 -4.1054 -3.4022
-10 -17 -7 -0.8779 6.1177
-10 -17 -5 3.8037 -5.1436
-10 -17 -3 1.1617 1.2407
-10 -17 -1 5.7676 1.3545
-10 -16 -10 2.0788 2.6291
-10 -16 -8 4.7667 6.0571
-10 -16 -6 1.5054 -3.6240
-10 -16 -4 1.0808 -1.9823
-10 -16 -2 -3.1227 -1.2590
-10 -15 -11 6.1839 -5.2722
-10 -15 -9 2.1908 2.6234
-10 -15 -7 2.6503 -4.4727
-10 -15 -5 -0.4666 -3.3504
-10 -15 -3 -2.1141 -0.5066
-10 -15 -1 4.4613 8.8172
-10 -14 -12 -0.2890 1.1867
-10 -14 -10 -2.1390 -2.0897
-10 -14 -8 3.8858 1.2813
-10 -14 -6 -4.9309 -4.8646
-10 -14 -4 5.3269 -1.6300
-10 -14 -2 9.4363 2.8753
-10 -13 -13 -0.0586 0.3601
-10 -13 -11 2.3290 -3.5613
-10 -13 -9 0.7166 4.6333
-10 -13 -7 1.8489 -1.5166
-10 -13 -5 -8.3804 -6.9830
-10 -13 -3 3.3320 -18.3924
-10 -13 -1 1.7061 -8.5174
-10 -12 -14 -0.4478 -3.3663
-10 -12 -12 4.5148 2.3959
-10 -12 -10 -0.6493 -1.6038
-10 -12 -8 4.5891 0.9541
-10 -12 -6 -3.4361 2.9541
-10 -12 -4 -13.6402 1.6883
-10 -12 -2 -9.0004 1.3770
-10 -11 -15 -6.3773 4.3618
-10 -11 -13 0.8631 -1.3671
-10 -11 -11 0.3402 -7.0012
-10 -11 -9 2.1257 0.4514
-10 -11 -7 5.5997 0.9558
-10 -11 -5 2.3431 -2.0346
-10 -11 -3 5.5776 -0.1924
-10 -11 -1 -7.2176 -6.7226
-10 -10 -16 -0.5977 -1.6708
-10 -10 -14 4.9385 -0.8899
-10 -10 -12 -1.3171 2.9040
-10 -10 -10 -3.7372 -6.1814
-10 -10 -8 6.2346 0.7364
-10 -10 -6 -0.4017 -5.0110
-10 -10 -4 -8.9937 -8.0137
-10 -10 -2 -9.9892 4.5236
-10 -9 -17 0.6683 -2.2596
-10 -9 -15 -6.9703 -1.9151
-10 -9 -13 2.5745 -1.4248
-10 -9 -11 -1.4263 -0.5024
-10 -9 -9 -6.0053 -4.1772
-10 -9 -7 3.9465 -7.3799
-10 -9 -5 -0.0890 3.0032
-10 -9 -3 -2.2178 2.6674
-10 -9 -1 3.2170 -2.9513
-10 -8 -18 -4.1103 7.6424
-10 -8 -16 -1.0530 4.2860
-10 -8 -14 -0.3485 0.2174
-10 -8 -12 4.6673 0.6513
-10 -8 -10 -8.6475 0.3116
-10 -8 -8 -0.2306 7.3402
-10 -8 -6 -7.4284 -10.4267
-10 -8 -4 1.0199 -4.3062
-10 -8 -2 -18.5566 -1.3999
-10 -7 -19 5.9087 6.7881
-10 -7 -17 8.5097 -0.4842
-10 -7 -15 -0.6463 -0.8966
-10 -7 -13 0.7215 -3.7639
-10 -7 -11 0.6168 -1.1602
-10 -7 -9 3.4185 2.6596
-10 -7 -7 -6.5387 -4.2440
-10 -7 -5 3.9826 11.5854
-10 -7 -3 -9.0880 8.5180
-10 -7 -1 -3.9646 17.3757
-10 -6 -18 2.8479 -2.0267
-10 -6 -16 -3.9931 0.7310
-10 -6 -14 2.3935 -2.5588
-10 -6 -12 -5.3363 3.3100
-10 -6 -10 0.5251 -7.7562
-10 -6 -8 -5.3543 10.4815
-10 -6 -6 4.4050 -5.2443
-10 -6 -4 18.5508 -7.4048
-10 -6 -2 -6.8632 7.1093
-10 -5 -17 5.8540 -0.3413
-10 -5 -15 -3.5787 0.5770
-10 -5 -13 4.6880 -1.3101
-10 -5 -11 -0.5772 1.1955
-10 -5 -9 -2.3064 -4.4126
-10 -5 -7 0.3304 3.8213
-10 -5 -5 -6.3991 -10.9264
-10 -5 -3 -0.5476 -2.0335
-10 -5 -1 -4.9376 7.0230
-10 -4 -18 5.3123 -3.9004
-10 -4 -16 -2.1129 0.7932
-10 -4 -14 2.2498 1.4977
-10 -4 -12 -3.8313 -7.0648
-10 -4 -10 -4.3875 4.6284
-10 -4 -8 -3.9690 3.1830
-10 -4 -6 6.2497 6.7754
-10 -4 -4 2.1202 -5.3815
-10 -4 -2 -9.2493 -1.6729
-10 -3 -19 -5.2428 -0.2377
-10 -3 -17 2.8653 -0.4695
-10 -3 -15 2.9034 0.5095
-10 -3 -13 1.7126 2.8779
-10 -3 -11 0.4638 -2.2663
-10 -3 -9 1.9126 -1.0632
-10 -3 -7 2.1651 -3.2117
-10 -3 -5 3.7139 -7.3976
-10 -3 -3 -10.1089 2.7324
-10 -3 -1 1.3703 8.5912
-10 -2 -20 -3.5317 -0.0014
-10 -2 -18 4.5084 0.4206
-10 -2 -16 -0.0576 -8.5418
-10 -2 -14 2.6297 -1.8334
-10 -2 -12 2.0295 -5.5317
-10 -2 -10 -17.6939 -1.6624
-10 -2 -8 -1.8360 6.5686
-10 -2 -6 -0.8223 -3.7993
-10 -2 -4 4.2013 1.4894
-10 -2 -2 -0.4140 -5.3273
-10 -1 -19 -0.2178 -0.6316
-10 -1 -17 -5.0583 -1.6623
-10 -1 -15 -5.5476 2.2092
-10 -1 -13 2.0586 -0.7509
-10 -1 -11 -4.2061 0.4871
-10 -1 -9 3.3921 16.0468
-10 -1 -7 5.5812 -1.4477
-10 -1 -5 -4.4811 -11.0797
-10 -1 -3 -2.7631 -5.5680
-10 -1 -1 -12.7982 14.3526
-9 -21 -4 -2.7010 2.2467
-9 -21 -2 0.0863 -6.0613
-9 -20 -5 8.1835 0.3708
-9 -20 -3 3.9919 5.2100
-9 -20 -1 -7.2937 -1.8141
-9 -19 -4 5.2366 -7.1722
-9 -19 -2 -0.6835 -3.9909
-9 -18 -7 -4.2505 -2.5451
-9 -18 -5 0.0914 0.6315
-9 -18 -3 -6.9656 1.2868
-9 -18 -1 -1.8804 0.7644
-9 -17 -8 3.8006 0.6276
-9 -17 -6 5.9671 -4.3622
-9 -17 -4 5.8700 2.6903
-9 -17 -2 1.3151 0.0245
-9 -16 -11 3.1993 -4.1364
-9 -16 -9 0.1052 -9.1079
-9 -16 -7 -2.1791 -7.6414
-9 -16 -5 -0.5189 -5.0599
-9 -16 -3 -3.5692 -6.8428
-9 -16 -1 3.6861 3.8431
-9 -15 -12 -4.0690 4.0098
-9 -15 -10 -1.8893 2.5132
-9 -15 -8 -5.3114 0.7924
-9 -15 -6 3.2911 1.3294
-9 -15 -4 -7.7936 1.2802
-9 -15 -2 4.1093 -0.6299
-9 -14 -15 -1.4614 1.3324
-9 -14 -13 0.5045 1.8318
-9 -14 -11 9.6445 2.2029
-9 -14 -9 -5.1250 1.4936
-9 -14 -7 7.1729 -6.7476
-9 -14 -5 -1.1222 1.5006
-9 -14 -3 -2.8639 -1.4026
-9 -14 -1 -9.8673 -1.0194
-9 -13 -16 1.6620 -2.0587
-9 -13 -14 1.9099 -0.4413
-9 -13 -12 -4.8938 -4.4789
-9 -13 -10 4.5585 3.0836
-9 -13 -8 2.5488 0.1002
-9 -13 -6 -4.2762 -1.0976
-9 -13 -4 5.7252 3.0099
-9 -13 -2 1.0666 6.7015
-9 -12 -17 0.3142 3.1858
-9 -12 -15 -0.1430 0.5539
-9 -12 -13 -4.6027 -0.9509
-9 -12 -11 1.2472 -0.5226
-9 -12 -9 1.3928 -4.8849
-9 -12 -7 5.1730 -5.0359
-9 -12 -5 3.7175 -2.4040
-9 -12 -3 0.1765 -5.6776
-9 -12 -1 -1.7688 -4.8150
-9 -11 -18 -3.4720 0.8375
-9 -11 -16 0.1367 0.5897
-9 -11 -14 1.6354 -2.6281
-9 -11 -12 -5.8596 6.0110
-9 -11 -10 -4.2138 -1.2703
-9 -11 -8 1.7798 0.6792
-9 -11 -6 -5.5479 -6.3217
-9 -11 -4 3.9809 2.2426
-9 -11 -2 -6.3968 3.2740
-9 -10 -19 4.4400 -2.8855
-9 -10 -17 1.1616 8.2547
-9 -10 -15 -2.0097 -1.2870
-9 -10 -13 4.3055 1.6455
-9 -10 -11 -3.4945 3.6116
-9 -10 -9 4.3452 0.5597
-9 -10 -7 0.7397 -4.5332
-9 -10 -5 5.5404 -6.2520
-9 -10 -3 -2.1673 0.9971
-9 -10 -1 3.7299 -12.0086
-9 -9 -18 -2.1274 -0.1105
-9 -9 -16 3.6913 -0.7342
-9 -9 -14 -0.5131 0.1396
-9 -9 -12 -3.6949 -2.0469
-9 -9 -10 2.9488 6.8816
-9 -9 -8 2.1061 -0.1790
-9 -9 -6 -5.7822 -9.0648
-9 -9 -4 1.7200 8.0548
-9 -9 -2 -6.8948 -2.2067
-9 -8 -19 0.8047 3.4979
-9 -8 -17 0.6939 6.8054
-9 -8 -15 -1.0501 -4.1400
-9 -8 -13 4.4282 6.0519
-9 -8 -11 -3.4311 4.0718
-9 -8 -9 22.8206 -12.4808
-9 -8 -7 -12.5643 -8.2293
-9 -8 -5 13.8549 -4.2247
-9 -8 -3 0.2234 -9.3368
-9 -8 -1 0.7251 8.7586
-9 -7 -20 3.7575 -0.4244
-9 -7 -18 4.4057 2.0828
-9 -7 -16 3.4057 -0.5232
-9 -7 -14 -1.5716 5.1496
-9 -7 -10 -5.4677 -19.1385
-9 -7 -8 -13.3500 -3.0185
-9 -7 -6 -20.1803 -1.4557
-9 -7 -4 -5.2849 0.7133
-9 -7 -2 4.4054 -3.0963
-9 -6 -21 4.8830 -0.1993
-9 -6 -19 -5.0046 -2.6885
-9 -6 -17 1.9313 1.1299
-9 -6 -7 3.5424 12.2881
-9 -6 -5 7.8931 19.7815
-9 -6 -3 5.2319 -34.1375
-9 -6 -1 -2.6262 19.7718
-9 -5 -20 0.2557 -3.2040
-9 -5 -10 -6.9730 4.2238
-9 -5 -8 4.9930 1.9977
-9 -5 -6 2.8587 -13.8114
-9 -5 -4 -21.2574 6.4303
-9 -5 -2 -3.3242 -11.1423
-9 -4 -21 5.8321 6.4744
-9 -4 -13 -2.1131 -1.7439
-9 -4 -11 -0.1529 5.0154
-9 -4 -9 -0.3198 1.2914
-9 -4 -7 -5.9297 2.6042
-9 -4 -5 3.1354 12.5236
-9 -4 -3 14.2367 2.4611
-9 -4 -1 -13.4230 -1.6064
-9 -3 -16 9.7416 3.5443
-9 -3 -14 -4.2085 1.1619
-9 -3 -12 7.6431 1.5092
-9 -3 -10 -8.0675 -10.5335
-9 -3 -8 11.9931 8.1232
-9 -3 -6 -3.0237 -0.8107
-9 -3 -4 -1.7201 -13.1681
-9 -3 -2 -6.2533 -4.3019
-9 -2 -21 -1.1622 3.5888
-9 -2 -19 -10.1522 3.1202
-9 -2 -17 1.3183 -3.9046
-9 -2 -15 5.0792 -4.7389
-9 -2 -13 -2.3879 3.2500
-9 -2 -11 -2.6294 -0.5489
-9 -2 -9 -4.5634 -0.7034
-9 -2 -7 0.2459 -0.3427
-9 -2 -5 -2.6570 2.4371
-9 -2 -3 -1.2995 6.5234
-9 -2 -1 -3.0487 19.7202
-9 -1 -22 -2.7867 4.0634
-9 -1 -20 4.4279 2.5656
-9 -1 -18 4.3216 -2.1910
-9 -1 -16 3.8961 -3.5080
-9 -1 -14 0.5818 4.3298
-9 -1 -12 7.1535 -2.4623
-9 -1 -10 -4.9806 -1.3428
-9 -1 -8 -3.3145 4.3799
-9 -1 -6 -0.5137 11.4641
-9 -1 -4 -0.5129 -17.6654
-9 -1 -2 17.4876 18.8726
-8 -23 -3 -0.5721 -3.7742
-8 -22 -6 -2.0413 3.3402
-8 -22 -4 3.9610 -1.6667
-8 -21 -9 -4.6139 -3.6041
-8 -21 -7 4.3059 -5.0404
-8 -21 -5 2.2774 5.6042
-8 -21 -1 1.6039 -1.7784
-8 -20 -2 -3.8690 -2.1025
-8 -19 -1 1.4347 -5.4225
-8 -18 -6 -0.2308 -3.1931
-8 -18 -4 -2.0881 -0.3993
-8 -18 -2 -2.1638 -3.1628
-8 -17 -9 2.1811 -5.0993
-8 -17 -7 -0.4926 2.6008
-8 -17 -5 1.6161 5.3029
-8 -17 -3 4.1791 -4.9171
-8 -17 -1 -3.0841 -2.8227
-8 -16 -12 -1.8017 1.7611
-8 -16 -10 -0.7699 3.6390
-8 -16 -8 -1.7910 -1.6097
-8 -16 -6 3.5433 -1.6664
-8 -16 -4 -2.2219 -1.7712
-8 -16 -2 -2.5384 -3.7247
-8 -15 -13 7.5044 1.0760
-8 -15 -11 6.5560 0.3508
-8 -15 -9 -3.2048 1.1502
-8 -15 -7 2.4261 0.6366
-8 -15 -5 -3.2136 3.4257
-8 -15 -3 6.6546 -3.5502
-8 -15 -1 -4.7870 4.3819
-8 -14 -16 -3.3516 5.2751
-8 -14 -14 -1.9368 -0.3109
-8 -14 -12 -1.7625 -7.6125
-8 -14 -10 -2.8555 0.7681
-8 -14 -8 -0.3599 0.0131
-8 -14 -6 3.1608 -0.2498
-8 -14 -4 -3.4845 -4.4028
-8 -14 -2 -0.5148 -5.0671
-8 -13 -17 -0.0268 -0.0132
-8 -13 -15 1.1471 -1.1537
-8 -13 -13 -2.7512 1.6176
-8 -13 -11 6.8094 2.7506
-8 -13 -9 -4.8683 1.2492
-8 -13 -7 0.6640 6.6871
-8 -13 -5 -3.2484 -1.7835
-8 -13 -3 -0.4182 4.6393
-8 -13 -1 -4.8165 2.2028
-8 -12 -18 2.6189 -6.5322
-8 -12 -16 -1.5915 1.7350
-8 -12 -14 -0.2526 1.3485
-8 -12 -12 -0.3460 -4.5592
-8 -12 -10 2.0789 0.1096
-8 -12 -8 -2.7456 -1.3592
-8 -12 -6 6.6662 6.8310
-8 -12 -4 0.6210 -4.3018
-8 -12 -2 0.8572 3.7548
-8 -11 -19 3.6943 -0.3320
-8 -11 -17 -6.6441 -1.4090
-8 -11 -15 2.7076 4.8890
-8 -11 -13 -2.1684 -2.0987
-8 -11 -11 2.6270 -0.2028
-8 -11 -9 0.8720 2.5941
-8 -11 -7 -4.9975 6.7606
-8 -11 -5 4.5953 -0.5916
-8 -11 -3 0.4789 -0.4154
-8 -11 -1 -2.4615 -0.2242
-8 -10 -20 -6.5939 -0.0068
-8 -10 -18 -0.8852 0.9879
-8 -10 -16 -0.9298 4.1943
-8 -10 -14 5.5687 -3.5981
-8 -10 -12 -4.0772 0.8832
-8 -10 -10 4.4661 -2.5991
-8 -10 -8 -0.8474 0.9069
-8 -10 -6 7.2679 6.0054
-8 -10 -4 4.7097 -3.7346
-8 -10 -2 -3.6552 2.0272
-8 -9 -21 -0.3447 -0.2331
-8 -9 -19 -0.5246 1.6460
-8 -9 -17 1.0905 1.2546
-8 -9 -15 2.2119 5.6496
-8 -9 -13 -2.2777 -4.8654
-8 -9 -11 1.4210 -1.8248
-8 -9 -9 4.4164 5.8627
-8 -9 -7 -2.9787 -0.2335
-8 -9 -5 1.0934 4.0656
-8 -9 -3 3.1302 -5.5785
-8 -9 -1 2.9459 5.0172
-8 -8 -20 -1.0400 1.0566
-8 -8 -18 -0.8007 5.5595
-8 -8 -16 5.4321 -1.8650
-8 -8 -14 -0.5387 -1.0388
-8 -8 -12 1.7400 -2.8026
-8 -8 -10 9.3362 -2.8869
-8 -8 -8 1.9233 4.1518
-8 -8 -6 9.5663 -4.0918
-8 -8 -4 3.4090 16.9615
-8 -8 -2 9.9618 -5.3162
-8 -7 -21 -3.7819 -1.4766
-8 -7 -19 3.0082 -0.0483
-8 -7 -17 6.5861 -5.3389
-8 -7 -15 3.0116 4.9647
-8 -7 -13 -7.0399 -5.6774
-8 -7 -11 -1.7190 -15.3748
-8 -7 -5 11.4674 -8.5201
-8 -7 -3 30.1167 -17.8269
-8 -7 -1 -8.1580 0.5326
-8 -6 -22 -4.3533 -3.6197
-8 -6 -20 0.9499 1.7017
-8 -6 -18 -2.8898 -3.8684
-8 -6 -16 0.2045 -12.2346
-8 -6 -14 -7.8715 5.1587
-8 -6 -4 -29.5099 -11.9855
-8 -6 -2 5.8283 -22.4208
-8 -5 -23 2.8803 -0.8351
-8 -5 -21 -5.3026 4.6737
-8 -5 -19 -4.0914 -4.9921
-8 -5 -17 -6.5700 -1.6198
-8 -5 -7 -14.1589 16.6090
-8 -5 -5 -7.2031 8.9645
-8 -5 -3 1.4178 3.8235
-8 -5 -1 -14.3064 -11.1189
-8 -4 -22 0.5982 -2.9121
-8 -4 -20 0.3205 7.0470
-8 -4 -10 -0.0773 1.8972
-8 -4 -8 12.8166 19.0987
-8 -4 -6 0.0835 -7.9770
-8 -4 -4 -2.8049 2.7766
-8 -4 -2 -9.4667 -2.7989
-8 -3 -23 2.9612 -3.6776
-8 -3 -21 -2.4769 4.0617
-8 -3 -13 -2.9052 5.3994
-8 -3 -11 1.8743 10.8312
-8 -3 -9 11.1199 -14.1750
-8 -3 -7 -5.7147 6.7429
-8 -3 -5 -6.8344 15.5512
-8 -3 -3 6.6807 -7.5064
-8 -3 -1 -2.7298 7.8961
-8 -2 -16 -1.5630 6.1027
-8 -2 -14 1.9406 3.9514
-8 -2 -12 0.8645 7.0446
-8 -2 -10 -0.8873 -6.0651
-8 -2 -8 10.5407 4.0388
-8 -2 -6 -2.4822 -2.4878
-8 -2 -4 -5.4520 1.6443
-8 -2 -2 -3.4026 1.0920
-8 -1 -19 -3.4052 -2.1442
-8 -1 -17 -0.0935 1.3248
-8 -1 -15 10.3034 3.9032
-8 -1 -13 -2.8868 7.2017
-8 -1 -11 13.4881 7.9229
-8 -1 -9 0.0349 -6.2188
-8 -1 -7 -3.5834 2.6681
-8 -1 -5 -2.8520 22.4060
-8 -1 -3 5.8053 4.2578
-8 -1 -1 -2.2139 6.0854
-7 -24 -3 -1.4034 0.6787
-7 -24 -1 5.9592 1.4497
-7 -23 -6 1.4422 -2.2465
-7 -23 -4 -6.6804 1.4669
-7 -23 -2 4.2757 -1.1953
-7 -22 -9 7.3806 -4.9349
-7 -22 -7 -0.9546 0.1676
-7 -22 -5 -2.8115 -1.7011
-7 -22 -3 1.7724 3.1679
-7 -21 -10 1.4249 -3.5732
-7 -21 -6 -0.2514 -2.7672
-7 -21 -4 -3.6227 2.0543
-7 -19 -2 3.3233 1.1160
-7 -18 -5 -2.6980 4.5499
-7 -18 -3 -1.5030 3.1251
-7 -18 -1 -1.1580 1.3845
-7 -17 -8 -0.3277 -3.5887
-7 -17 -6 1.9636 4.3703
-7 -17 -4 -2.3252 0.9910
-7 -17 -2 1.3860 2.6695
-7 -16 -11 1.8842 -0.4509
-7 -16 -9 -1.1647 0.5144
-7 -16 -7 0.5538 1.0407
-7 -16 -5 0.3095 -0.4856
-7 -16 -3 -3.2632 4.8498
-7 -16 -1 -0.5959 0.4947
-7 -15 -14 -1.7324 1.9158
-7 -15 -12 -7.1523 4.5855
-7 -15 -10 1.1541 1.0233
-7 -15 -8 -8.1369 -0.0758
-7 -15 -6 1.2683 -2.4868
-7 -15 -4 1.5149 3.1985
-7 -15 -2 -0.0579 4.8146
-7 -14 -15 0.7704 -1.4221
-7 -14 -13 -0.2238 0.0800
-7 -14 -11 -0.3052 2.5027
-7 -14 -9 1.5789 0.0222
-7 -14 -7 -4.9018 5.2454
-7 -14 -5 -1.1672 -2.4168
-7 -14 -3 3.1576 2.4629
-7 -14 -1 3.9133 11.7275
-7 -13 -16 0.1680 0.4117
-7 -13 -14 6.3388 7.3883
-7 -13 -12 -5.4319 -2.3938
-7 -13 -10 -2.0545 -1.9216
-7 -13 -8 -2.3876 6.8866
-7 -13 -6 -8.6613 -0.9063
-7 -13 -4 2.4731 -1.9999
-7 -13 -2 5.0149 1.4122
-7 -12 -19 -7.1070 5.6141
-7 -12 -17 1.3533 2.0131
-7 -12 -15 2.2527 -7.5498
-7 -12 -13 7.0433 1.0837
-7 -12 -11 -7.3907 -2.1685
-7 -12 -9 5.3012 7.4770
-7 -12 -7 -3.8548 10.4813
-7 -12 -5 -7.8132 5.1784
-7 -12 -3 4.5692 3.7123
-7 -12 -1 3.7091 -3.4290
-7 -11 -20 -2.1007 -2.9107
-7 -11 -18 2.9340 3.0414
-7 -11 -16 0.6802 1.9132
-7 -11 -14 -4.0127 -1.8725
-7 -11 -12 2.6900 1.8596
-7 -11 -10 -7.9304 -2.8135
-7 -11 -8 9.2324 5.4701
-7 -11 -6 1.7070 14.5685
-7 -11 -4 -1.1283 -9.4344
-7 -11 -2 5.9785 5.4353
-7 -10 -21 4.8865 -7.5003
-7 -10 -19 -1.7417 -0.3514
-7 -10 -17 3.5844 -1.2785
-7 -10 -15 0.8886 -1.7361
-7 -10 -13 2.0324 4.0887
-7 -10 -11 0.7372 -5.4309
-7 -10 -9 0.6420 9.5150
-7 -10 -7 12.9503 0.1890
-7 -10 -5 -5.9382 5.8511
-7 -10 -3 3.4497 9.9574
-7 -10 -1 2.2890 -9.4153
-7 -9 -22 -0.3300 -0.7028
-7 -9 -20 -6.2479 -5.1817
-7 -9 -18 -6.8156 -3.2042
-7 -9 -16 2.1759 -0.1897
-7 -9 -14 -4.6406 -2.5000
-7 -9 -12 3.0424 1.0532
-7 -9 -10 1.2821 -1.4044
-7 -9 -8 -0.6416 -4.7375
-7 -9 -6 5.8197 2.5707
-7 -9 -4 2.3098 -7.6539
-7 -9 -2 13.4019 -1.4378
-7 -8 -21 3.3494 -0.6215
-7 -8 -19 -3.8173 0.4717
-7 -8 -17 -1.4916 4.9532
-7 -8 -15 -1.4637 3.0333
-7 -8 -13 2.0667 4.5746
-7 -8 -11 0.1834 -7.9159
-7 -8 -9 2.0661 7.5493
-7 -8 -7 1.3543 -0.7337
-7 -8 -5 -8.4582 7.1408
-7 -8 -3 -7.5284 -2.9356
-7 -8 -1 7.4411 7.3748
-7 -7 -22 2.1191 -1.3940
-7 -7 -20 -2.3295 -0.9711
-7 -7 -18 -4.8738 -3.1256
-7 -7 -16 3.7955 2.9942
-7 -7 -14 1.3785 -3.8508
-7 -7 -12 2.9878 -0.7483
-7 -7 -10 2.4027 -0.0817
-7 -7 -8 0.3075 -0.5494
-7 -7 -6 1.4219 -4.8267
-7 -7 -2 16.4118 6.4682
-7 -6 -23 -2.9441 -0.7461
-7 -6 -21 4.2655 -0.0208
-7 -6 -19 -1.0350 -3.0574
-7 -6 -17 -3.3160 4.2922
-7 -6 -15 2.6196 2.5381
-7 -6 -13 -2.6920 -0.3630
-7 -6 -11 2.5734 -6.1643
-7 -6 -9 0.2793 7.7810
-7 -6 -1 -1.6161 -15.0096
-7 -5 -24 -0.1855 0.6908
-7 -5 -22 1.8539 1.5074
-7 -5 -20 -3.4410 -4.1242
-7 -5 -18 -2.6216 1.3681
-7 -5 -16 -1.6286 -7.6780
-7 -5 -14 0.3395 1.2343
-7 -5 -12 3.9595 -9.9535
-7 -5 -4 6.4206 -3.8626
-7 -5 -2 33.8232 -18.1212
-7 -4 -23 1.6660 0.7903
-7 -4 -21 -1.0692 -1.3776
-7 -4 -19 2.4752 2.6006
-7 -4 -17 -9.6846 2.1748
-7 -4 -13 -5.3977 2.2776
-7 -4 -7 -11.1506 -1.6272
-7 -4 -5 -3.6476 -2.7621
-7 -4 -3 -20.1091 10.9059
-7 -4 -1 69.4424 -66.8064
-7 -3 -24 0.5763 -0.0218
-7 -3 -22 -0.1121 -1.2559
-7 -3 -20 -0.5723 0.5013
-7 -3 -16 1.0190 3.1311
-7 -3 -14 8.4498 3.0201
-7 -3 -12 6.8535 0.5951
-7 -3 -10 4.4558 -13.4569
-7 -3 -8 -6.3031 13.1381
-7 -3 -6 15.5060 1.6214
-7 -3 -4 4.8900 -1.7911
-7 -3 -2 -4.9404 -16.0131
-7 -2 -25 2.6041 1.4967
-7 -2 -23 -0.6584 3.8824
-7 -2 -21 -1.5362 -3.8442
-7 -2 -19 -2.8121 3.6218
-7 -2 -17 -4.4774 0.6159
-7 -2 -15 -0.7835 -6.7219
-7 -2 -13 0.5889 2.2925
-7 -2 -11 -5.1704 -5.7984
-7 -2 -9 -2.6389 -11.2310
-7 -2 -7 -7.2958 13.2392
-7 -2 -5 -8.0831 -15.0476
-7 -2 -3 -4.7307 -3.5056
-7 -2 -1 -27.2265 7.8052
-7 -1 -24 5.3390 -4.7327
-7 -1 -20 -2.6440 3.8445
-7 -1 -18 3.8928 6.2565
-7 -1 -16 0.8244 -2.0808
-7 -1 -14 0.4499 2.6564
-7 -1 -12 10.2136 -3.0234
-7 -1 -10 -15.1296 -9.1262
-7 -1 -8 6.0310 28.5208
-7 -1 -6 30.2929 9.3483
-7 -1 -4 -15.6281 -4.0614
-7 -1 -2 15.4670 12.8947
-6 -25 -3 1.9714 -3.8554
-6 -24 -6 -1.0651 0.8675
-6 -24 -4 1.0137 5.7681
-6 -24 -2 3.9469 -1.4965
-6 -23 -9 0.6214 -3.7448
-6 -23 -7 -2.0599 -0.1224
-6 -23 -5 4.1256 2.0733
-6 -23 -3 5.4318 -9.0722
-6 -23 -1 -2.1291 -0.5904
-6 -22 -10 -2.9063 -0.3143
-6 -22 -8 1.4828 2.3153
-6 -22 -6 -1.6705 -3.0764
-6 -22 -4 -1.6223 -4.5868
-6 -22 -2 -0.7353 -1.5678
-6 -21 -3 -4.0027 -0.0403
-6 -21 -1 3.5151 -2.6284
-6 -20 -2 0.8204 0.0391
-6 -19 -3 0.7072 -1.3254
-6 -19 -1 -3.4981 0.0957
-6 -18 -4 3.1521 -0.8466
-6 -18 -2 -1.1350 0.1354
-6 -17 -7 -0.7164 -0.8936
-6 -17 -5 -1.7871 -4.2868
-6 -17 -3 0.5047 -3.6203
-6 -17 -1 -4.2706 -2.0694
-6 -16 -10 -1.4784 7.4854
-6 -16 -8 2.9152 -1.6924
-6 -16 -6 -5.7609 2.6430
-6 -16 -4 -3.3938 -1.3986
-6 -16 -2 1.3750 -1.9345
-6 -15 -13 6.1938 2.6539
-6 -15 -11 0.8355 -6.6636
-6 -15 -9 2.3687 8.0857
-6 -15 -7 -4.4449 -1.2495
-6 -15 -5 1.3990 -1.5872
-6 -15 -3 -3.5555 -3.8210
-6 -15 -1 -0.4215 -3.6457
-6 -14 -14 -2.0981 -2.4212
-6 -14 -12 -0.3440 0.9159
-6 -14 -10 3.5128 -1.8803
-6 -14 -8 2.8778 3.5069
-6 -14 -6 -4.1233 3.9351
-6 -14 -4 -3.2095 -1.0281
-6 -14 -2 -4.2584 -2.3802
-6 -13 -17 -1.1093 6.5274
-6 -13 -15 3.7221 3.7548
-6 -13 -13 5.7727 2.1968
-6 -13 -11 1.8047 -4.2081
-6 -13 -9 2.0260 -3.7070
-6 -13 -7 -2.5924 3.4036
-6 -13 -5 3.3803 -3.3717
-6 -13 -3 -4.0861 -2.1858
-6 -13 -1 -5.4462 -3.1168
-6 -12 -18 1.7754 3.7272
-6 -12 -16 4.6450 -1.3689
-6 -12 -14 4.2304 -3.9713
-6 -12 -12 -9.1001 -0.2446
-6 -12 -10 5.3018 -9.0399
-6 -12 -8 -1.8966 8.6937
-6 -12 -6 -4.4559 -0.9954
-6 -12 -4 0.7016 -0.0278
-6 -12 -2 -12.8339 -1.5044
-6 -11 -19 4.9286 -2.5297
-6 -11 -17 -3.6534 -1.2909
-6 -11 -15 -8.1063 0.2952
-6 -11 -13 8.0899 -4.3891
-6 -11 -11 1.4291 9.3273
-6 -11 -9 -2.5084 -6.8161
-6 -11 -7 7.0342 -1.3772
-6 -11 -5 -7.7612 1.6301
-6 -11 -3 -0.4832 -7.9759
-6 -11 -1 -4.5071 11.6076
-6 -10 -20 1.1389 -5.0020
-6 -10 -18 -0.1044 -2.2621
-6 -10 -16 3.2092 7.4826
-6 -10 -14 0.3598 2.6220
-6 -10 -12 -4.8246 -3.9320
-6 -10 -10 1.3960 -8.9221
-6 -10 -8 -3.6276 -0.5624
-6 -10 -6 -6.8611 2.5587
-6 -10 -4 -10.3956 2.5697
-6 -10 -2 -3.3871 -1.8744
-6 -9 -21 0.8535 5.7800
-6 -9 -19 3.9368 -1.4203
-6 -9 -17 -0.2318 -2.5428
-6 -9 -15 -2.8105 -2.8670
-6 -9 -13 4.4352 0.5411
-6 -9 -11 4.8025 2.1372
-6 -9 -9 -16.1253 18.6619
-6 -9 -7 6.1771 -8.0573
-6 -9 -5 -4.6546 10.5771
-6 -9 -3 -6.1573 3.9127
-6 -9 -1 1.0243 6.0063
-6 -8 -22 2.5251 0.3752
-6 -8 -20 5.9319 -4.0711
-6 -8 -18 -1.0503 -2.8187
-6 -8 -16 1.2643 0.9966
-6 -8 -14 -3.2871 3.7822
-6 -8 -12 2.3656 -2.7360
-6 -8 -10 4.6285 -2.4103
-6 -8 -8 16.3178 0.8110
-6 -8 -6 -4.9309 12.6644
-6 -8 -4 -4.9640 -4.9589
-6 -8 -2 6.2385 10.4319
-6 -7 -23 -3.7423 1.2413
-6 -7 -21 -1.1284 2.4057
-6 -7 -19 4.2062 -4.6136
-6 -7 -17 -1.0194 0.3434
-6 -7 -15 1.1968 -3.9530
-6 -7 -13 0.2849 3.4455
-6 -7 -11 1.6879 -4.4610
-6 -7 -9 -6.7205 3.9736
-6 -7 -7 3.6823 -1.2515
-6 -7 -5 6.5810 -13.7334
-6 -7 -3 -3.6218 15.2288
-6 -7 -1 -8.8534 22.3762
-6 -6 -24 -1.2905 4.1122
-6 -6 -22 3.5940 0.2825
-6 -6 -20 1.7793 -4.9091
-6 -6 -18 -1.6523 1.9098
-6 -6 -16 2.4029 -7.3460
-6 -6 -14 -3.7494 0.8024
-6 -6 -12 4.5530 4.9676
-6 -6 -10 3.2948 0.8706
-6 -6 -8 9.3380 -4.4024
-6 -6 -6 1.3232 20.5263
-6 -6 -2 -3.4739 22.8351
-6 -5 -25 -3.6323 -4.3487
-6 -5 -23 1.1685 2.2511
-6 -5 -21 -6.7463 -2.5755
-6 -5 -19 3.0859 0.9390
-6 -5 -17 -0.6624 -2.7127
-6 -5 -15 2.9408 -1.5801
-6 -5 -13 -0.3506 -2.1412
-6 -5 -11 -3.9300 -1.5845
-6 -5 -9 4.8932 -12.9591
-6 -5 -5 8.0586 -25.6940
-6 -5 -3 6.1453 28.7711
-6 -5 -1 -39.2255 11.1123
-6 -4 -24 -1.1023 3.1679
-6 -4 -22 2.8044 1.6930
-6 -4 -20 0.3234 1.6729
-6 -4 -18 -1.3292 1.5036
-6 -4 -16 0.7015 -8.7574
-6 -4 -14 -3.8916 -10.9760
-6 -4 -12 3.5903 15.8660
-6 -4 -10 -5.1236 -1.6614
-6 -4 -6 -3.7611 -3.6913
-6 -4 -4 8.3879 -7.7103
-6 -4 -2 -24.3029 15.8601
-6 -3 -25 1.5206 -3.4151
-6 -3 -23 -1.2407 -2.6151
-6 -3 -21 3.1141 -0.5153
-6 -3 -19 -3.2602 0.4279
-6 -3 -17 2.7483 -1.7906
-6 -3 -15 -4.1576 0.9905
-6 -3 -13 -5.2110 -3.5171
-6 -3 -11 2.4030 -1.1249
-6 -3 -9 -0.9650 9.0636
-6 -3 -7 -4.1596 -19.2368
-6 -3 -5 12.3987 -2.3332
-6 -3 -3 13.0799 23.1742
-6 -3 -1 -67.4624 16.0068
-6 -2 -24 -7.5101 5.1706
-6 -2 -22 1.4398 -3.0021
-6 -2 -20 1.6461 2.9608
-6 -2 -18 -2.8420 3.4331
-6 -2 -16 -0.3565 -7.3107
-6 -2 -14 3.4344 -0.9901
-6 -2 -12 -3.8992 5.9901
-6 -2 -10 8.7104 -2.7032
-6 -2 -8 -11.0282 6.1818
-6 -2 -6 -20.6525 -15.8135
-6 -2 -4 25.6991 -15.9182
-6 -2 -2 7.9827 29.8548
-6 -1 -25 0.4501 -2.5410
-6 -1 -23 0.4119 1.7716
-6 -1 -21 0.9363 -1.1903
-6 -1 -19 2.8459 0.7560
-6 -1 -17 1.5351 0.0785
-6 -1 -15 1.3786 -3.7057
-6 -1 -13 -4.8611 -5.6859
-6 -1 -11 -8.9928 -2.2045
-6 -1 -9 9.7138 0.2571
-6 -1 -7 -14.0926 -6.8091
-6 -1 -5 4.1090 2.0083
-6 -1 -3 -7.1832 -1.4079
-6 -1 -1 -3.7048 -11.7579
-5 -25 -4 -3.8827 0.6674
-5 -25 -2 1.9739 1.3153
-5 -24 -7 -3.0974 -5.4354
-5 -24 -5 1.0142 1.4589
-5 -24 -3 0.2295 -0.3180
-5 -24 -1 1.4339 2.4172
-5 -23 -8 -2.3273 1.6382
-5 -23 -6 0.1911 1.5726
-5 -23 -4 -2.4014 -0.1270
-5 -23 -2 2.2805 0.9162
-5 -22 -9 3.9653 -5.0989
-5 -22 -7 1.6236 6.1702
-5 -22 -5 1.1071 -1.1619
-5 -22 -3 0.5037 -0.1605
-5 -22 -1 2.9199 -1.9414
-5 -21 -12 2.8166 3.6120
-5 -21 -6 3.3949 -3.7578
-5 -21 -4 -3.1863 1.3549
-5 -21 -2 0.5778 -1.3648
-5 -20 -5 -2.4298 -1.4301
-5 -20 -3 2.8455 1.3583
-5 -20 -1 -0.6274 -2.4676
-5 -19 -6 -0.8542 0.0447
-5 -19 -4 -1.3344 -2.7898
-5 -19 -2 -1.4939 0.3086
-5 -18 -5 -1.2366 2.0624
-5 -18 -3 -1.4506 1.4830
-5 -18 -1 1.0005 3.8019
-5 -17 -6 2.3562 0.9489
-5 -17 -4 3.0046 0.3820
-5 -17 -2 -1.7956 1.4149
-5 -16 -7 2.7011 2.0557
-5 -16 -5 -1.5747 -2.0686
-5 -16 -3 2.4935 -1.4569
-5 -16 -1 -0.0769 -0.5588
-5 -15 -10 4.9738 -1.5297
-5 -15 -8 -2.0254 -2.3558
-5 -15 -6 4.8137 0.8791
-5 -15 -4 -0.8520 4.2206
-5 -15 -2 0.6103 -0.3851
-5 -14 -13 -1.6816 7.2388
-5 -14 -11 4.0780 6.0580
-5 -14 -9 -1.3330 -7.1537
-5 -14 -7 0.3964 -0.8323
-5 -14 -5 0.7970 -0.8594
-5 -14 -3 4.2910 -1.9047
-5 -14 -1 1.7911 -2.6923
-5 -13 -16 -5.2274 -1.4464
-5 -13 -14 -0.1922 -1.4313
-5 -13 -12 4.9741 5.5386
-5 -13 -10 -5.6146 -5.5229
-5 -13 -8 3.4164 -3.5219
-5 -13 -6 -1.6095 -0.1547
-5 -13 -4 -5.8702 7.9172
-5 -13 -2 3.1472 0.5010
-5 -12 -17 -4.5292 0.1980
-5 -12 -15 -2.9341 5.7005
-5 -12 -13 2.8430 4.0740
-5 -12 -11 -0.0857 4.8749
-5 -12 -9 -0.7703 -1.1262
-5 -12 -7 -1.4030 -6.1715
-5 -12 -5 8.8864 9.3322
-5 -12 -3 4.6255 3.7556
-5 -12 -1 7.2399 -0.1830
-5 -11 -20 5.0787 1.5555
-5 -11 -18 -0.8922 2.9346
-5 -11 -16 3.4879 5.4582
-5 -11 -14 -3.6517 -7.6752
-5 -11 -12 5.7810 12.1416
-5 -11 -10 -5.0323 2.6079
-5 -11 -8 5.2865 -13.3911
-5 -11 -6 2.6144 3.1239
-5 -11 -4 -0.5470 -3.2292
-5 -11 -2 15.8200 3.0807
-5 -10 -21 0.1714 -0.1406
-5 -10 -19 1.6873 -0.0003
-5 -10 -17 -2.0638 -5.7698
-5 -10 -15 -4.7640 -1.0420
-5 -10 -13 5.7698 7.1412
-5 -10 -11 8.6699 12.6971
-5 -10 -9 0.7401 -9.0119
-5 -10 -7 0.3318 -5.6553
-5 -10 -5 -0.9077 7.7586
-5 -10 -3 4.8337 -14.4771
-5 -10 -1 11.3359 -0.9396
-5 -9 -22 -4.8645 3.6644
-5 -9 -20 2.1359 -0.6033
-5 -9 -18 5.5490 4.3802
-5 -9 -16 -0.7577 7.2983
-5 -9 -14 -2.8636 -2.2245
-5 -9 -12 9.3726 -1.2617
-5 -9 -10 3.8163 0.1186
-5 -9 -8 -8.6909 -18.4075
-5 -9 -6 9.4053 0.8045
-5 -9 -4 0.8623 9.9892
-5 -9 -2 2.5648 -5.6672
-5 -8 -23 4.3319 1.8596
-5 -8 -21 1.3207 1.8425
-5 -8 -19 6.8964 -2.0327
-5 -8 -17 1.6915 -8.6140
-5 -8 -15 -2.4687 3.6168
-5 -8 -13 7.3176 -4.9248
-5 -8 -11 -2.6279 8.6540
-5 -8 -9 0.2409 -1.7622
-5 -8 -7 2.0773 -2.4945
-5 -8 -5 -6.7309 2.3598
-5 -8 -3 23.3965 -21.9264
-5 -8 -1 15.5188 12.3753
-5 -7 -24 1.5578 1.2773
-5 -7 -22 -4.8765 1.3892
-5 -7 -20 2.5815 -6.7843
-5 -7 -18 -4.4426 -3.8254
-5 -7 -16 4.8450 9.3795
-5 -7 -14 1.6613 -5.4414
-5 -7 -12 -10.2841 3.5214
-5 -7 -10 14.9842 -11.3602
-5 -7 -8 4.5835 -6.0465
-5 -7 -6 -3.5148 -14.2804
-5 -7 -4 15.6047 3.9917
-5 -7 -2 -1.1921 -8.7616
-5 -6 -25 4.7411 0.5844
-5 -6 -23 2.3131 4.0170
-5 -6 -21 0.2501 0.9982
-5 -6 -19 -4.6373 -2.0238
-5 -6 -17 8.4766 3.4287
-5 -6 -15 -5.9876 -8.8433
-5 -6 -13 4.6424 1.2618
-5 -6 -11 -4.6928 4.7480
-5 -6 -9 -12.9850 -15.3457
-5 -6 -7 3.9875 -13.2689
-5 -6 -5 -16.2153 -0.2076
-5 -6 -3 24.3137 -23.9725
-5 -6 -1 23.5924 -61.7604
-5 -5 -24 6.3246 -1.8527
-5 -5 -22 1.2039 0.0353
-5 -5 -20 -1.7090 0.5759
-5 -5 -18 -2.3285 -8.3781
-5 -5 -16 7.8071 7.6978
-5 -5 -14 -5.3356 3.4063
-5 -5 -12 -5.6738 -0.0487
-5 -5 -10 -2.2863 -0.1064
-5 -5 -8 -17.5333 5.1607
-5 -5 -6 -15.4583 -26.0784
-5 -5 -4 14.6542 -12.0715
-5 -5 -2 -69.6607 -18.0643
-5 -4 -25 -0.4924 -1.0719
-5 -4 -23 -0.2364 -8.3384
-5 -4 -21 3.8182 0.1844
-5 -4 -19 -6.2449 0.7768
-5 -4 -17 3.1710 -1.9557
-5 -4 -15 5.7691 -0.1749
-5 -4 -13 -5.2670 1.9878
-5 -4 -11 3.2869 1.1703
-5 -4 -9 3.3392 14.6047
-5 -4 -7 -41.8372 6.0925
-5 -4 -5 -1.5208 -0.5693
-5 -4 -3 -35.2081 35.8118
-5 -4 -1 -104.4573 -101.3338
-5 -3 -26 0.3346 -3.2605
-5 -3 -24 -2.7511 -0.1052
-5 -3 -22 -6.1995 -0.7775
-5 -3 -20 1.6505 -2.7612
-5 -3 -18 -5.7809 -1.9089
-5 -3 -16 2.4544 0.6939
-5 -3 -14 6.0376 8.7467
-5 -3 -12 -9.0980 1.8843
-5 -3 -10 10.3432 -10.5282
-5 -3 -8 -4.2096 42.3880
-5 -3 -6 -9.0848 1.2928
-5 -3 -4 24.4064 -1.8948
-5 -3 -2 -76.3352 87.0216
-5 -2 -25 -2.7338 4.3398
-5 -2 -23 1.4562 -4.4381
-5 -2 -21 -0.6830 3.7079
-5 -2 -19 -5.3750 -3.8468
-5 -2 -17 2.2519 6.6389
-5 -2 -15 6.2877 -0.9396
-5 -2 -13 6.6684 -1.0948
-5 -2 -11 -6.5210 0.5242
-5 -2 -9 23.2720 7.8961
-5 -2 -7 12.4637 4.4418
-5 -2 -5 2.9844 21.3236
-5 -2 -3 10.4059 17.2644
-5 -2 -1 -131.3307 -42.0993
-5 -1 -26 -1.3904 -0.1232
-5 -1 -24 1.0087 -1.9395
-5 -1 -22 -5.5239 -0.8335
-5 -1 -20 -2.5386 0.6485
-5 -1 -18 -4.4088 0.1541
-5 -1 -16 5.0092 0.6137
-5 -1 -14 1.2055 1.4944
-5 -1 -12 7.1235 -3.1765
-5 -1 -10 5.7227 2.7426
-5 -1 -8 11.9236 -9.8961
-5 -1 -6 -8.7017 -32.3553
-5 -1 -4 23.7300 10.4469
-5 -1 -2 -36.7555 55.1905
-4 -26 -2 -0.6772 -3.3561
-4 -25 -5 0.8934 1.6487
-4 -25 -3 -1.2990 2.8093
-4 -25 -1 2.3372 1.7839
-4 -24 -6 3.8139 -1.8923
-4 -24 -4 0.9392 0.4935
-4 -24 -2 0.4873 -2.8290
-4 -23 -7 0.7757 0.2015
-4 -23 -5 0.4085 -4.6844
-4 -23 -3 -2.6137 1.3608
-4 -23 -1 2.6853 1.6765
-4 -22 -10 -1.2333 2.0792
-4 -22 -8 3.3778 0.3010
-4 -22 -6 -2.3578 -0.6857
-4 -22 -4 -0.1084 -2.6612
-4 -22 -2 2.7056 -1.1195
-4 -21 -11 -0.2175 1.0889
-4 -21 -9 2.2445 0.2935
-4 -21 -7 1.4138 3.5357
-4 -21 -5 0.5129 -3.5243
-4 -21 -3 -6.5495 -3.2689
-4 -21 -1 3.6656 -0.9805
-4 -20 -10 2.6748 -0.4679
-4 -20 -8 2.0638 -0.5840
-4 -20 -6 3.9086 -2.8141
-4 -20 -4 -7.6636 -2.0015
-4 -20 -2 -3.3517 3.3383
-4 -19 -9 -0.1505 -1.4664
-4 -19 -7 1.6573 -2.7050
-4 -19 -5 -7.1980 -1.6834
-4 -19 -3 1.2055 8.5847
-4 -19 -1 -5.3007 1.1138
-4 -18 -10 6.6793 -2.6648
-4 -18 -8 -0.7336 -0.0805
-4 -18 -6 -2.3425 1.7663
-4 -18 -4 1.2204 1.7646
-4 -18 -2 1.1222 1.5368
-4 -17 -9 -0.9027 -0.7367
-4 -17 -7 0.4926 -3.6672
-4 -17 -5 -1.2949 3.3468
-4 -17 -3 -3.3357 5.9147
-4 -17 -1 2.7577 -3.4690
-4 -16 -10 -3.6780 -0.5972
-4 -16 -8 5.1337 3.2803
-4 -16 -6 -2.5739 2.8399
-4 -16 -4 3.5813 4.0206
-4 -16 -2 4.8187 3.4159
-4 -15 -11 -4.5996 0.1261
-4 -15 -9 -1.7967 -1.5032
-4 -15 -7 6.4393 -7.2737
-4 -15 -5 0.3717 4.3871
-4 -15 -3 2.3718 3.4312
-4 -15 -1 3.8117 1.8138
-4 -14 -10 -7.2956 6.0481
-4 -14 -8 -1.5642 -2.6720
-4 -14 -6 0.4572 3.7773
-4 -14 -4 4.2502 -3.1303
-4 -14 -2 11.0454 3.2141
-4 -13 -11 -11.1658 5.7272
-4 -13 -9 2.2400 -1.8980
-4 -13 -7 5.1814 2.7481
-4 -13 -5 -0.6782 -4.1847
-4 -13 -3 4.5884 -5.2110
-4 -13 -1 -3.6989 -3.7252
-4 -12 -16 1.7974 -2.5224
-4 -12 -14 -0.1029 2.4698
-4 -12 -12 -2.0958 -6.9210
-4 -12 -10 0.9988 10.6161
-4 -12 -8 -0.5931 -1.3285
-4 -12 -6 -0.1204 1.6540
-4 -12 -4 -1.2590 -5.1780
-4 -12 -2 -3.0130 0.5416
-4 -11 -17 5.4722 -3.1553
-4 -11 -15 -4.2684 2.1203
-4 -11 -13 -1.4731 -2.2435
-4 -11 -11 -11.2429 8.3696
-4 -11 -9 3.0647 -3.6415
-4 -11 -7 11.0992 2.0437
-4 -11 -5 2.2746 0.0174
-4 -11 -3 -6.3128 -6.0756
-4 -11 -1 10.5669 -3.2417
-4 -10 -20 -0.8492 4.1505
-4 -10 -18 0.4461 0.6069
-4 -10 -16 0.6945 -0.8857
-4 -10 -14 -0.8474 -3.3799
-4 -10 -12 -0.5292 4.8210
-4 -10 -10 3.0962 0.0682
-4 -10 -8 2.5045 3.8296
-4 -10 -6 -6.1878 -12.4706
-4 -10 -4 -2.6919 -1.1887
-4 -10 -2 -5.0622 -2.7435
-4 -9 -21 0.8154 5.7145
-4 -9 -19 0.7732 -4.5368
-4 -9 -17 0.9764 -0.2894
-4 -9 -15 -0.6463 4.4529
-4 -9 -13 -1.2164 2.1157
-4 -9 -11 -2.8218 -1.4826
-4 -9 -9 -7.1207 4.9099
-4 -9 -7 2.1132 2.5636
-4 -9 -5 5.0855 8.7295
-4 -9 -3 -12.9914 -10.2938
-4 -9 -1 -7.2907 4.7425
-4 -8 -22 3.4757 -3.1207
-4 -8 -20 -0.9013 6.2812
-4 -8 -18 -2.5423 1.2533
-4 -8 -16 2.9740 8.2605
-4 -8 -14 3.6805 -10.0493
-4 -8 -12 4.7171 4.5997
-4 -8 -10 -0.9544 -3.1710
-4 -8 -8 5.8329 11.7635
-4 -8 -6 17.7696 4.6267
-4 -8 -4 -23.6577 -21.6020
-4 -8 -2 5.5335 14.5609
-4 -7 -23 3.4263 -2.5603
-4 -7 -21 -5.5344 5.3178
-4 -7 -19 9.7626 -3.7658
-4 -7 -17 3.0200 4.2503
-4 -7 -15 3.0654 -3.4897
-4 -7 -13 -4.4857 -0.9078
-4 -7 -11 -3.9476 -10.9940
-4 -7 -9 4.4970 12.6404
-4 -7 -7 1.9786 -10.1849
-4 -7 -5 -2.5749 -9.0610
-4 -7 -3 -24.2269 20.2356
-4 -7 -1 4.7161 -7.3837
-4 -6 -24 -2.1668 -4.8175
-4 -6 -22 0.5198 0.0773
-4 -6 -20 1.4007 4.9215
-4 -6 -18 4.1496 -12.1035
-4 -6 -16 -3.3036 3.8991
-4 -6 -14 -0.1308 1.0421
-4 -6 -12 3.3426 -1.8709
-4 -6 -10 0.0255 -0.3544
-4 -6 -8 -6.8859 -9.1301
-4 -6 -6 12.5039 17.7427
-4 -6 -4 -16.1244 14.4608
-4 -6 -2 -5.5181 9.9609
-4 -5 -25 -0.8747 -0.6721
-4 -5 -23 -0.0752 -0.1282
-4 -5 -21 4.7902 -0.2293
-4 -5 -19 -3.2539 -5.1554
-4 -5 -17 -3.3540 1.4948
-4 -5 -15 -1.5864 4.3518
-4 -5 -13 9.4695 -6.2336
-4 -5 -11 -10.4198 -7.7413
-4 -5 -9 11.7648 10.0410
-4 -5 -7 -20.5282 7.8209
-4 -5 -5 13.1745 -17.1781
-4 -5 -3 29.6342 39.8124
-4 -5 -1 -16.3346 -13.0711
-4 -4 -26 -1.2102 3.2034
-4 -4 -24 0.9355 -5.9578
-4 -4 -22 -5.9626 -3.6666
-4 -4 -20 0.7311 3.3613
-4 -4 -18 -0.3689 -3.3390
-4 -4 -16 -1.2389 2.7869
-4 -4 -14 2.9500 3.5406
-4 -4 -12 0.9268 -12.0597
-4 -4 -10 4.1292 2.2212
-4 -4 -8 -9.5716 -8.7883
-4 -4 -6 17.8239 15.5938
-4 -4 -4 20.0114 12.7419
-4 -4 -2 -55.1308 -13.5759
-4 -3 -25 -0.6490 -2.9992
-4 -3 -23 -7.2795 4.8038
-4 -3 -21 3.6180 3.3272
-4 -3 -19 1.4428 -3.5545
-4 -3 -17 -6.4246 6.5088
-4 -3 -15 0.8511 -5.5363
-4 -3 -13 -7.2200 -4.3571
-4 -3 -11 8.8507 -8.5066
-4 -3 -9 -3.0080 4.2587
-4 -3 -7 -21.9452 3.4771
-4 -3 -5 18.1659 -22.2617
-4 -3 -3 28.2178 54.0602
-4 -3 -1 -2.0905 -20.8673
-4 -2 -26 -1.8500 0.5254
-4 -2 -24 -0.3985 3.7557
-4 -2 -22 3.7357 1.5532
-4 -2 -20 0.9141 -1.5208
-4 -2 -18 1.0202 1.8278
-4 -2 -16 -0.5638 1.8934
-4 -2 -14 -6.4148 1.5413
-4 -2 -12 5.8754 3.3033
-4 -2 -10 -3.8344 -22.1202
-4 -2 -8 -9.6615 21.6360
-4 -2 -6 6.5321 -9.3976
-4 -2 -4 60.2166 20.2516
-4 -2 -2 -63.0846 -26.6908
-4 -1 -27 0.4365 -1.4530
-4 -1 -25 3.6969 -1.9144
-4 -1 -23 3.7454 0.2669
-4 -1 -21 2.8893 -2.5317
-4 -1 -19 3.7073 3.0547
-4 -1 -17 0.4482 -3.2218
-4 -1 -15 -10.7088 1.2070
-4 -1 -13 -6.3190 -5.3130
-4 -1 -11 8.1710 -1.6057
-4 -1 -9 -16.8088 -8.5626
-4 -1 -7 -4.0634 0.1750
-4 -1 -5 26.1621 -15.3992
-4 -1 -3 -7.7111 3.5976
-4 -1 -1 49.6143 1.9424
-3 -26 -5 2.8727 -2.1971
-3 -26 -3 0.5822 -1.0928
-3 -26 -1 0.0264 0.8624
-3 -25 -8 3.1433 0.5776
-3 -25 -6 -7.4885 4.9879
-3 -25 -4 -1.6546 0.4445
-3 -25 -2 0.2582 -2.6667
-3 -24 -9 -1.9224 -1.8694
-3 -24 -7 2.5097 4.0711
-3 -24 -5 8.7566 5.4690
-3 -24 -3 -3.2629 1.0507
-3 -24 -1 0.9012 -3.9900
-3 -23 -10 0.7373 1.3583
-3 -23 -8 -0.2003 -1.6867
-3 -23 -6 2.2218 -1.0633
-3 -23 -4 2.1405 -0.9361
-3 -23 -2 -2.7655 -1.3618
-3 -22 -11 -2.3816 -1.2476
-3 -22 -9 -0.0544 0.3077
-3 -22 -7 -0.4734 0.8927
-3 -22 -5 5.0568 2.2009
-3 -22 -3 -3.4366 -1.7339
-3 -22 -1 4.7363 1.3998
-3 -21 -12 -0.1031 2.0722
-3 -21 -10 0.4124 5.0221
-3 -21 -8 -2.2285 -0.5521
-3 -21 -6 2.5716 -0.8996
-3 -21 -4 -0.9994 0.1537
-3 -21 -2 -3.4520 -2.3757
-3 -20 -13 8.1870 -0.1128
-3 -20 -11 1.7786 0.6562
-3 -20 -9 3.0886 0.9911
-3 -20 -7 0.9406 1.3885
-3 -20 -5 1.4884 5.8900
-3 -20 -3 -0.0330 0.3176
-3 -20 -1 4.4794 2.6496
-3 -19 -14 -5.9924 5.6998
-3 -19 -12 6.7761 -5.2709
-3 -19 -10 2.7275 -1.7299
-3 -19 -8 -1.9743 -1.4795
-3 -19 -6 3.8240 2.0315
-3 -19 -4 2.8810 -3.5713
-3 -19 -2 -0.8164 -1.4740
-3 -18 -15 -1.0378 1.4923
-3 -18 -13 0.5075 4.0598
-3 -18 -11 0.2520 -2.6678
-3 -18 -9 -0.7241 -3.8044
-3 -18 -7 -0.5620 6.4421
-3 -18 -5 2.5415 1.0640
-3 -18 -3 -0.5603 0.8303
-3 -18 -1 0.6465 -5.2967
-3 -17 -16 3.4845 -8.2755
-3 -17 -14 -7.5289 2.8951
-3 -17 -12 8.1720 1.1268
-3 -17 -10 4.5811 -5.1578
-3 -17 -8 -2.4119 3.6898
-3 -17 -6 7.6890 2.0790
-3 -17 -4 -0.5834 -4.8972
-3 -17 -2 0.7551 -2.7549
-3 -16 -15 -3.3704 -1.3991
-3 -16 -13 1.6006 3.5661
-3 -16 -11 1.4303 -3.3645
-3 -16 -9 0.4508 -6.1584
-3 -16 -7 1.3245 3.8469
-3 -16 -5 3.6705 -1.7698
-3 -16 -3 -5.3882 0.2222
-3 -16 -1 5.2697 1.2880
-3 -15 -16 3.8091 -5.9701
-3 -15 -14 -4.7065 0.3572
-3 -15 -12 1.1728 -7.8376
-3 -15 -10 9.2949 0.0965
-3 -15 -8 -2.3087 -1.4736
-3 -15 -6 0.0294 -5.2069
-3 -15 -4 2.5135 1.3536
-3 -15 -2 -0.9584 -4.8469
-3 -14 -17 0.4350 -0.2655
-3 -14 -15 -2.5357 -2.6173
-3 -14 -13 -9.3968 4.4979
-3 -14 -11 -2.7212 -7.0234
-3 -14 -9 -2.5688 -7.2411
-3 -14 -7 -4.7989 5.4639
-3 -14 -5 -2.5278 -1.1707
-3 -14 -3 0.5675 2.6091
-3 -14 -1 -3.2740 3.6846
-3 -13 -18 -1.5766 -3.2527
-3 -13 -16 3.3456 2.5467
-3 -13 -14 1.8971 -1.8823
-3 -13 -12 -2.1836 2.7754
-3 -13 -10 -3.6733 6.7537
-3 -13 -8 8.7014 9.5567
-3 -13 -6 -6.5929 -3.7686
-3 -13 -4 12.3894 2.5264
-3 -13 -2 1.4752 -4.8492
-3 -12 -17 1.2928 0.8968
-3 -12 -15 -1.2565 -5.5992
-3 -12 -13 -6.7355 1.1448
-3 -12 -11 6.3883 0.7456
-3 -12 -9 6.0518 -2.9615
-3 -12 -7 5.6921 -0.1812
-3 -12 -5 -5.3783 0.1935
-3 -12 -3 -1.6139 -8.8083
-3 -12 -1 1.4721 -0.3313
-3 -11 -26 -7.1068 0.7388
-3 -11 -18 2.0389 -4.7679
-3 -11 -16 1.1462 3.0958
-3 -11 -14 -2.5208 -0.3179
-3 -11 -12 4.9062 -2.0142
-3 -11 -10 -2.9048 -4.3609
-3 -11 -8 6.3526 0.4355
-3 -11 -6 4.0474 -2.4091
-3 -11 -4 -3.8690 0.7918
-3 -11 -2 -2.8792 -7.7988
-3 -10 -17 -1.9392 -3.3618
-3 -10 -15 0.0047 -0.1142
-3 -10 -13 1.1577 -0.0165
-3 -10 -11 -6.2525 0.4670
-3 -10 -9 -6.4036 -5.0645
-3 -10 -7 4.9189 -6.8966
-3 -10 -5 -3.6262 7.8974
-3 -10 -3 -11.0646 -1.8641
-3 -10 -1 -2.1932 -15.1405
-3 -9 -20 -0.5530 5.8531
-3 -9 -18 -4.1805 1.1330
-3 -9 -16 1.6937 0.5764
-3 -9 -14 -2.7497 -1.4959
-3 -9 -12 6.0161 -4.5639
-3 -9 -10 4.6128 6.5386
-3 -9 -8 -3.7292 6.6515
-3 -9 -6 19.2720 -6.4007
-3 -9 -4 -6.6399 15.5187
-3 -9 -2 -8.2496 -13.2776
-3 -8 -21 0.2273 -6.1332
-3 -8 -19 -3.3639 -1.9178
-3 -8 -17 -2.8409 -2.4438
-3 -8 -15 1.5693 -1.3279
-3 -8 -13 -0.3862 1.4320
-3 -8 -11 -5.8014 -0.6591
-3 -8 -9 -3.5080 -17.0211
-3 -8 -7 -2.3249 -17.1851
-3 -8 -5 -0.9022 4.4818
-3 -8 -3 3.2144 -4.1104
-3 -8 -1 -26.2934 22.9165
-3 -7 -24 -1.8539 -4.5810
-3 -7 -22 5.4208 -3.2764
-3 -7 -20 -12.7215 9.0483
-3 -7 -18 -1.8513 13.0795
-3 -7 -16 -0.0776 -3.7012
-3 -7 -14 -5.0165 -0.1878
-3 -7 -12 6.4402 0.8055
-3 -7 -10 -8.9564 5.8126
-3 -7 -8 -3.6270 15.6096
-3 -7 -4 -8.4898 15.3425
-3 -7 -2 18.8740 -7.4929
-3 -6 -27 3.2769 2.2202
-3 -6 -25 1.7451 2.0061
-3 -6 -23 -1.3126 4.5759
-3 -6 -21 0.2860 -0.2505
-3 -6 -19 10.2584 5.6641
-3 -6 -17 -1.0206 -7.4332
-3 -6 -15 4.1544 -0.3471
-3 -6 -13 0.2628 5.5733
-3 -6 -11 0.8768 9.4796
-3 -6 -9 8.6081 -4.1235
-3 -6 -5 46.3584 17.3280
-3 -6 -3 -6.8675 -9.4512
-3 -6 -1 12.1009 9.5291
-3 -5 -26 3.2284 -8.5626
-3 -5 -24 5.5679 -0.3303
-3 -5 -22 1.3168 -1.3792
-3 -5 -20 -5.3197 4.3028
-3 -5 -18 -2.3014 1.7723
-3 -5 -16 -6.8750 0.9011
-3 -5 -14 3.1344 -10.0926
-3 -5 -12 6.1475 7.5452
-3 -5 -10 3.3803 -9.3860
-3 -5 -8 -4.9507 6.9456
-3 -5 -4 39.4999 -22.3907
-3 -4 -27 -2.7053 4.9150
-3 -4 -25 -7.3997 -8.2073
-3 -4 -23 5.7827 2.9128
-3 -4 -21 5.0988 12.6940
-3 -4 -19 4.5058 1.8899
-3 -4 -17 0.5012 1.2066
-3 -4 -15 -0.9159 -7.9956
-3 -4 -13 -0.5738 5.1293
-3 -4 -11 -4.6370 9.4727
-3 -4 -9 8.6364 -11.2262
-3 -4 -7 -0.1560 -5.8780
-3 -4 -5 0.7744 -49.2745
-3 -4 -3 9.6106 -28.7760
-3 -4 -1 -3.0011 16.5017
-3 -3 -26 4.6624 1.3323
-3 -3 -24 -4.7047 3.9851
-3 -3 -22 14.6066 -14.2879
-3 -3 -20 4.6392 1.3039
-3 -3 -18 2.7214 1.2229
-3 -3 -16 -8.6509 -1.0723
-3 -3 -14 -0.8076 -2.6154
-3 -3 -12 8.4944 2.8723
-3 -3 -10 -1.1982 9.2490
-3 -3 -8 4.3958 -24.7104
-3 -3 -6 -49.8541 -20.4025
-3 -3 -4 -89.3048 11.0744
-3 -3 -2 14.2162 -69.5390
-3 -2 -27 -2.6855 -0.1201
-3 -2 -25 3.0850 -4.0171
-3 -2 -23 -3.0935 0.7100
-3 -2 -21 -7.5486 -4.5543
-3 -2 -19 9.7436 1.6434
-3 -2 -17 -2.5009 -6.1410
-3 -2 -15 -2.8745 3.4707
-3 -2 -13 0.9266 -1.5343
-3 -2 -11 1.0751 5.4857
-3 -2 -9 -0.3361 -1.3785
-3 -2 -7 -10.0622 -8.3504
-3 -2 -5 -28.1857 15.5595
-3 -2 -3 -59.2346 59.5074
-3 -2 -1 -50.1837 -25.9454
-3 -1 -26 -0.2715 -1.5992
-3 -1 -24 1.1153 0.9189
-3 -1 -22 3.9616 3.8939
-3 -1 -20 2.9015 0.0917
-3 -1 -18 -3.5321 -6.0493
-3 -1 -16 -0.0205 6.4357
-3 -1 -14 3.1507 -0.9258
-3 -1 -12 -6.4723 -1.3895
-3 -1 -10 6.7339 13.8994
-3 -1 -8 -7.4848 -10.9005
-3 -1 -6 -23.1720 -45.9294
-3 -1 -4 -67.5551 173.8193
-3 -1 -2 -33.3826 -109.1641
-2 -27 -5 -0.8446 2.1118
-2 -27 -3 -3.6464 -0.7195
-2 -27 -1 1.4792 -3.9555
-2 -26 -8 3.1918 1.8663
-2 -26 -6 1.1909 0.1393
-2 -26 -4 -1.7206 -0.7033
-2 -26 -2 -1.4526 1.5066
-2 -25 -9 2.3922 4.7514
-2 -25 -7 -1.6175 -1.0458
-2 -25 -5 -1.0137 2.0100
-2 -25 -3 -3.4793 2.2737
-2 -25 -1 -0.2137 0.2126
-2 -24 -12 -0.0566 -1.2797
-2 -24 -10 -1.1650 1.2449
-2 -24 -8 7.1043 2.5473
-2 -24 -6 -3.8043 2.1768
-2 -24 -4 1.5571 3.0793
-2 -24 -2 0.0621 -0.0032
-2 -23 -13 0.5047 2.7453
-2 -23 -11 -1.6222 -1.2614
-2 -23 -9 -1.5538 1.2241
-2 -23 -7 3.2541 -2.7899
-2 -23 -5 -0.9304 3.1444
-2 -23 -3 0.5587 -2.2018
-2 -23 -1 -3.0566 3.1939
-2 -22 -14 -0.8740 -1.0441
-2 -22 -12 2.2556 3.0686
-2 -22 -10 0.1079 2.2078
-2 -22 -8 -0.6332 -0.1507
-2 -22 -6 -1.3308 5.7156
-2 -22 -4 -0.3460 1.2484
-2 -22 -2 2.0126 -1.4741
-2 -21 -15 -2.5014 -0.9323
-2 -21 -13 -0.1409 2.0373
-2 -21 -11 6.5444 -9.1885
-2 -21 -9 -2.7659 3.8823
-2 -21 -7 6.1643 1.3928
-2 -21 -5 -0.0813 -2.3811
-2 -21 -3 -1.3120 -2.1217
-2 -21 -1 5.0535 3.7108
-2 -20 -16 2.1715 -1.2096
-2 -20 -14 2.2942 0.9955
-2 -20 -12 -5.0578 -1.3291
-2 -20 -10 -2.4771 -0.9825
-2 -20 -8 -1.9262 -4.5694
-2 -20 -6 -4.6573 6.9184
-2 -20 -4 -5.2564 0.8844
-2 -20 -2 5.9017 -0.3374
-2 -19 -17 -3.6190 0.4057
-2 -19 -15 -5.1827 1.5987
-2 -19 -13 1.4445 -1.4280
-2 -19 -11 -3.1781 1.5738
-2 -19 -9 -0.1285 3.4239
-2 -19 -7 5.0833 9.0475
-2 -19 -5 -1.0120 4.4604
-2 -19 -3 6.1110 -1.5339
-2 -19 -1 2.5503 -1.7052
-2 -18 -18 -5.9095 -0.4936
-2 -18 -16 2.1653 7.8200
-2 -18 -14 3.3413 -0.1204
-2 -18 -12 -0.5954 3.6490
-2 -18 -10 -1.9934 -0.5122
-2 -18 -8 6.1097 -3.8460
-2 -18 -6 4.4229 -1.4520
-2 -18 -4 -1.0875 1.5336
-2 -18 -2 0.2130 -5.9867
-2 -17 -19 3.7392 1.6346
-2 -17 -17 0.4920 1.2116
-2 -17 -15 -1.0997 0.8078
-2 -17 -13 4.4911 -4.8347
-2 -17 -11 -7.0200 4.5381
-2 -17 -9 -0.5731 1.5883
-2 -17 -7 -0.8396 -5.6019
-2 -17 -5 -7.3269 2.6327
-2 -17 -3 11.3388 0.5280
-2 -17 -1 -9.7827 1.5659
-2 -16 -20 2.0859 0.3728
-2 -16 -18 -2.5361 -2.8323
-2 -16 -16 1.1937 5.2657
-2 -16 -14 -0.5564 -1.9505
-2 -16 -12 7.7708 6.7222
-2 -16 -10 -4.6131 3.7445
-2 -16 -8 1.7173 2.6399
-2 -16 -6 -0.9051 2.4007
-2 -16 -4 -0.1158 -0.5095
-2 -16 -2 0.8809 -2.1234
-2 -15 -19 3.2352 6.1287
-2 -15 -17 -1.0356 -0.7086
-2 -15 -15 1.1087 1.9027
-2 -15 -13 0.5624 -6.3293
-2 -15 -11 4.8733 -2.7850
-2 -15 -9 -4.6014 4.9373
-2 -15 -7 0.3287 -2.6581
-2 -15 -5 4.2941 -1.2262
-2 -15 -3 1.0778 4.5807
-2 -15 -1 9.2909 -8.1950
-2 -14 -20 -1.2132 0.2104
-2 -14 -18 2.6806 -2.0973
-2 -14 -16 -0.0105 -0.9679
-2 -14 -14 0.9994 5.6920
-2 -14 -12 -0.5959 3.2347
-2 -14 -10 -2.2187 4.7226
-2 -14 -8 -4.7145 12.0567
-2 -14 -6 2.1388 -1.9079
-2 -14 -4 -2.2851 -4.5463
-2 -14 -2 1.8505 -3.2256
-2 -13 -25 -2.3095 0.3504
-2 -13 -21 1.6255 2.6433
-2 -13 -19 -1.4701 2.8807
-2 -13 -17 -2.4732 3.2721
-2 -13 -15 0.6699 -3.4051
-2 -13 -13 6.7587 4.1451
-2 -13 -11 7.6491 -5.8774
-2 -13 -9 10.2406 6.8962
-2 -13 -7 1.2400 11.2400
-2 -13 -5 8.9064 -10.0269
-2 -13 -3 -0.5752 2.0927
-2 -13 -1 1.0903 3.0897
-2 -12 -22 -1.5236 -4.1091
-2 -12 -20 2.6365 0.8681
-2 -12 -18 -0.6515 0.7232
-2 -12 -16 4.0599 -2.9891
-2 -12 -14 6.2004 5.6477
-2 -12 -12 0.6071 0.4653
-2 -12 -10 0.1698 -8.2962
-2 -12 -8 7.2123 2.6524
-2 -12 -6 1.1014 -4.9902
-2 -12 -4 -6.5644 -13.0547
-2 -12 -2 4.0613 -6.0565
-2 -11 -21 5.5359 1.0073
-2 -11 -19 -1.5850 -1.1168
-2 -11 -17 -5.0347 5.1277
-2 -11 -15 0.1493 -7.9196
-2 -11 -13 11.9868 -1.9620
-2 -11 -11 -2.0428 -7.1240
-2 -11 -9 5.6327 -10.0641
-2 -11 -7 7.1415 7.6115
-2 -11 -5 -15.9913 -0.3901
-2 -11 -3 4.7428 -5.7210
-2 -11 -1 -15.0548 -0.1621
-2 -10 -22 1.2154 -6.0970
-2 -10 -20 0.8342 -1.7655
-2 -10 -18 -1.0689 0.2120
-2 -10 -16 6.1131 4.5203
-2 -10 -14 -1.2061 -2.3187
-2 -10 -12 -3.8686 0.4457
-2 -10 -10 -14.3862 -0.2471
-2 -10 -8 -0.8545 -8.1910
-2 -10 -6 -0.5021 -3.5006
-2 -10 -4 -3.6537 -0.7085
-2 -10 -2 -6.0714 -5.3719
-2 -9 -27 -2.1322 3.6574
-2 -9 -23 -3.3571 -4.8793
-2 -9 -21 6.2606 -5.5113
-2 -9 -19 -2.3118 1.3272
-2 -9 -17 -3.2421 -8.1720
-2 -9 -15 11.2974 -1.2327
-2 -9 -13 -4.7719 2.1187
-2 -9 -11 9.3310 11.3750
-2 -9 -9 7.3971 -3.5680
-2 -9 -7 -2.2218 2.3607
-2 -9 -5 -17.6973 10.7448
-2 -9 -3 -3.4140 3.5090
-2 -9 -1 13.2724 -1.6025
-2 -8 -22 -4.7771 0.7341
-2 -8 -20 -0.2914 -5.7101
-2 -8 -18 -6.1717 2.5083
-2 -8 -16 -5.8542 -8.0275
-2 -8 -14 0.8089 -0.0190
-2 -8 -12 11.4711 3.1903
-2 -8 -10 -0.7517 -23.3864
-2 -8 -8 -8.8706 9.6772
-2 -8 -6 -1.4145 -14.9965
-2 -8 -4 4.4286 14.2734
-2 -8 -2 11.8577 -1.7262
-2 -7 -27 3.0574 2.8100
-2 -7 -23 2.5648 -2.9370
-2 -7 -21 1.6992 0.6702
-2 -7 -19 1.1710 -2.8455
-2 -7 -17 -7.5808 1.6866
-2 -7 -15 3.9472 2.4023
-2 -7 -13 -1.1549 0.9990
-2 -7 -11 -10.5649 -1.5517
-2 -7 -9 4.3150 -0.8754
-2 -7 -7 -6.3976 11.0148
-2 -7 -5 -18.9101 15.1997
-2 -7 -3 7.1105 -8.3824
-2 -7 -1 14.8358 -5.8246
-2 -6 -24 0.0594 -2.5616
-2 -6 -22 -3.0228 0.2545
-2 -6 -20 0.2045 -5.7460
-2 -6 -18 -6.4594 -0.5596
-2 -6 -16 -2.7929 2.8583
-2 -6 -14 0.9797 -5.2313
-2 -6 -12 7.2960 9.0675
-2 -6 -10 -2.2699 -14.6915
-2 -6 -8 12.0978 27.3046
-2 -6 -6 12.1561 -7.3801
-2 -6 -4 -12.1557 2.2113
-2 -6 -2 7.2963 -6.7443
-2 -5 -27 -4.0516 3.6544
-2 -5 -25 3.0129 2.6065
-2 -5 -23 -1.3333 -0.6095
-2 -5 -21 -4.4790 1.1671
-2 -5 -19 -5.5773 -6.7193
-2 -5 -17 4.5700 9.9216
-2 -5 -15 -0.8630 -3.3054
-2 -5 -13 -4.1996 2.7932
-2 -5 -11 -5.9511 5.2463
-2 -5 -9 3.4524 -13.7284
-2 -5 -7 21.0222 -16.6110
-2 -5 -5 -18.8313 23.6624
-2 -5 -3 8.8755 3.3077
-2 -5 -1 -15.1415 6.9254
-2 -4 -26 -1.5936 1.7388
-2 -4 -24 2.2898 -4.7546
-2 -4 -22 -3.3685 2.0771
-2 -4 -20 -7.6117 4.7554
-2 -4 -18 -1.9679 0.6495
-2 -4 -16 3.6348 0.4014
-2 -4 -14 -4.8026 1.5660
-2 -4 -12 7.9259 3.5934
-2 -4 -10 -1.0879 0.0080
-2 -4 -8 4.6454 9.4247
-2 -4 -6 6.9028 -1.7328
-2 -4 -4 -12.6053 -27.9132
-2 -4 -2 33.5335 -0.2431
-2 -3 -27 -1.0369 1.4674
-2 -3 -25 -0.3183 4.7529
-2 -3 -23 0.7537 0.3173
-2 -3 -21 -9.6240 12.8991
-2 -3 -19 7.3368 -1.4622
-2 -3 -17 4.1906 2.7304
-2 -3 -15 2.4067 -2.6711
-2 -3 -13 -5.6501 5.3535
-2 -3 -11 11.4110 -4.5283
-2 -3 -9 -7.8073 -4.5498
-2 -3 -7 23.9884 -22.7641
-2 -3 -5 -4.6082 27.2876
-2 -3 -3 -59.0720 -24.5678
-2 -2 -26 -1.8412 1.8020
-2 -2 -24 7.1265 -4.9643
-2 -2 -22 3.3550 4.0038
-2 -2 -20 6.9057 4.7445
-2 -2 -18 -5.8259 -0.4771
-2 -2 -16 3.9833 1.5756
-2 -2 -14 2.3741 -2.3370
-2 -2 -12 -5.3253 -11.2184
-2 -2 -10 -11.2111 -1.1864
-2 -2 -8 19.3244 6.6316
-2 -2 -6 8.1381 -9.6967
-2 -2 -4 -29.7967 -2.1070
-2 -2 -2 -31.1589 98.3643
-2 -1 -27 -3.1482 2.0205
-2 -1 -25 -2.3338 -0.7604
-2 -1 -23 -2.1123 -1.4379
-2 -1 -21 -4.9107 -1.1375
-2 -1 -19 11.6509 1.5505
-2 -1 -17 12.7861 -2.6147
-2 -1 -15 -2.6807 -1.6987
-2 -1 -13 -11.9277 -5.8498
-2 -1 -11 -8.1501 17.2558
-2 -1 -9 2.4728 2.8853
-2 -1 -5 25.9526 6.9832
-2 -1 -3 -29.9824 -4.8008
-2 -1 -1 93.4506 17.8390
-1 -28 -1 -0.7891 0.3683
-1 -27 -6 1.3253 -0.7884
-1 -27 -4 -1.2127 2.2058
-1 -27 -2 -4.6592 2.6714
-1 -26 -9 -8.5127 -2.0549
-1 -26 -7 1.9318 2.8285
-1 -26 -5 -5.2465 -1.8939
-1 -26 -3 0.6571 3.2341
-1 -26 -1 0.1458 2.3962
-1 -25 -12 -0.7523 0.3511
-1 -25 -10 -0.4872 6.2059
-1 -25 -8 0.7367 4.6874
-1 -25 -6 0.8301 -0.4835
-1 -25 -4 0.6085 2.2269
-1 -25 -2 3.2021 2.4867
-1 -24 -13 -0.3089 -4.0506
-1 -24 -11 7.2165 3.1267
-1 -24 -9 -0.1718 -4.8432
-1 -24 -7 2.9445 1.5784
-1 -24 -5 -0.6640 -1.1333
-1 -24 -3 1.2645 -2.1423
-1 -24 -1 -2.6075 -1.1348
-1 -23 -14 2.6823 -3.9311
-1 -23 -12 -2.7938 -1.2933
-1 -23 -10 1.8770 -3.3684
-1 -23 -8 -3.6422 2.9018
-1 -23 -6 -0.9911 -2.1365
-1 -23 -4 0.2853 -1.1741
-1 -23 -2 -0.5816 6.0906
-1 -22 -15 0.7811 -2.0471
-1 -22 -13 -5.2555 -4.7713
-1 -22 -11 4.3326 -0.9075
-1 -22 -9 -1.9894 -0.9759
-1 -22 -7 -0.0140 5.6172
-1 -22 -5 1.4045 -1.1036
-1 -22 -3 1.5418 -1.2253
-1 -22 -1 1.4537 3.1947
-1 -21 -16 1.2728 -2.9173
-1 -21 -14 -4.0074 2.6822
-1 -21 -12 -4.1461 2.9653
-1 -21 -10 -0.8728 -3.0011
-1 -21 -8 3.3278 0.1218
-1 -21 -6 0.3455 -1.3698
-1 -21 -4 0.4222 -0.1591
-1 -21 -2 4.2606 3.1078
-1 -20 -19 -1.3321 5.0086
-1 -20 -17 -0.0325 -4.1898
-1 -20 -15 -2.8332 -1.6463
-1 -20 -13 3.3354 2.1360
-1 -20 -11 1.2527 -4.0294
-1 -20 -9 -1.3861 -1.0183
-1 -20 -7 -1.4853 0.1971
-1 -20 -5 3.6351 -2.2728
-1 -20 -3 2.5317 -2.2845
-1 -20 -1 -2.2403 -4.5912
-1 -19 -18 -3.9718 -2.1565
-1 -19 -16 0.5234 0.3884
-1 -19 -14 -3.8409 0.4183
-1 -19 -12 -2.5096 4.6480
-1 -19 -10 -6.7692 0.1640
-1 -19 -8 -1.2225 -6.3435
-1 -19 -6 0.7572 3.5614
-1 -19 -4 1.3579 -6.1194
-1 -19 -2 -2.8602 3.7761
-1 -18 -19 -3.0478 2.0811
-1 -18 -17 -5.2767 4.9495
-1 -18 -15 2.4767 -4.1021
-1 -18 -13 4.4545 2.0695
-1 -18 -11 0.1344 1.0783
-1 -18 -9 -1.2297 3.8041
-1 -18 -7 -1.1952 1.8960
-1 -18 -5 6.9872 -6.4781
-1 -18 -3 -8.7277 -0.3499
-1 -18 -1 0.7487 1.7326
-1 -17 -22 0.2045 2.6357
-1 -17 -20 -4.9388 -3.9660
-1 -17 -18 1.3485 3.7867
-1 -17 -16 2.3280 6.7412
-1 -17 -14 -3.8087 -9.4985
-1 -17 -12 -1.8258 11.4825
-1 -17 -10 -1.8578 -1.1038
-1 -17 -8 -2.6818 -5.0667
-1 -17 -6 -0.4505 -0.2794
-1 -17 -4 0.4064 -4.7131
-1 -17 -2 -4.3792 16.8485
-1 -16 -23 -1.8331 -0.9720
-1 -16 -21 1.6539 2.5121
-1 -16 -19 -11.7055 0.7827
-1 -16 -17 4.5605 -0.2877
-1 -16 -15 5.0376 3.3490
-1 -16 -13 4.6527 -9.0659
-1 -16 -11 2.5039 5.3601
-1 -16 -9 3.4444 2.1649
-1 -16 -7 -1.3785 5.4818
-1 -16 -5 3.3073 -4.4394
-1 -16 -3 3.4289 -0.2221
-1 -16 -1 17.5229 0.2847
-1 -15 -24 -2.4470 -1.6310
-1 -15 -22 -0.4779 0.4769
-1 -15 -20 2.8859 1.2561
-1 -15 -18 -7.2208 11.1894
-1 -15 -16 5.0385 -3.8050
-1 -15 -14 -7.4392 -5.9815
-1 -15 -12 -13.1436 2.7306
-1 -15 -10 0.6226 -8.0827
-1 -15 -8 0.3984 -4.2655
-1 -15 -6 -0.8234 -2.3261
-1 -15 -4 2.1904 -7.7529
-1 -15 -2 -8.0531 -4.5811
-1 -14 -23 -3.4064 6.2983
-1 -14 -21 -3.8696 -0.1670
-1 -14 -19 3.0448 -0.6700
-1 -14 -17 1.4609 3.0518
-1 -14 -15 4.7480 6.1789
-1 -14 -13 8.4259 8.8527
-1 -14 -11 -13.7193 7.9638
-1 -14 -9 4.8111 6.8308
-1 -14 -7 -2.4724 1.6112
-1 -14 -5 0.7803 -0.7681
-1 -14 -3 0.8719 0.7356
-1 -14 -1 -1.1703 -2.2498
-1 -13 -22 9.5712 11.3935
-1 -13 -20 -9.5229 3.5339
-1 -13 -18 1.9979 -2.9155
-1 -13 -16 -0.3663 1.1732
-1 -13 -14 8.5128 -15.7602
-1 -13 -12 0.4412 8.3295
-1 -13 -10 2.5105 -1.8396
-1 -13 -8 4.7535 -6.4684
-1 -13 -6 1.8521 -6.3949
-1 -13 -4 -1.4243 -11.4607
-1 -13 -2 0.2370 1.1011
-1 -12 -25 -1.5865 4.1622
-1 -12 -23 5.2470 -2.7739
-1 -12 -21 10.3955 3.0421
-1 -12 -19 3.4887 7.6172
-1 -12 -17 -5.5383 1.0957
-1 -12 -15 -1.4536 5.6536
-1 -12 -13 -0.7200 -0.8228
-1 -12 -11 5.5352 1.3268
-1 -12 -9 -6.8375 7.9544
-1 -12 -7 -3.5223 -1.1501
-1 -12 -5 -8.7469 -3.9555
-1 -12 -3 1.6372 0.3580
-1 -12 -1 -3.6557 3.2811
-1 -11 -26 3.3493 2.5779
-1 -11 -24 2.2732 2.6642
-1 -11 -22 3.2611 -5.4328
-1 -11 -20 2.9318 -2.6322
-1 -11 -18 8.2412 -3.8430
-1 -11 -16 4.2080 4.3989
-1 -11 -14 3.5572 -2.0495
-1 -11 -12 8.7263 -7.0309
-1 -11 -10 -0.1734 -0.7661
-1 -11 -8 9.8408 -1.0987
-1 -11 -6 -2.9890 -11.9459
-1 -11 -4 -4.9131 -1.4372
-1 -11 -2 0.2071 -0.5192
-1 -10 -23 1.0451 0.9126
-1 -10 -21 -0.4549 -4.5729
-1 -10 -19 7.7060 -2.8745
-1 -10 -17 -9.0642 -0.9464
-1 -10 -15 6.6503 2.5802
-1 -10 -13 -12.5490 -10.6689
-1 -10 -11 -0.2631 -5.3962
-1 -10 -9 -0.0473 2.7686
-1 -10 -7 -20.1215 1.3349
-1 -10 -5 1.1975 2.4535
-1 -10 -3 -14.4474 -1.9196
-1 -10 -1 9.2758 5.3723
-1 -9 -24 2.1462 -1.1654
-1 -9 -22 0.0854 0.0184
-1 -9 -20 -4.0027 -3.0936
-1 -9 -18 4.8124 -2.8575
-1 -9 -16 4.7510 -2.2606
-1 -9 -14 1.1016 0.8314
-1 -9 -12 -3.5693 10.4966
-1 -9 -10 -3.3877 -1.3145
-1 -9 -8 9.2532 4.4971
-1 -9 -6 2.4534 -15.2195
-1 -9 -4 -1.0543 11.0410
-1 -9 -2 -4.8752 1.9033
-1 -8 -27 0.0446 -3.6431
-1 -8 -25 0.8720 0.5116
-1 -8 -23 -0.8176 0.6461
-1 -8 -21 -0.5451 -4.9882
-1 -8 -19 8.4668 -0.1655
-1 -8 -17 -6.6342 -1.3696
-1 -8 -15 -2.2829 3.0932
-1 -8 -13 1.5426 -17.7353
-1 -8 -11 5.4051 5.4480
-1 -8 -9 5.3833 -0.3275
-1 -8 -7 -29.7382 -3.7238
-1 -8 -5 1.9775 7.2898
-1 -8 -3 -15.4079 4.2312
-1 -8 -1 9.7241 -7.3513
-1 -7 -26 -4.4260 -2.7179
-1 -7 -24 2.8243 -0.9683
-1 -7 -22 -2.8720 0.3714
-1 -7 -20 -5.0381 1.5202
-1 -7 -18 4.1386 -10.0024
-1 -7 -16 3.2752 -0.7400
-1 -7 -14 4.1449 -6.0053
-1 -7 -12 -17.2472 0.3577
-1 -7 -10 7.4194 -3.3088
-1 -7 -8 -2.8122 12.2303
-1 -7 -6 11.4205 5.6603
-1 -7 -4 20.9605 4.8242
-1 -7 -2 -15.1655 2.3120
-1 -6 -27 -1.7206 0.1786
-1 -6 -25 -2.7966 -0.0022
-1 -6 -23 -3.0792 3.2448
-1 -6 -21 0.5691 -4.6535
-1 -6 -19 9.3985 2.1136
-1 -6 -17 -17.2102 -1.8196
-1 -6 -15 -10.1774 -9.2106
-1 -6 -13 -3.7556 -3.3293
-1 -6 -11 -7.4261 -3.7707
-1 -6 -9 3.2729 3.4167
-1 -6 -7 6.7827 -2.6591
-1 -6 -5 -4.1261 -20.3220
-1 -6 -3 -12.0231 6.8541
-1 -6 -1 2.4033 13.9887
-1 -5 -28 0.9434 2.2408
-1 -5 -26 -1.5688 -0.2154
-1 -5 -24 0.3553 0.3051
-1 -5 -22 1.0525 3.4158
-1 -5 -20 -7.5992 -1.5540
-1 -5 -18 5.7665 -1.8570
-1 -5 -16 -16.5405 23.8053
-1 -5 -14 -0.3214 -3.3063
-1 -5 -12 -4.8718 -1.1597
-1 -5 -10 -12.1526 13.9130
-1 -5 -8 3.1970 -3.5791
-1 -5 -6 4.6652 7.5033
-1 -5 -4 10.0650 -12.8868
-1 -5 -2 18.4147 12.0429
-1 -4 -27 0.0355 1.3074
-1 -4 -25 -3.0256 0.2674
-1 -4 -23 -0.8191 4.4794
-1 -4 -21 -1.9080 -5.3738
-1 -4 -19 9.0405 5.4857
-1 -4 -17 8.3871 6.9355
-1 -4 -15 8.2272 17.3137
-1 -4 -13 -8.0917 -10.5660
-1 -4 -11 -10.3470 -0.2565
-1 -4 -9 4.3813 3.9392
-1 -4 -7 3.7549 3.3489
-1 -4 -5 0.5664 -31.4991
-1 -4 -3 6.3541 -32.0221
-1 -4 -1 12.2420 -30.6160
-1 -3 -28 4.6167 2.4808
-1 -3 -26 -2.0772 -1.2930
-1 -3 -24 5.1749 2.2478
-1 -3 -22 1.0982 5.0651
-1 -3 -20 -6.3855 -0.6407
-1 -3 -18 7.7791 -10.9183
-1 -3 -16 8.4696 3.0365
-1 -3 -14 8.1144 -6.6107
-1 -3 -12 -11.5374 7.2971
-1 -3 -10 -1.8338 9.0373
-1 -3 -4 -80.5465 -86.1826
-1 -3 -2 -13.4540 10.6042
-1 -2 -27 -1.4842 2.8376
-1 -2 -25 0.3107 -3.7972
-1 -2 -23 0.0404 -0.5890
-1 -2 -21 3.5796 0.1964
-1 -2 -19 1.3947 7.0508
-1 -2 -17 6.2255 -6.6034
-1 -2 -15 4.3356 -1.1903
-1 -2 -13 -0.7185 -6.1207
-1 -2 -11 -8.7768 1.8819
-1 -2 -9 -5.2005 4.6064
-1 -2 -3 -34.7306 72.0057
-1 -2 -1 46.4248 -39.1110
-1 -1 -26 1.7264 -1.2183
-1 -1 -24 -3.2091 3.1553
-1 -1 -22 5.9638 3.5621
-1 -1 -20 5.7150 -6.1764
-1 -1 -18 -1.6324 -7.4793
-1 -1 -16 1.1710 -14.3498
-1 -1 -14 -3.7928 -7.6404
-1 -1 -12 -9.3582 4.7348
-1 -1 -10 -0.8941 20.9071
-1 -1 -8 -14.3933 27.4666
-1 -1 -2 27.6808 3.3127
0 0 2 91.0428 -39.2621
0 0 4 -6.5547 0.1585
0 0 6 -60.2349 27.3012
0 0 8 33.5086 31.5646
0 0 10 -47.7583 18.3479
0 0 12 3.4204 0.4341
0 0 14 -5.3221 -9.3131
0 0 16 3.1114 -8.9325
0 0 18 -4.5181 -4.8452
0 0 20 -5.3087 -1.6930
0 0 22 14.0931 0.1248
0 0 24 9.4449 0.8150
0 0 26 -5.5248 0.7004
0 1 1 0.2016 -277.6778
0 1 3 -9.1837 53.2400
0 1 5 4.6992 62.3252
0 1 7 10.5093 -22.0358
0 1 9 9.3842 -3.7933
0 1 11 3.7875 18.2217
0 1 13 -1.4308 -6.5968
0 1 15 -3.4595 6.6162
0 1 17 -2.8173 -0.9909
0 1 19 -1.0766 1.7630
0 1 21 -0.1261 -3.1635
0 1 23 0.1449 -12.7441
0 1 25 0.1031 2.2452
0 1 27 0.2675 6.1275
0 2 0 -128.9462 -15.6009
0 2 2 -131.0353 -11.2490
0 2 4 156.4469 0.8413
0 2 6 1.0306 6.2803
0 2 8 -26.1045 6.7862
0 2 10 -7.1926 3.6822
0 2 12 -9.9921 -0.2264
0 2 14 3.9259 -2.5651
0 2 16 -4.6305 -1.9458
0 2 18 -5.4400 -0.8584
0 2 20 2.1438 -0.2237
0 2 22 -6.2732 0.0851
0 2 24 -1.5903 0.2748
0 2 26 8.2917 0.2337
0 2 28 -4.9080 0.0759
0 3 1 -1.9023 -70.0108
0 3 3 -3.8082 70.3680
0 3 5 0.6570 -110.1342
0 3 7 6.3497 4.0783
0 3 9 5.4245 6.8709
0 3 11 2.9320 24.5605
0 3 13 -0.7845 -1.8615
0 3 15 -2.4029 8.0465
0 3 17 -2.1319 16.4812
0 3 19 -0.6841 -4.5748
0 3 21 0.2419 -0.9951
0 3 23 0.2004 3.2494
0 3 25 0.2814 -5.0311
0 3 27 -0.1020 0.9800
0 4 0 -151.8473 -6.9040
0 4 2 -85.2084 -5.4285
0 4 4 -0.6583 0.1625
0 4 6 -49.9556 2.7163
0 4 8 1.2744 2.4090
0 4 10 16.0945 0.9846
0 4 12 -2.8140 -0.5621
0 4 14 12.9861 -0.9216
0 4 16 -0.8070 -0.8620
0 4 18 10.0905 -0.0366
0 4 20 -3.8885 0.1023
0 4 22 0.2295 0.0572
0 4 24 -2.0504 0.0507
0 4 26 0.4738 0.0243
0 4 28 1.5377 0.4849
0 5 1 -1.8320 87.3505
0 5 3 -1.7158 79.6841
0 5 5 0.1446 46.3048
0 5 7 3.1048 -17.3832
0 5 9 3.9545 -14.3323
0 5 11 1.9419 3.3215
0 5 13 -0.3548 -6.9799
0 5 15 -1.7443 2.9936
0 5 17 -1.6334 7.9558
0 5 19 -0.5097 -0.9596
0 5 21 0.2006 -0.8608
0 5 23 0.4384 -0.8759
0 5 25 0.1353 1.9406
0 5 27 0.1850 -1.9925
0 6 0 56.6348 -3.3412
0 6 2 26.8533 -2.6086
0 6 4 38.6576 -0.4331
0 6 6 19.6890 1.4548
0 6 8 -34.1812 1.0414
0 6 10 -5.6915 -0.2663
0 6 12 3.4627 -0.3974
0 6 14 3.0835 -0.4626
0 6 16 -3.5470 -0.2494
0 6 18 13.5583 0.1384
0 6 20 5.0598 0.2379
0 6 22 -3.9057 0.1332
0 6 24 -0.4609 -0.2094
0 6 26 -0.6714 0.1207
0 6 28 -2.4715 -0.2999
0 7 1 -2.2514 -5.0616
0 7 3 -1.0711 -1.8730
0 7 5 0.5586 9.8919
0 7 7 1.4923 -1.6825
0 7 9 2.6028 12.6573
0 7 11 1.1748 -9.5044
0 7 13 -0.1962 -3.3734
0 7 15 -1.2672 4.9931
0 7 17 -0.9797 0.4224
0 7 19 -0.4876 1.1663
0 7 21 0.0890 -6.6779
0 7 23 0.4871 -3.2578
0 7 25 0.1484 5.2941
0 7 27 0.2786 3.0028
0 8 0 4.2429 -1.7641
0 8 2 25.7544 -1.0947
0 8 4 -9.4662 -0.4738
0 8 6 17.4524 0.8143
0 8 8 -13.6175 0.3549
0 8 10 -10.6003 -0.6034
0 8 12 0.0742 -0.3153
0 8 14 7.0589 -0.1961
0 8 16 -5.5361 0.1028
0 8 18 12.4814 0.1236
0 8 20 6.8673 0.2729
0 8 22 -5.8484 0.1075
0 8 24 -2.8622 -0.1694
0 8 26 7.9644 -0.1151
0 9 1 -2.0331 -2.2895
0 9 3 -1.0212 -20.1290
0 9 5 0.5582 16.1489
0 9 7 1.3789 24.3159
0 9 9 1.2490 1.8449
0 9 11 0.6727 -5.4506
0 9 13 -0.3195 1.8349
0 9 15 -0.7238 -15.1741
0 9 17 -0.5772 4.0337
0 9 19 -0.2492 -1.9118
0 9 21 -0.0761 -6.7610
0 9 23 0.2892 -5.0386
0 9 25 0.4243 3.0637
0 10 0 -13.4632 -0.6953
0 10 2 10.7074 -0.5662
0 10 4 -16.0827 -0.0234
0 10 6 61.7733 0.3038
0 10 8 -20.0224 -0.0358
0 10 10 -17.8460 -0.5297
0 10 12 9.3397 -0.3208
0 10 14 -9.2199 0.1268
0 10 16 -10.3822 0.1464
0 10 18 6.8476 0.2094
0 10 20 2.1274 0.1174
0 10 22 -4.0459 0.0496
0 10 24 -4.8251 0.0522
0 10 26 2.8286 -0.4895
0 11 1 -1.4892 5.3377
0 11 3 -0.8483 0.5388
0 11 5 0.2920 -25.4293
0 11 7 1.2927 -11.1978
0 11 9 0.7312 44.9638
0 11 11 0.1331 -5.9240
0 11 13 -0.4177 1.0307
0 11 15 -0.3179 -7.6247
0 11 17 -0.3335 6.4749
0 11 19 -0.0082 4.5041
0 11 21 -0.0829 -6.3963
0 11 23 0.0444 -3.3817
0 11 25 0.3775 1.9148
0 12 0 1.4424 0.0136
0 12 2 -0.1646 -0.3253
0 12 4 -0.1597 0.2424
0 12 6 0.1893 0.0720
0 12 8 1.7400 -0.2509
0 12 10 15.9142 -0.4610
0 12 12 -6.2097 -0.2083
0 12 14 -4.1197 0.2883
0 12 16 -6.3070 0.1984
0 12 18 6.6102 0.1884
0 12 20 0.9625 0.0489
0 12 22 -4.5798 -0.1280
0 12 24 -3.7149 0.2394
0 12 26 2.6027 0.0475
0 13 1 -0.7805 -0.2007
0 13 3 -0.5774 5.4874
0 13 5 0.1588 -11.5793
0 13 7 0.8119 -0.0560
0 13 9 0.6722 6.2634
0 13 11 -0.1204 16.3479
0 13 13 -0.4541 -5.2807
0 13 15 -0.2155 -4.8587
0 13 17 0.0174 4.7181
0 13 19 -0.1231 3.8243
0 13 21 0.2924 -3.1058
0 13 23 -0.3695 4.5718
0 13 25 0.5513 -4.7344
0 14 0 2.8921 0.1816
0 14 2 4.6573 -0.0593
0 14 4 3.0961 0.2133
0 14 6 -1.2278 -0.0015
0 14 8 1.1370 -0.3140
0 14 10 13.5441 -0.4233
0 14 12 7.9784 -0.1305
0 14 14 -8.1967 0.3559
0 14 16 -1.1500 0.3132
0 14 18 4.0372 0.0300
0 14 20 -0.0145 0.1022
0 14 22 0.9800 -0.3219
0 14 24 -0.0539 0.6252
0 15 1 -0.2379 -6.6114
0 15 3 -0.2507 1.5849
0 15 5 0.0951 -1.2080
0 15 7 0.3916 -8.2218
0 15 9 0.4727 0.1372
0 15 11 -0.0855 8.0718
0 15 13 -0.3585 -6.8022
0 15 15 -0.2550 -3.6668
0 15 17 0.1576 1.6602
0 15 19 0.0387 2.3785
0 15 21 -0.0020 -1.5650
0 15 23 0.3197 0.9739
0 16 0 -10.8149 0.1167
0 16 2 5.0801 0.1829
0 16 4 9.9151 0.0351
0 16 6 -9.5085 -0.0262
0 16 8 -0.8621 -0.3141
0 16 10 6.8879 -0.3739
0 16 12 1.7127 -0.0835
0 16 14 -2.1333 0.2908
0 16 16 -4.1813 0.4818
0 16 18 -1.0464 -0.0545
0 16 20 5.7346 -0.1826
0 16 22 -4.5281 0.4095
0 17 1 -0.0576 -0.4055
0 17 3 0.0105 -10.7491
0 17 5 0.0710 -2.6903
0 17 7 0.2210 3.5231
0 17 9 0.1168 -1.1042
0 17 11 -0.0538 1.9498
0 17 13 -0.1395 1.3345
0 17 15 -0.3341 -6.3387
0 17 17 0.2169 5.8439
0 17 19 0.1789 -2.3192
0 17 21 -0.2832 -1.1534
0 18 0 -3.3097 0.0757
0 18 2 -7.1560 0.3265
0 18 4 4.1249 -0.1050
0 18 6 -4.5980 -0.0785
0 18 8 -5.6956 -0.3308
0 18 10 5.6238 -0.2764
0 18 12 0.0790 -0.0540
0 18 14 3.6416 0.2195
0 18 16 -8.9686 0.4934
0 18 18 -2.3445 0.0893
0 18 20 2.0615 -0.4428
0 19 1 -0.1143 0.1487
0 19 3 0.0996 0.0924
0 19 5 0.1046 -10.7507
0 19 7 0.1614 15.1290
0 19 9 -0.1879 5.7280
0 19 11 -0.0759 -3.1950
0 19 13 -0.0940 -1.3327
0 19 15 -0.1587 0.9176
0 19 17 -0.0421 11.5684
0 19 19 0.6091 -1.9330
0 20 0 -2.8247 0.1876
0 20 2 -5.3668 0.2437
0 20 4 2.3954 0.0004
0 20 6 -0.7741 -0.2442
0 20 8 1.1956 -0.3540
0 20 10 6.2293 -0.1435
0 20 12 2.1539 -0.0224
0 20 14 -1.5720 0.2354
0 20 16 5.9093 0.2585
0 20 18 -0.9824 0.7067
0 21 1 -0.1092 3.7874
0 21 3 0.0224 0.4650
0 21 5 0.1580 -3.4892
0 21 7 0.0294 8.3715
0 21 9 -0.2626 5.7405
0 21 11 -0.2294 -3.8106
0 21 13 -0.0675 -3.1311
0 21 15 -0.0878 4.0689
0 21 17 -0.2283 -2.1530
0 22 0 -0.0504 0.2473
0 22 2 1.1993 0.1845
0 22 4 7.1947 0.1074
0 22 6 9.6968 -0.3518
0 22 8 -1.7556 -0.3466
0 22 10 8.1271 -0.1216
0 22 12 2.2484 0.2613
0 22 14 2.7095 -0.0929
0 22 16 0.8880 0.7756
0 23 1 -0.0157 -1.8449
0 23 3 -0.0045 -9.2521
0 23 5 0.0663 -14.1054
0 23 7 -0.0966 -1.0142
0 23 9 -0.2951 3.6680
0 23 11 -0.3511 -3.8307
0 23 13 -0.0270 -1.9491
0 23 15 -0.3139 -1.8222
0 24 0 -4.6069 0.2392
0 24 2 -8.7531 0.2841
0 24 4 -10.5287 0.0115
0 24 6 -4.1887 -0.2614
0 24 8 4.9971 -0.3808
0 24 10 1.5706 0.1013
0 24 12 8.6381 0.2191
0 24 14 2.9689 0.2713
0 25 1 0.0536 2.2821
0 25 3 0.0376 7.8033
0 25 5 -0.0612 4.6436
0 25 7 -0.2820 -5.4903
0 25 9 -0.4178 -6.0212
0 25 11 -0.3705 -6.2178
0 25 13 -0.1148 -7.5101
0 26 0 1.3661 0.3571
0 26 2 -1.4061 0.3299
0 26 4 1.4409 0.0305
0 26 6 -3.2930 -0.3791
0 26 8 -2.8682 0.0547
0 26 10 -10.1809 0.6356
0 27 1 -0.0028 -1.3818
0 27 3 0.0970 5.7781
0 27 5 -0.2316 3.8770
0 27 7 -0.8149 -1.3711
0 28 2 6.0109 0.6586
0 28 4 1.3636 0.0781
1 0 1 -8.9850 56.1103
1 0 3 -3.1052 -36.9324
1 0 5 -0.6950 29.8512
1 0 7 13.1838 -36.2263
1 0 9 16.5338 -2.0388
1 0 11 10.1811 -6.5050
1 0 13 -2.2901 -9.7536
1 0 15 -10.4146 1.3497
1 0 17 -10.7814 -0.9090
1 0 19 -4.5837 -4.7066
1 0 21 1.4564 14.6447
1 0 23 4.4815 0.1765
1 0 25 3.8694 0.4174
1 0 27 1.9550 4.7261
1 1 0 -4.8673 -9.7675
1 1 2 27.6808 -3.3127
1 1 4 -15.6403 36.1311
1 1 6 11.1258 -21.3734
1 1 8 -14.3933 -27.4666
1 1 10 -0.8941 -20.9071
1 1 12 -9.3582 -4.7348
1 1 14 -3.7928 7.6404
1 1 16 1.1710 14.3498
1 1 18 -1.6324 7.4793
1 1 20 5.7150 6.1764
1 1 22 5.9638 -3.5621
1 1 24 -3.2091 -3.1553
1 1 26 1.7264 1.2183
1 1 28 4.6279 -3.5586
1 2 1 46.4248 39.1110
1 2 3 -34.7306 -72.0057
1 2 5 -39.4360 25.4157
1 2 7 19.5001 -20.5879
1 2 9 -5.2005 -4.6064
1 2 11 -8.7768 -1.8819
1 2 13 -0.7185 6.1207
1 2 15 4.3356 1.1903
1 2 17 6.2255 6.6034
1 2 19 1.3947 -7.0508
1 2 21 3.5796 -0.1964
1 2 23 0.0404 0.5890
1 2 25 0.3107 3.7972
1 2 27 -1.4842 -2.8376
1 3 0 3.5277 -66.5936
1 3 2 -13.4540 -10.6042
1 3 4 -80.5465 86.1826
1 3 6 34.1718 -16.3695
1 3 8 -25.3727 -12.3365
1 3 10 -1.8338 -9.0373
1 3 12 -11.5374 -7.2971
1 3 14 8.1144 6.6107
1 3 16 8.4696 -3.0365
1 3 18 7.7791 10.9183
1 3 20 -6.3855 0.6407
1 3 22 1.0982 -5.0651
1 3 24 5.1749 -2.2478
1 3 26 -2.0772 1.2930
1 3 28 4.6167 -2.4808
1 4 1 12.2420 30.6160
1 4 3 6.3541 32.0221
1 4 5 0.5664 31.4991
1 4 7 3.7549 -3.3489
1 4 9 4.3813 -3.9392
1 4 11 -10.3470 0.2565
1 4 13 -8.0917 10.5660
1 4 15 8.2272 -17.3137
1 4 17 8.3871 -6.9355
1 4 19 9.0405 -5.4857
1 4 21 -1.9080 5.3738
1 4 23 -0.8191 -4.4794
1 4 25 -3.0256 -0.2674
1 4 27 0.0355 -1.3074
1 5 0 11.2863 -30.5552
1 5 2 18.4147 -12.0429
1 5 4 10.0650 12.8868
1 5 6 4.6652 -7.5033
1 5 8 3.1970 3.5791
1 5 10 -12.1526 -13.9130
1 5 12 -4.8718 1.1597
1 5 14 -0.3214 3.3063
1 5 16 -16.5405 -23.8053
1 5 18 5.7665 1.8570
1 5 20 -7.5992 1.5540
1 5 22 1.0525 -3.4158
1 5 24 0.3553 -0.3051
1 5 26 -1.5688 0.2154
1 5 28 0.9434 -2.2408
1 6 1 2.4033 -13.9887
1 6 3 -12.0231 -6.8541
1 6 5 -4.1261 20.3220
1 6 7 6.7827 2.6591
1 6 9 3.2729 -3.4167
1 6 11 -7.4261 3.7707
1 6 13 -3.7556 3.3293
1 6 15 -10.1774 9.2106
1 6 17 -17.2102 1.8196
1 6 19 9.3985 -2.1136
1 6 21 0.5691 4.6535
1 6 23 -3.0792 -3.2448
1 6 25 -2.7966 0.0022
1 6 27 -1.7206 -0.1786
1 7 0 -19.5017 1.3999
1 7 2 -15.1655 -2.3120
1 7 4 20.9605 -4.8242
1 7 6 11.4205 -5.6603
1 7 8 -2.8122 -12.2303
1 7 10 7.4194 3.3088
1 7 12 -17.2472 -0.3577
1 7 14 4.1449 6.0053
1 7 16 3.2752 0.7400
1 7 18 4.1386 10.0024
1 7 20 -5.0381 -1.5202
1 7 22 -2.8720 -0.3714
1 7 24 2.8243 0.9683
1 7 26 -4.4260 2.7179
1 7 28 1.3484 -3.8431
1 8 1 9.7241 7.3513
1 8 3 -15.4079 -4.2312
1 8 5 1.9775 -7.2898
1 8 7 -29.7382 3.7238
1 8 9 5.3833 0.3275
1 8 11 5.4051 -5.4480
1 8 13 1.5426 17.7353
1 8 15 -2.2829 -3.0932
1 8 17 -6.6342 1.3696
1 8 19 8.4668 0.1655
1 8 21 -0.5451 4.9882
1 8 23 -0.8176 -0.6461
1 8 25 0.8720 -0.5116
1 8 27 0.0446 3.6431
1 9 0 14.2217 3.5070
1 9 2 -4.8752 -1.9033
1 9 4 -1.0543 -11.0410
1 9 6 2.4534 15.2195
1 9 8 9.2532 -4.4971
1 9 10 -3.3877 1.3145
1 9 12 -3.5693 -10.4966
1 9 14 1.1016 -0.8314
1 9 16 4.7510 2.2606
1 9 18 4.8124 2.8575
1 9 20 -4.0027 3.0936
1 9 22 0.0854 -0.0184
1 9 24 2.1462 1.1654
1 9 26 -3.3189 -1.4489
1 10 1 9.2758 -5.3723
1 10 3 -14.4474 1.9196
1 10 5 1.1975 -2.4535
1 10 7 -20.1215 -1.3349
1 10 9 -0.0473 -2.7686
1 10 11 -0.2631 5.3962
1 10 13 -12.5490 10.6689
1 10 15 6.6503 -2.5802
1 10 17 -9.0642 0.9464
1 10 19 7.7060 2.8745
1 10 21 -0.4549 4.5729
1 10 23 1.0451 -0.9126
1 10 25 3.5833 3.6331
1 10 27 -2.9011 1.3655
1 11 0 6.0686 -8.5938
1 11 2 0.2071 0.5192
1 11 4 -4.9131 1.4372
1 11 6 -2.9890 11.9459
1 11 8 9.8408 1.0987
1 11 10 -0.1734 0.7661
1 11 12 8.7263 7.0309
1 11 14 3.5572 2.0495
1 11 16 4.2080 -4.3989
1 11 18 8.2412 3.8430
1 11 20 2.9318 2.6322
1 11 22 3.2611 5.4328
1 11 24 2.2732 -2.6642
1 11 26 3.3493 -2.5779
1 12 1 -3.6557 -3.2811
1 12 3 1.6372 -0.3580
1 12 5 -8.7469 3.9555
1 12 7 -3.5223 1.1501
1 12 9 -6.8375 -7.9544
1 12 11 5.5352 -1.3268
1 12 13 -0.7200 0.8228
1 12 15 -1.4536 -5.6536
1 12 17 -5.5383 -1.0957
1 12 19 3.4887 -7.6172
1 12 21 10.3955 -3.0421
1 12 23 5.2470 2.7739
1 12 25 -1.5865 -4.1622
1 13 0 -13.2566 -0.9822
1 13 2 0.2370 -1.1011
1 13 4 -1.4243 11.4607
1 13 6 1.8521 6.3949
1 13 8 4.7535 6.4684
1 13 10 2.5105 1.8396
1 13 12 0.4412 -8.3295
1 13 14 8.5128 15.7602
1 13 16 -0.3663 -1.1732
1 13 18 1.9979 2.9155
1 13 20 -9.5229 -3.5339
1 13 22 9.5712 -11.3935
1 13 24 -0.2731 1.1854
1 14 1 -1.1703 2.2498
1 14 3 0.8719 -0.7356
1 14 5 0.7803 0.7681
1 14 7 -2.4724 -1.6112
1 14 9 4.8111 -6.8308
1 14 11 -13.7193 -7.9638
1 14 13 8.4259 -8.8527
1 14 15 4.7480 -6.1789
1 14 17 1.4609 -3.0518
1 14 19 3.0448 0.6700
1 14 21 -3.8696 0.1670
1 14 23 -3.4064 -6.2983
1 15 0 9.1142 6.0946
1 15 2 -8.0531 4.5811
1 15 4 2.1904 7.7529
1 15 6 -0.8234 2.3261
1 15 8 0.3984 4.2655
1 15 10 0.6226 8.0827
1 15 12 -13.1436 -2.7306
1 15 14 -7.4392 5.9815
1 15 16 5.0385 3.8050
1 15 18 -7.2208 -11.1894
1 15 20 2.8859 -1.2561
1 15 22 -0.4779 -0.4769
1 15 24 -2.4470 1.6310
1 16 1 17.5229 -0.2847
1 16 3 3.4289 0.2221
1 16 5 3.3073 4.4394
1 16 7 -1.3785 -5.4818
1 16 9 3.4444 -2.1649
1 16 11 2.5039 -5.3601
1 16 13 4.6527 9.0659
1 16 15 5.0376 -3.3490
1 16 17 4.5605 0.2877
1 16 19 -11.7055 -0.7827
1 16 21 1.6539 -2.5121
1 16 23 -1.8331 0.9720
1 17 0 2.1288 -6.7354
1 17 2 -4.3792 -16.8485
1 17 4 0.4064 4.7131
1 17 6 -0.4505 0.2794
1 17 8 -2.6818 5.0667
1 17 10 -1.8578 1.1038
1 17 12 -1.8258 -11.4825
1 17 14 -3.8087 9.4985
1 17 16 2.3280 -6.7412
1 17 18 1.3485 -3.7867
1 17 20 -4.9388 3.9660
1 17 22 0.2045 -2.6357
1 18 1 0.7487 -1.7326
1 18 3 -8.7277 0.3499
1 18 5 6.9872 6.4781
1 18 7 -1.1952 -1.8960
1 18 9 -1.2297 -3.8041
1 18 11 0.1344 -1.0783
1 18 13 4.4545 -2.0695
1 18 15 2.4767 4.1021
1 18 17 -5.2767 -4.9495
1 18 19 -3.0478 -2.0811
1 18 21 0.0591 4.4720
1 19 0 -5.1583 -3.2693
1 19 2 -2.8602 -3.7761
1 19 4 1.3579 6.1194
1 19 6 0.7572 -3.5614
1 19 8 -1.2225 6.3435
1 19 10 -6.7692 -0.1640
1 19 12 -2.5096 -4.6480
1 19 14 -3.8409 -0.4183
1 19 16 0.5234 -0.3884
1 19 18 -3.9718 2.1565
1 19 20 3.2857 1.0330
1 20 1 -2.2403 4.5912
1 20 3 2.5317 2.2845
1 20 5 3.6351 2.2728
1 20 7 -1.4853 -0.1971
1 20 9 -1.3861 1.0183
1 20 11 1.2527 4.0294
1 20 13 3.3354 -2.1360
1 20 15 -2.8332 1.6463
1 20 17 -0.0325 4.1898
1 20 19 -1.3321 -5.0086
1 21 0 2.0918 -0.0546
1 21 2 4.2606 -3.1078
1 21 4 0.4222 0.1591
1 21 6 0.3455 1.3698
1 21 8 3.3278 -0.1218
1 21 10 -0.8728 3.0011
1 21 12 -4.1461 -2.9653
1 21 14 -4.0074 -2.6822
1 21 16 1.2728 2.9173
1 21 18 -0.0782 0.8312
1 22 1 1.4537 -3.1947
1 22 3 1.5418 1.2253
1 22 5 1.4045 1.1036
1 22 7 -0.0140 -5.6172
1 22 9 -1.9894 0.9759
1 22 11 4.3326 0.9075
1 22 13 -5.2555 4.7713
1 22 15 0.7811 2.0471
1 22 17 4.8062 -0.2815
1 23 0 1.1514 -3.0003
1 23 2 -0.5816 -6.0906
1 23 4 0.2853 1.1741
1 23 6 -0.9911 2.1365
1 23 8 -3.6422 -2.9018
1 23 10 1.8770 3.3684
1 23 12 -2.7938 1.2933
1 23 14 2.6823 3.9311
1 23 16 -1.6776 -5.9126
1 24 1 -2.6075 1.1348
1 24 3 1.2645 2.1423
1 24 5 -0.6640 1.1333
1 24 7 2.9445 -1.5784
1 24 9 -0.1718 4.8432
1 24 11 7.2165 -3.1267
1 24 13 -0.3089 4.0506
1 24 15 0.8638 1.0178
1 25 0 -0.3638 1.5163
1 25 2 3.2021 -2.4867
1 25 4 0.6085 -2.2269
1 25 6 0.8301 0.4835
1 25 8 0.7367 -4.6874
1 25 10 -0.4872 -6.2059
1 25 12 -0.7523 -0.3511
1 26 1 0.1458 -2.3962
1 26 3 0.6571 -3.2341
1 26 5 -5.2465 1.8939
1 26 7 1.9318 -2.8285
1 26 9 -8.5127 2.0549
1 26 11 -0.4981 -0.8831
1 27 2 -4.6592 -2.6714
1 27 4 -1.2127 -2.2058
1 27 6 1.3253 0.7884
1 28 1 -0.7891 -0.3683
1 28 3 -5.0664 6.6267
2 0 0 23.8452 -1.0269
2 0 2 8.7969 2.4567
2 0 4 -49.1194 1.1652
2 0 6 -16.3059 -2.1677
2 0 8 -18.3434 -3.7641
2 0 10 34.8698 -6.5258
2 0 12 -13.9140 -4.3268
2 0 14 1.5212 -1.0764
2 0 16 -6.0945 5.5220
2 0 18 -3.0716 7.4358
2 0 20 3.8700 4.3639
2 0 22 -0.8110 -1.1645
2 0 24 3.4262 -4.5415
2 0 26 -1.7033 -4.0467
2 0 28 6.0331 -1.0061
2 1 1 93.4506 -17.8390
2 1 3 -29.9824 4.8008
2 1 5 25.9526 -6.9832
2 1 7 -3.7669 39.6724
2 1 9 2.4728 -2.8853
2 1 11 -8.1501 -17.2558
2 1 13 -11.9277 5.8498
2 1 15 -2.6807 1.6987
2 1 17 12.7861 2.6147
2 1 19 11.6509 -1.5505
2 1 21 -4.9107 1.1375
2 1 23 -2.1123 1.4379
2 1 25 -2.3338 0.7604
2 1 27 -3.1482 -2.0205
2 2 0 -47.4554 4.4591
2 2 2 -31.1589 -98.3643
2 2 4 -29.7967 2.1070
2 2 6 8.1381 9.6967
2 2 8 19.3244 -6.6316
2 2 10 -11.2111 1.1864
2 2 12 -5.3253 11.2184
2 2 14 2.3741 2.3370
2 2 16 3.9833 -1.5756
2 2 18 -5.8259 0.4771
2 2 20 6.9057 -4.7445
2 2 22 3.3550 -4.0038
2 2 24 7.1265 4.9643
2 2 26 -1.8412 -1.8020
2 2 28 3.4736 3.5342
2 3 1 -39.5397 85.0747
2 3 3 -59.0720 24.5678
2 3 5 -4.6082 -27.2876
2 3 7 23.9884 22.7641
2 3 9 -7.8073 4.5498
2 3 11 11.4110 4.5283
2 3 13 -5.6501 -5.3535
2 3 15 2.4067 2.6711
2 3 17 4.1906 -2.7304
2 3 19 7.3368 1.4622
2 3 21 -9.6240 -12.8991
2 3 23 0.7537 -0.3173
2 3 25 -0.3183 -4.7529
2 3 27 -1.0369 -1.4674
2 4 0 84.4700 -3.8269
2 4 2 33.5335 0.2431
2 4 4 -12.6053 27.9132
2 4 6 6.9028 1.7328
2 4 8 4.6454 -9.4247
2 4 10 -1.0879 -0.0080
2 4 12 7.9259 -3.5934
2 4 14 -4.8026 -1.5660
2 4 16 3.6348 -0.4014
2 4 18 -1.9679 -0.6495
2 4 20 -7.6117 -4.7554
2 4 22 -3.3685 -2.0771
2 4 24 2.2898 4.7546
2 4 26 -1.5936 -1.7388
2 4 28 1.7316 -0.5334
2 5 1 -15.1415 -6.9254
2 5 3 8.8755 -3.3077
2 5 5 -18.8313 -23.6624
2 5 7 21.0222 16.6110
2 5 9 3.4524 13.7284
2 5 11 -5.9511 -5.2463
2 5 13 -4.1996 -2.7932
2 5 15 -0.8630 3.3054
2 5 17 4.5700 -9.9216
2 5 19 -5.5773 6.7193
2 5 21 -4.4790 -1.1671
2 5 23 -1.3333 0.6095
2 5 25 3.0129 -2.6065
2 5 27 -4.0516 -3.6544
2 6 0 3.2376 -1.1011
2 6 2 7.2963 6.7443
2 6 4 -12.1557 -2.2113
2 6 6 12.1561 7.3801
2 6 8 12.0978 -27.3046
2 6 10 -2.2699 14.6915
2 6 12 7.2960 -9.0675
2 6 18 -6.4594 0.5596
2 6 20 0.2045 5.7460
2 6 22 -3.0228 -0.2545
2 6 24 0.0594 2.5616
2 6 26 -0.7607 -3.9366
2 6 28 -1.6387 6.3835
2 7 1 14.8358 5.8246
2 7 3 7.1105 8.3824
2 7 5 -18.9101 -15.1997
2 7 7 -6.3976 -11.0148
2 7 9 4.3150 0.8754
2 7 11 -10.5649 1.5517
2 7 19 1.1710 2.8455
2 7 21 1.6992 -0.6702
2 7 23 2.5648 2.9370
2 7 25 -2.3876 -0.0330
2 7 27 3.0574 -2.8100
2 8 0 0.3489 11.8139
2 8 2 11.8577 1.7262
2 8 4 4.4286 -14.2734
2 8 6 -1.4145 14.9965
2 8 8 -8.8706 -9.6772
2 8 10 -0.7517 23.3864
2 8 18 -6.1717 -2.5083
2 8 20 -0.2914 5.7101
2 8 22 -4.7771 -0.7341
2 8 24 1.6204 -4.0218
2 8 26 -0.0626 -3.8705
2 9 1 13.2724 1.6025
2 9 3 -3.4140 -3.5090
2 9 5 -17.6973 -10.7448
2 9 7 -2.2218 -2.3607
2 9 9 7.3971 3.5680
2 9 11 9.3310 -11.3750
2 9 19 -2.3118 -1.3272
2 9 21 6.2606 5.5113
2 9 23 -3.3571 4.8793
2 9 25 -8.4780 1.6240
2 9 27 -2.1322 -3.6574
2 10 0 15.7779 -14.2304
2 10 2 -6.0714 5.3719
2 10 4 -3.6537 0.7085
2 10 6 -0.5021 3.5006
2 10 8 -0.8545 8.1910
2 10 10 -14.3862 0.2471
2 10 18 -1.0689 -0.2120
2 10 20 0.8342 1.7655
2 10 22 1.2154 6.0970
2 10 24 3.6309 0.8063
2 10 26 -0.8537 3.2238
2 11 1 -15.0548 0.1621
2 11 3 4.7428 5.7210
2 11 5 -15.9913 0.3901
2 11 7 7.1415 -7.6115
2 11 9 5.6327 10.0641
2 11 11 -2.0428 7.1240
2 11 19 -1.5850 1.1168
2 11 21 5.5359 -1.0073
2 11 23 4.8750 3.5040
2 11 25 -4.3804 0.7079
2 12 0 10.7959 5.1706
2 12 2 4.0613 6.0565
2 12 4 -6.5644 13.0547
2 12 6 1.1014 4.9902
2 12 8 7.2123 -2.6524
2 12 10 0.1698 8.2962
2 12 18 -0.6515 -0.7232
2 12 20 2.6365 -0.8681
2 12 22 -1.5236 4.1091
2 12 24 2.0494 -1.8285
2 13 1 1.0903 -3.0897
2 13 3 -0.5752 -2.0927
2 13 5 8.9064 10.0269
2 13 7 1.2400 -11.2400
2 13 9 10.2406 -6.8962
2 13 19 -1.4701 -2.8807
2 13 21 1.6255 -2.6433
2 13 23 3.4437 5.0696
2 13 25 -2.3095 -0.3504
2 14 0 -1.4721 7.6011
2 14 2 1.8505 3.2256
2 14 4 -2.2851 4.5463
2 14 8 -4.7145 -12.0567
2 14 10 -2.2187 -4.7226
2 14 18 2.6806 2.0973
2 14 20 -1.2132 -0.2104
2 14 22 1.9273 2.2066
2 14 24 -1.5091 3.3855
2 15 1 9.2909 8.1950
2 15 3 1.0778 -4.5807
2 15 5 4.2941 1.2262
2 15 7 0.3287 2.6581
2 15 9 -4.6014 -4.9373
2 15 17 -1.0356 0.7086
2 15 19 3.2352 -6.1287
2 15 21 -0.6728 -0.6537
2 15 23 4.3118 0.5895
2 16 0 14.9558 -10.9355
2 16 2 0.8809 2.1234
2 16 4 -0.1158 0.5095
2 16 6 -0.9051 -2.4007
2 16 8 1.7173 -2.6399
2 16 10 -4.6131 -3.7445
2 16 12 7.7708 -6.7222
2 16 14 -0.5564 1.9505
2 16 16 1.1937 -5.2657
2 16 18 -2.5361 2.8323
2 16 20 2.0859 -0.3728
2 16 22 -0.4894 -0.9713
2 17 1 -9.7827 -1.5659
2 17 3 11.3388 -0.5280
2 17 5 -7.3269 -2.6327
2 17 7 -0.8396 5.6019
2 17 9 -0.5731 -1.5883
2 17 11 -7.0200 -4.5381
2 17 13 4.4911 4.8347
2 17 15 -1.0997 -0.8078
2 17 17 0.4920 -1.2116
2 17 19 3.7392 -1.6346
2 17 21 0.1309 -4.9658
2 18 0 3.8720 3.7800
2 18 2 0.2130 5.9867
2 18 4 -1.0875 -1.5336
2 18 6 4.4229 1.4520
2 18 8 6.1097 3.8460
2 18 10 -1.9934 0.5122
2 18 12 -0.5954 -3.6490
2 18 14 3.3413 0.1204
2 18 16 2.1653 -7.8200
2 18 18 -5.9095 0.4936
2 18 20 -1.0156 0.1631
2 19 1 2.5503 1.7052
2 19 3 6.1110 1.5339
2 19 5 -1.0120 -4.4604
2 19 7 5.0833 -9.0475
2 19 9 -0.1285 -3.4239
2 19 11 -3.1781 -1.5738
2 19 13 1.4445 1.4280
2 19 15 -5.1827 -1.5987
2 19 17 -3.6190 -0.4057
2 19 19 4.1965 4.8327
2 20 0 5.3800 4.4686
2 20 2 5.9017 0.3374
2 20 4 -5.2564 -0.8844
2 20 6 -4.6573 -6.9184
2 20 8 -1.9262 4.5694
2 20 10 -2.4771 0.9825
2 20 12 -5.0578 1.3291
2 20 14 2.2942 -0.9955
2 20 16 2.1715 1.2096
2 20 18 1.3806 -1.0377
2 21 1 5.0535 -3.7108
2 21 3 -1.3120 2.1217
2 21 5 -0.0813 2.3811
2 21 7 6.1643 -1.3928
2 21 9 -2.7659 -3.8823
2 21 11 6.5444 9.1885
2 21 13 -0.1409 -2.0373
2 21 15 -2.5014 0.9323
2 21 17 0.8203 -3.8669
2 22 0 3.8568 -5.6028
2 22 2 2.0126 1.4741
2 22 4 -0.3460 -1.2484
2 22 6 -1.3308 -5.7156
2 22 8 -0.6332 0.1507
2 22 10 0.1079 -2.2078
2 22 12 2.2556 -3.0686
2 22 14 -0.8740 1.0441
2 22 16 1.5729 -0.1838
2 23 1 -3.0566 -3.1939
2 23 3 0.5587 2.2018
2 23 5 -0.9304 -3.1444
2 23 7 3.2541 2.7899
2 23 9 -1.5538 -1.2241
2 23 11 -1.6222 1.2614
2 23 13 0.5047 -2.7453
2 24 0 1.9382 1.2491
2 24 2 0.0621 0.0032
2 24 6 -3.8043 -2.1768
2 24 8 7.1043 -2.5473
2 24 10 -1.1650 -1.2449
2 24 12 -0.0566 1.2797
2 25 1 -0.2137 -0.2126
2 25 5 -1.0137 -2.0100
2 25 7 -1.6175 1.0458
2 25 9 2.3922 -4.7514
2 25 11 -3.2508 -3.1656
2 26 0 -0.4970 2.5013
2 26 4 -1.7206 0.7033
2 26 6 1.1909 -0.1393
2 26 8 3.1918 -1.8663
2 26 10 -8.8632 -3.3227
2 27 1 1.4792 3.9555
2 27 3 -3.6464 0.7195
2 27 5 -0.8446 -2.1118
2 27 7 -1.4687 -6.8475
3 0 1 -5.2968 14.1919
3 0 3 -7.3811 -168.4446
3 0 5 -6.8363 -51.7271
3 0 7 -2.1120 -6.3041
3 0 9 2.7290 -4.2089
3 0 11 3.2852 0.0268
3 0 13 0.4081 -12.3421
3 0 15 -0.6295 11.9868
3 0 17 -0.5288 -0.0239
3 0 19 3.0455 -1.6204
3 0 21 3.9548 4.9803
3 0 23 3.0675 3.8064
3 0 25 -0.4302 2.1428
3 0 27 -2.5475 -1.8262
3 1 0 14.0990 -171.1833
3 1 2 -33.3826 109.1641
3 1 4 -67.5551 -173.8193
3 1 6 -23.1720 45.9294
3 1 8 -7.4848 10.9005
3 1 10 6.7339 -13.8994
3 1 12 -6.4723 1.3895
3 1 14 3.1507 0.9258
3 1 16 -0.0205 -6.4357
3 1 18 -3.5321 6.0493
3 1 20 2.9015 -0.0917
3 1 22 3.9616 -3.8939
3 1 24 1.1153 -0.9189
3 1 26 -0.2715 1.5992
3 1 28 -1.3329 -0.2511
3 2 1 -50.1837 25.9454
3 2 3 -59.2346 -59.5074
3 2 5 -28.1857 -15.5595
3 2 7 -10.0622 8.3504
3 2 9 -0.3361 1.3785
3 2 11 1.0751 -5.4857
3 2 13 0.9266 1.5343
3 2 15 -2.8745 -3.4707
3 2 17 -2.5009 6.1410
3 2 21 -7.5486 4.5543
3 2 23 -3.0935 -0.7100
3 2 25 3.0850 4.0171
3 2 27 -2.6855 0.1201
3 3 0 -26.9268 4.7188
3 3 2 14.2162 69.5390
3 3 4 -89.3048 -11.0744
3 3 6 -49.8541 20.4025
3 3 8 4.3958 24.7104
3 3 10 -1.1982 -9.2490
3 3 12 8.4944 -2.8723
3 3 14 -0.8076 2.6154
3 3 16 -8.6509 1.0723
3 3 24 -4.7047 -3.9851
3 3 26 4.6624 -1.3323
3 3 28 -0.0783 0.5811
3 4 1 -3.0011 -16.5017
3 4 3 9.6106 28.7760
3 4 5 0.7744 49.2745
3 4 7 -0.1560 5.8780
3 4 9 8.6364 11.2262
3 4 11 -4.6370 -9.4727
3 4 13 -0.5738 -5.1293
3 4 15 -0.9159 7.9956
3 4 17 0.5012 -1.2066
3 4 19 4.5058 -1.8899
3 4 25 -7.3997 8.2073
3 4 27 -2.7053 -4.9150
3 5 0 21.7988 49.5510
3 5 2 -3.6403 -20.7917
3 5 4 39.4999 22.3907
3 5 6 -38.4706 21.2533
3 5 8 -4.9507 -6.9456
3 5 10 3.3803 9.3860
3 5 12 6.1475 -7.5452
3 5 14 3.1344 10.0926
3 5 16 -6.8750 -0.9011
3 5 20 -5.3197 -4.3028
3 5 26 3.2284 8.5626
3 6 1 12.1009 -9.5291
3 6 3 -6.8675 9.4512
3 6 5 46.3584 -17.3280
3 6 7 5.4785 42.2748
3 6 9 8.6081 4.1235
3 6 11 0.8768 -9.4796
3 6 13 0.2628 -5.5733
3 6 15 4.1544 0.3471
3 6 17 -1.0206 7.4332
3 6 21 0.2860 0.2505
3 6 23 -1.3126 -4.5759
3 6 25 1.7451 -2.0061
3 6 27 3.2769 -2.2202
3 7 0 -0.5852 -39.8857
3 7 2 18.8740 7.4929
3 7 4 -8.4898 -15.3425
3 7 6 2.7025 -11.6344
3 7 8 -3.6270 -15.6096
3 7 10 -8.9564 -5.8126
3 7 12 6.4402 -0.8055
3 7 14 -5.0165 0.1878
3 7 16 -0.0776 3.7012
3 7 20 -12.7215 -9.0483
3 7 22 5.4208 3.2764
3 7 24 -1.8539 4.5810
3 7 26 2.2131 0.5593
3 8 1 -26.2934 -22.9165
3 8 3 3.2144 4.1104
3 8 5 -0.9022 -4.4818
3 8 7 -2.3249 17.1851
3 8 9 -3.5080 17.0211
3 8 11 -5.8014 0.6591
3 8 13 -0.3862 -1.4320
3 8 15 1.5693 1.3279
3 8 17 -2.8409 2.4438
3 8 21 0.2273 6.1332
3 8 23 -0.0013 -1.8322
3 8 25 5.2207 -3.9550
3 8 27 1.5102 -1.2630
3 9 0 -10.1032 7.0786
3 9 2 -8.2496 13.2776
3 9 4 -6.6399 -15.5187
3 9 6 19.2720 6.4007
3 9 8 -3.7292 -6.6515
3 9 10 4.6128 -6.5386
3 9 12 6.0161 4.5639
3 9 14 -2.7497 1.4959
3 9 16 1.6937 -0.5764
3 9 20 -0.5530 -5.8531
3 9 22 2.6124 0.5405
3 9 24 -2.4860 1.6575
3 9 26 1.7035 -2.9535
3 10 1 -2.1932 15.1405
3 10 3 -11.0646 1.8641
3 10 5 -3.6262 -7.8974
3 10 7 4.9189 6.8966
3 10 9 -6.4036 5.0645
3 10 11 -6.2525 -0.4670
3 10 13 1.1577 0.0165
3 10 15 0.0047 0.1142
3 10 17 -1.9392 3.3618
3 10 19 -0.7768 2.6357
3 10 21 -0.4290 -0.3290
3 10 23 -1.4910 4.7858
3 10 25 2.7989 -5.9421
3 11 0 8.9506 10.3585
3 11 2 -2.8792 7.7988
3 11 4 -3.8690 -0.7918
3 11 6 4.0474 2.4091
3 11 10 -2.9048 4.3609
3 11 12 4.9062 2.0142
3 11 14 -2.5208 0.3179
3 11 16 1.1462 -3.0958
3 11 20 1.2185 -6.3050
3 11 22 -1.2385 0.7357
3 11 24 2.1068 -1.9449
3 12 1 1.4721 0.3313
3 12 3 -1.6139 8.8083
3 12 5 -5.3783 -0.1935
3 12 7 5.6921 0.1812
3 12 9 6.0518 2.9615
3 12 11 6.3883 -0.7456
3 12 13 -6.7355 -1.1448
3 12 15 -1.2565 5.5992
3 12 17 1.2928 -0.8968
3 12 19 -2.2368 -2.1348
3 12 21 0.9457 2.6108
3 12 23 -2.5522 -0.3801
3 12 25 -2.4543 0.9497
3 13 0 -1.9839 4.7603
3 13 2 1.4752 4.8492
3 13 4 12.3894 -2.5264
3 13 6 -6.5929 3.7686
3 13 8 8.7014 -9.5567
3 13 10 -3.6733 -6.7537
3 13 12 -2.1836 -2.7754
3 13 14 1.8971 1.8823
3 13 16 3.3456 -2.5467
3 13 18 -1.5766 3.2527
3 13 20 2.4097 -2.0390
3 13 22 -0.9952 -3.2676
3 13 24 -0.6500 1.8951
3 14 1 -3.2740 -3.6846
3 14 3 0.5675 -2.6091
3 14 5 -2.5278 1.1707
3 14 7 -4.7989 -5.4639
3 14 9 -2.5688 7.2411
3 14 11 -2.7212 7.0234
3 14 13 -9.3968 -4.4979
3 14 15 -2.5357 2.6173
3 14 17 0.4350 0.2655
3 14 19 -1.3973 1.4610
3 14 21 -2.8593 -1.3447
3 14 23 -1.4081 0.5941
3 15 0 0.3154 10.7640
3 15 2 -0.9584 4.8469
3 15 4 2.5135 -1.3536
3 15 6 0.0294 5.2069
3 15 8 -2.3087 1.4736
3 15 10 9.2949 -0.0965
3 15 12 1.1728 7.8376
3 15 14 -4.7065 -0.3572
3 15 16 3.8091 5.9701
3 15 18 3.2064 -1.7725
3 15 20 1.0549 2.8852
3 16 1 5.2697 -1.2880
3 16 3 -5.3882 -0.2222
3 16 5 3.6705 1.7698
3 16 7 1.3245 -3.8469
3 16 9 0.4508 6.1584
3 16 11 1.4303 3.3645
3 16 13 1.6006 -3.5661
3 16 15 -3.3704 1.3991
3 16 17 2.1703 0.6672
3 16 19 -2.6427 -2.4549
3 16 21 -0.6144 -0.2026
3 16 23 7.0005 -3.1579
3 17 0 -4.3024 2.1864
3 17 2 0.7551 2.7549
3 17 4 -0.5834 4.8972
3 17 6 7.6890 -2.0790
3 17 8 -2.4119 -3.6898
3 17 10 4.5811 5.1578
3 17 12 8.1720 -1.1268
3 17 14 -7.5289 -2.8951
3 17 16 3.4845 8.2755
3 17 18 0.8942 -0.0683
3 17 20 -0.7277 2.5194
3 18 1 0.6465 5.2967
3 18 3 -0.5603 -0.8303
3 18 5 2.5415 -1.0640
3 18 9 -0.7241 3.8044
3 18 11 0.2520 2.6678
3 18 13 0.5075 -4.0598
3 18 15 -1.0378 -1.4923
3 18 17 3.2492 3.5322
3 18 19 0.1783 -0.9881
3 19 0 4.7097 7.6812
3 19 2 -0.8164 1.4740
3 19 4 2.8810 3.5713
3 19 6 3.8240 -2.0315
3 19 8 -1.9743 1.4795
3 19 10 2.7275 1.7299
3 19 12 6.7761 5.2709
3 19 14 -5.9924 -5.6998
3 19 16 0.8714 6.4114
3 19 18 2.0235 1.0270
3 20 1 4.4794 -2.6496
3 20 3 -0.0330 -0.3176
3 20 5 1.4884 -5.8900
3 20 9 3.0886 -0.9911
3 20 11 1.7786 -0.6562
3 20 13 8.1870 0.1128
3 20 15 -1.7549 -1.5642
3 20 17 3.7776 4.0094
3 21 0 -2.1374 -0.5416
3 21 2 -3.4520 2.3757
3 21 4 -0.9994 -0.1537
3 21 6 2.5716 0.8996
3 21 8 -2.2285 0.5521
3 21 10 0.4124 -5.0221
3 21 12 -0.1031 -2.0722
3 21 14 2.6029 -10.6167
3 21 16 -0.5490 1.3749
3 21 18 4.7934 3.8704
3 22 1 4.7363 -1.3998
3 22 3 -3.4366 1.7339
3 22 5 5.0568 -2.2009
3 22 7 -0.4734 -0.8927
3 22 9 -0.0544 -0.3077
3 22 11 -2.3816 1.2476
3 22 13 -2.2934 -1.0437
3 22 15 -5.1172 -3.6353
3 22 17 2.2769 1.9277
3 23 0 -2.3149 -3.1923
3 23 2 -2.7655 1.3618
3 23 4 2.1405 0.9361
3 23 6 2.2218 1.0633
3 23 8 -0.2003 1.6867
3 23 10 0.7373 -1.3583
3 23 12 -1.8283 -1.9974
3 23 14 -0.5411 -0.2858
3 24 1 0.9012 3.9900
3 24 3 -3.2629 -1.0507
3 24 5 8.7566 -5.4690
3 24 7 2.5097 -4.0711
3 24 9 -1.9224 1.8694
3 24 11 -0.4365 0.7464
3 24 13 -3.8983 0.7462
3 25 0 2.4087 -0.9861
3 25 2 0.2582 2.6667
3 25 4 -1.6546 -0.4445
3 25 6 -7.4885 -4.9879
3 25 8 3.1433 -0.5776
3 25 10 0.3379 2.0568
3 26 1 0.0264 -0.8624
3 26 3 0.5822 1.0928
3 26 5 2.8727 2.1971
3 26 7 -0.9500 -4.1524
3 26 9 -1.2041 2.9557
3 27 0 -1.2593 2.3364
3 27 2 -0.0894 1.3016
3 27 4 2.1954 -1.2879
4 0 0 73.7236 -5.6261
4 0 2 -58.8831 -3.3074
4 0 4 29.4838 7.7844
4 0 6 17.6491 11.5105
4 0 8 -34.3226 5.6213
4 0 10 -5.4154 -4.7806
4 0 12 -0.7533 -12.8792
4 0 14 -3.1157 -11.0982
4 0 16 -6.7390 -5.2383
4 0 18 0.4899 2.1172
4 0 20 3.1725 5.5870
4 0 22 0.2951 6.0149
4 0 24 -2.5015 3.8346
4 0 26 -3.8495 1.1073
4 1 1 49.6143 -1.9424
4 1 3 -7.7111 -3.5976
4 1 5 26.1621 15.3992
4 1 7 -4.0634 -0.1750
4 1 9 -16.8088 8.5626
4 1 11 8.1710 1.6057
4 1 13 -6.3190 5.3130
4 1 15 -10.7088 -1.2070
4 1 17 0.4482 3.2218
4 1 19 3.7073 -3.0547
4 1 21 2.8893 2.5317
4 1 23 3.7454 -0.2669
4 1 25 3.6969 1.9144
4 1 27 0.4365 1.4530
4 2 0 59.9323 1.0834
4 2 2 -63.0846 26.6908
4 2 4 60.2166 -20.2516
4 2 6 6.5321 9.3976
4 2 8 -9.6615 -21.6360
4 2 10 -3.8344 22.1202
4 2 12 5.8754 -3.3033
4 2 14 -6.4148 -1.5413
4 2 16 -0.5638 -1.8934
4 2 18 1.0202 -1.8278
4 2 20 0.9141 1.5208
4 2 22 3.7357 -1.5532
4 2 24 -0.3985 -3.7557
4 2 26 -1.8500 -0.5254
4 3 1 -2.0905 20.8673
4 3 3 28.2178 -54.0602
4 3 5 18.1659 22.2617
4 3 7 -21.9452 -3.4771
4 3 9 -3.0080 -4.2587
4 3 11 8.8507 8.5066
4 3 13 -7.2200 4.3571
4 3 15 0.8511 5.5363
4 3 17 -6.4246 -6.5088
4 3 19 1.4428 3.5545
4 3 21 3.6180 -3.3272
4 3 23 -7.2795 -4.8038
4 3 27 0.3617 -0.1029
4 4 0 65.9375 10.9767
4 4 2 -55.1308 13.5759
4 4 4 20.0114 -12.7419
4 4 6 17.8239 -15.5938
4 4 8 -9.5716 8.7883
4 4 10 4.1292 -2.2212
4 4 12 0.9268 12.0597
4 4 14 2.9500 -3.5406
4 4 16 -1.2389 -2.7869
4 4 18 -0.3689 3.3390
4 4 20 0.7311 -3.3613
4 4 22 -5.9626 3.6666
4 4 24 0.9355 5.9578
4 5 1 -16.3346 13.0711
4 5 3 29.6342 -39.8124
4 5 5 13.1745 17.1781
4 5 7 -20.5282 -7.8209
4 5 9 11.7648 -10.0410
4 5 11 -10.4198 7.7413
4 5 13 9.4695 6.2336
4 5 15 -1.5864 -4.3518
4 5 17 -3.3540 -1.4948
4 5 19 -3.2539 5.1554
4 5 21 4.7902 0.2293
4 5 23 -0.0752 0.1282
4 5 25 -0.8747 0.6721
4 6 0 5.0219 -10.6773
4 6 2 -5.5181 -9.9609
4 6 4 -16.1244 -14.4608
4 6 6 12.5039 -17.7427
4 6 8 -6.8859 9.1301
4 6 10 0.0255 0.3544
4 6 12 3.3426 1.8709
4 6 14 -0.1308 -1.0421
4 6 16 -3.3036 -3.8991
4 6 18 4.1496 12.1035
4 6 20 1.4007 -4.9215
4 6 22 0.5198 -0.0773
4 6 24 -2.1668 4.8175
4 6 26 -5.1035 6.9967
4 7 1 4.7161 7.3837
4 7 3 -24.2269 -20.2356
4 7 5 -2.5749 9.0610
4 7 7 1.9786 10.1849
4 7 9 4.4970 -12.6404
4 7 11 -3.9476 10.9940
4 7 13 -4.4857 0.9078
4 7 15 3.0654 3.4897
4 7 17 3.0200 -4.2503
4 7 19 9.7626 3.7658
4 7 21 -5.5344 -5.3178
4 7 23 3.4263 2.5603
4 7 25 6.8123 7.3630
4 8 0 -6.0982 -2.7540
4 8 2 5.5335 -14.5609
4 8 4 -23.6577 21.6020
4 8 6 17.7696 -4.6267
4 8 8 5.8329 -11.7635
4 8 10 -0.9544 3.1710
4 8 12 4.7171 -4.5997
4 8 14 3.6805 10.0493
4 8 16 2.9740 -8.2605
4 8 18 -2.5423 -1.2533
4 8 20 -0.9013 -6.2812
4 8 22 3.4757 3.1207
4 8 24 2.4815 -7.5738
4 8 26 2.9904 1.4529
4 9 1 -7.2907 -4.7425
4 9 3 -12.9914 10.2938
4 9 5 5.0855 -8.7295
4 9 7 2.1132 -2.5636
4 9 9 -7.1207 -4.9099
4 9 11 -2.8218 1.4826
4 9 13 -1.2164 -2.1157
4 9 15 -0.6463 -4.4529
4 9 17 0.9764 0.2894
4 9 19 0.7732 4.5368
4 9 21 0.8154 -5.7145
4 9 23 -6.8643 -2.6896
4 9 25 -0.9752 1.3370
4 10 0 -2.6456 14.3241
4 10 2 -5.0622 2.7435
4 10 4 -2.6919 1.1887
4 10 6 -6.1878 12.4706
4 10 8 2.5045 -3.8296
4 10 10 3.0962 -0.0682
4 10 12 -0.5292 -4.8210
4 10 14 -0.8474 3.3799
4 10 16 0.6945 0.8857
4 10 18 0.4461 -0.6069
4 10 20 -0.8492 -4.1505
4 10 22 -1.3938 -1.4711
4 10 24 0.3564 4.2133
4 11 1 10.5669 3.2417
4 11 3 -6.3128 6.0756
4 11 5 2.2746 -0.0174
4 11 7 11.0992 -2.0437
4 11 9 3.0647 3.6415
4 11 11 -11.2429 -8.3696
4 11 13 -1.4731 2.2435
4 11 15 -4.2684 -2.1203
4 11 17 5.4722 3.1553
4 11 19 -0.5964 -4.4976
4 11 21 1.1897 0.4939
4 11 23 -6.6972 1.1101
4 11 25 4.1944 -5.1395
4 12 0 3.2374 -13.8110
4 12 2 -3.0130 -0.5416
4 12 4 -1.2590 5.1780
4 12 6 -0.1204 -1.6540
4 12 8 -0.5931 1.3285
4 12 10 0.9988 -10.6161
4 12 12 -2.0958 6.9210
4 12 14 -0.1029 -2.4698
4 12 16 1.7974 2.5224
4 12 18 -2.6529 0.8236
4 12 20 -5.0285 -2.4340
4 12 22 4.3897 -4.5538
4 12 24 -1.2329 7.9871
4 13 1 -3.6989 3.7252
4 13 3 4.5884 5.2110
4 13 5 -0.6782 4.1847
4 13 7 5.1814 -2.7481
4 13 9 2.2400 1.8980
4 13 11 -11.1658 -5.7272
4 13 13 -2.2502 4.2555
4 13 15 -3.3310 -1.3394
4 13 17 -1.6581 7.3897
4 13 19 6.3290 -2.9101
4 13 21 -1.7533 0.6319
4 13 23 -1.1941 -3.7991
4 14 0 -5.6561 5.4754
4 14 2 11.0454 -3.2141
4 14 4 4.2502 3.1303
4 14 6 0.4572 -3.7773
4 14 8 -1.5642 2.6720
4 14 10 -7.2956 -6.0481
4 14 12 3.9144 8.3678
4 14 14 3.2527 0.4171
4 14 16 4.5552 5.1816
4 14 18 4.5176 4.4002
4 14 20 -6.3132 -9.9168
4 14 22 -1.3557 -0.4616
4 15 1 3.8117 -1.8138
4 15 3 2.3718 -3.4312
4 15 5 0.3717 -4.3871
4 15 7 6.4393 7.2737
4 15 9 -1.7967 1.5032
4 15 11 -4.5996 -0.1261
4 15 13 0.6934 -0.0051
4 15 15 3.7337 -4.4784
4 15 17 1.3971 -0.7788
4 15 19 -1.7051 -5.9751
4 15 21 -2.2717 3.5818
4 15 23 1.7711 -1.2720
4 16 0 -11.1313 3.1076
4 16 2 4.8187 -3.4159
4 16 4 3.5813 -4.0206
4 16 6 -2.5739 -2.8399
4 16 8 5.1337 -3.2803
4 16 10 -3.6780 0.5972
4 16 12 -0.0317 0.2945
4 16 14 7.7579 -1.9473
4 16 16 -3.5921 -0.2896
4 16 18 -0.4503 3.4672
4 16 20 -8.1702 -0.7883
4 16 22 -3.0793 -3.3033
4 17 1 2.7577 3.4690
4 17 3 -3.3357 -5.9147
4 17 5 -1.2949 -3.3468
4 17 7 0.4926 3.6672
4 17 9 -0.9027 0.7367
4 17 11 -7.5362 1.2282
4 17 13 -1.0834 -2.0057
4 17 15 1.2447 -3.8723
4 17 17 -0.7114 0.7107
4 17 19 -2.0860 1.4125
4 17 21 1.5134 6.1984
4 18 0 1.3673 -3.8420
4 18 2 1.1222 -1.5368
4 18 4 1.2204 -1.7646
4 18 6 -2.3425 -1.7663
4 18 8 -0.7336 0.0805
4 18 10 6.6793 2.6648
4 18 12 -6.2418 2.8302
4 18 14 9.4736 -3.0048
4 18 16 -3.3988 6.1272
4 18 18 0.9286 0.4444
4 18 20 -2.6192 2.9919
4 19 1 -5.3007 -1.1138
4 19 3 1.2055 -8.5847
4 19 5 -7.1980 1.6834
4 19 7 1.6573 2.7050
4 19 9 -0.1505 1.4664
4 19 11 0.4402 -2.7832
4 19 13 -8.7506 0.0165
4 19 15 8.1073 -6.6799
4 19 17 0.7501 -1.9142
4 19 19 3.8152 2.9130
4 20 0 -1.8782 3.2834
4 20 2 -3.3517 -3.3383
4 20 4 -7.6636 2.0015
4 20 6 3.9086 2.8141
4 20 8 2.0638 0.5840
4 20 10 2.6748 0.4679
4 20 12 -2.3286 0.6914
4 20 14 0.8674 3.7313
4 20 16 -2.0873 -1.5870
4 20 18 -2.8199 -5.3700
4 21 1 3.6656 0.9805
4 21 3 -6.5495 3.2689
4 21 5 0.5129 3.5243
4 21 7 1.4138 -3.5357
4 21 9 2.2445 -0.2935
4 21 11 -0.2175 -1.0889
4 21 13 -2.1441 3.5231
4 21 15 4.8109 -3.5679
4 21 17 -5.7030 -2.0957
4 22 0 0.4339 -2.1593
4 22 2 2.7056 1.1195
4 22 4 -0.1084 2.6612
4 22 6 -2.3578 0.6857
4 22 8 3.3778 -0.3010
4 22 10 -1.2333 -2.0792
4 22 12 7.9484 -5.3688
4 22 14 -0.0148 0.8470
4 22 16 -0.9294 3.7603
4 23 1 2.6853 -1.6765
4 23 3 -2.6137 -1.3608
4 23 5 0.4085 4.6844
4 23 7 0.7757 -0.2015
4 23 9 -0.2288 -5.0910
4 23 11 -8.7467 -3.1229
4 23 13 -4.8352 -6.7063
4 24 0 -0.1176 2.4139
4 24 2 0.4873 2.8290
4 24 4 0.9392 -0.4935
4 24 6 3.8139 1.8923
4 24 8 -5.5133 2.2158
4 24 10 0.5476 2.2263
4 24 12 -4.2536 6.3252
4 25 1 2.3372 -1.7839
4 25 3 -1.2990 -2.8093
4 25 5 0.8934 -1.6487
4 25 7 5.9259 1.9073
4 25 9 -0.5780 -1.4081
4 26 0 -4.1403 -1.4138
4 26 2 -0.6772 3.3561
4 26 4 -2.6013 0.0077
4 26 6 -0.8681 -4.5310
5 0 1 -7.6709 -45.1936
5 0 3 -20.2909 42.2553
5 0 5 -18.0509 -49.7759
5 0 7 -8.6620 16.2941
5 0 9 1.8962 4.1119
5 0 11 7.4032 11.5661
5 0 13 7.6771 10.2561
5 0 15 5.4088 0.1850
5 0 17 3.1108 -4.2776
5 0 19 0.5317 -1.2236
5 0 21 -1.1643 -11.3767
5 0 23 -2.5404 4.4603
5 0 25 -2.1819 -4.1072
5 1 0 -3.1151 -133.5523
5 1 2 -36.7555 -55.1905
5 1 4 23.7300 -10.4469
5 1 6 -8.7017 32.3553
5 1 8 11.9236 9.8961
5 1 10 5.7227 -2.7426
5 1 12 7.1235 3.1765
5 1 14 1.2055 -1.4944
5 1 16 5.0092 -0.6137
5 1 18 -4.4088 -0.1541
5 1 20 -2.5386 -0.6485
5 1 22 -5.5239 0.8335
5 1 24 1.0087 1.9395
5 1 26 -1.3904 0.1232
5 2 1 -131.3307 42.0993
5 2 3 10.4059 -17.2644
5 2 5 2.9844 -21.3236
5 2 7 12.4637 -4.4418
5 2 9 23.2720 -7.8961
5 2 11 -6.5210 -0.5242
5 2 13 6.6684 1.0948
5 2 15 6.2877 0.9396
5 2 17 2.2519 -6.6389
5 2 19 -5.3750 3.8468
5 2 21 -0.6830 -3.7079
5 2 23 1.4562 4.4381
5 2 25 -2.7338 -4.3398
5 2 27 2.2199 0.9065
5 3 0 2.9088 127.1404
5 3 2 -76.3352 -87.0216
5 3 4 24.4064 1.8948
5 3 6 -9.0848 -1.2928
5 3 8 -4.2096 -42.3880
5 3 10 10.3432 10.5282
5 3 12 -9.0980 -1.8843
5 3 14 6.0376 -8.7467
5 3 16 2.4544 -0.6939
5 3 18 -5.7809 1.9089
5 3 20 1.6505 2.7612
5 3 22 -6.1995 0.7775
5 3 24 -2.7511 0.1052
5 3 26 0.3346 3.2605
5 4 1 -104.4573 101.3338
5 4 3 -35.2081 -35.8118
5 4 5 -1.5208 0.5693
5 4 7 -41.8372 -6.0925
5 4 9 3.3392 -14.6047
5 4 11 3.2869 -1.1703
5 4 13 -5.2670 -1.9878
5 4 15 5.7691 0.1749
5 4 17 3.1710 1.9557
5 4 19 -6.2449 -0.7768
5 4 21 3.8182 -0.1844
5 4 23 -0.2364 8.3384
5 4 25 -0.4924 1.0719
5 5 0 2.6175 197.6438
5 5 2 -69.6607 18.0643
5 5 4 14.6542 12.0715
5 5 6 -15.4583 26.0784
5 5 8 -17.5333 -5.1607
5 5 10 -2.2863 0.1064
5 5 12 -5.6738 0.0487
5 5 14 -5.3356 -3.4063
5 5 16 7.8071 -7.6978
5 5 18 -2.3285 8.3781
5 5 20 -1.7090 -0.5759
5 5 22 1.2039 -0.0353
5 5 24 6.3246 1.8527
5 5 26 -1.4551 3.7981
5 6 1 23.5924 61.7604
5 6 3 24.3137 23.9725
5 6 5 -16.2153 0.2076
5 6 7 3.9875 13.2689
5 6 9 -12.9850 15.3457
5 6 11 -4.6928 -4.7480
5 6 13 4.6424 -1.2618
5 6 15 -5.9876 8.8433
5 6 17 8.4766 -3.4287
5 6 19 -4.6373 2.0238
5 6 21 0.2501 -0.9982
5 6 23 2.3131 -4.0170
5 6 25 4.7411 -0.5844
5 7 0 -4.4618 51.8494
5 7 2 -1.1921 8.7616
5 7 4 15.6047 -3.9917
5 7 6 -3.5148 14.2804
5 7 8 4.5835 6.0465
5 7 10 14.9842 11.3602
5 7 12 -10.2841 -3.5214
5 7 14 1.6613 5.4414
5 7 16 4.8450 -9.3795
5 7 18 -4.4426 3.8254
5 7 20 2.5815 6.7843
5 7 22 -4.8765 -1.3892
5 7 24 1.5578 -1.2773
5 7 26 -4.0132 -1.8391
5 8 1 15.5188 -12.3753
5 8 3 23.3965 21.9264
5 8 5 -6.7309 -2.3598
5 8 7 2.0773 2.4945
5 8 9 0.2409 1.7622
5 8 11 -2.6279 -8.6540
5 8 13 7.3176 4.9248
5 8 15 -2.4687 -3.6168
5 8 17 1.6915 8.6140
5 8 19 6.8964 2.0327
5 8 21 1.3207 -1.8425
5 8 23 4.3319 -1.8596
5 8 25 0.2961 0.8733
5 9 0 -0.9558 10.9623
5 9 2 2.5648 5.6672
5 9 4 0.8623 -9.9892
5 9 6 9.4053 -0.8045
5 9 8 -8.6909 18.4075
5 9 10 3.8163 -0.1186
5 9 12 9.3726 1.2617
5 9 14 -2.8636 2.2245
5 9 16 -0.7577 -7.2983
5 9 18 5.5490 -4.3802
5 9 20 2.1359 0.6033
5 9 22 -4.8645 -3.6644
5 9 24 -2.7738 -3.4842
5 10 1 11.3359 0.9396
5 10 3 4.8337 14.4771
5 10 5 -0.9077 -7.7586
5 10 7 0.3318 5.6553
5 10 9 0.7401 9.0119
5 10 11 8.6699 -12.6971
5 10 13 5.7698 -7.1412
5 10 15 -4.7640 1.0420
5 10 17 -2.0638 5.7698
5 10 19 1.6873 0.0003
5 10 21 0.1714 0.1406
5 10 23 -0.2000 3.9138
5 11 0 7.2136 8.0977
5 11 2 15.8200 -3.0807
5 11 4 -0.5470 3.2292
5 11 6 2.6144 -3.1239
5 11 8 5.2865 13.3911
5 11 10 -5.0323 -2.6079
5 11 12 5.7810 -12.1416
5 11 14 -3.6517 7.6752
5 11 16 3.4879 -5.4582
5 11 18 -0.8922 -2.9346
5 11 20 5.0787 -1.5555
5 11 22 2.6091 -2.1034
5 11 24 0.9390 1.3372
5 12 1 7.2399 0.1830
5 12 3 4.6255 -3.7556
5 12 5 8.8864 -9.3322
5 12 7 -1.4030 6.1715
5 12 9 -0.7703 1.1262
5 12 11 -0.0857 -4.8749
5 12 13 2.8430 -4.0740
5 12 15 -2.9341 -5.7005
5 12 17 -4.5292 -0.1980
5 12 19 1.0317 6.6314
5 12 21 -3.1498 -5.7033
5 12 23 1.5022 0.4992
5 13 0 -5.3658 0.0668
5 13 2 3.1472 -0.5010
5 13 4 -5.8702 -7.9172
5 13 6 -1.6095 0.1547
5 13 8 3.4164 3.5219
5 13 10 -5.6146 5.5229
5 13 12 4.9741 -5.5386
5 13 14 -0.1922 1.4313
5 13 16 -5.2274 1.4464
5 13 18 -4.1423 -2.7102
5 13 20 6.7057 -3.0332
5 13 22 2.1920 3.1774
5 14 1 1.7911 2.6923
5 14 3 4.2910 1.9047
5 14 5 0.7970 0.8594
5 14 7 0.3964 0.8323
5 14 9 -1.3330 7.1537
5 14 11 4.0780 -6.0580
5 14 13 -1.6816 -7.2388
5 14 15 -0.0890 -0.6270
5 14 17 -2.9452 2.4669
5 14 19 -3.9777 9.1075
5 14 21 -1.0630 -7.6770
5 15 0 -3.1007 -4.0087
5 15 2 0.6103 0.3851
5 15 4 -0.8520 -4.2206
5 15 6 4.8137 -0.8791
5 15 8 -2.0254 2.3558
5 15 10 4.9738 1.5297
5 15 12 -10.2884 3.6131
5 15 14 2.2592 0.9548
5 15 16 1.1076 -3.5258
5 15 18 -1.8052 4.3790
5 15 20 8.1130 -0.3321
5 15 22 -7.7672 2.0811
5 16 1 -0.0769 0.5588
5 16 3 2.4935 1.4569
5 16 5 -1.5747 2.0686
5 16 7 2.7011 -2.0557
5 16 9 -3.2930 1.9261
5 16 11 6.0802 3.2531
5 16 13 5.2810 -2.0700
5 16 15 -5.3245 -3.7695
5 16 17 -2.8829 -0.3961
5 16 19 0.7561 0.9925
5 16 21 2.3010 -0.5040
5 17 0 8.6804 -0.6917
5 17 2 -1.7956 -1.4149
5 17 4 3.0046 -0.3820
5 17 6 2.3562 -0.9489
5 17 8 -2.1426 -3.5109
5 17 10 7.1253 7.4718
5 17 12 0.2324 -5.1768
5 17 14 -2.1422 6.8851
5 17 16 -2.1546 -0.8632
5 17 18 -1.3042 4.0275
5 17 20 0.8491 -2.4880
5 18 1 1.0005 -3.8019
5 18 3 -1.4506 -1.4830
5 18 5 -1.2366 -2.0624
5 18 7 -0.3674 4.4835
5 18 9 -0.1896 -5.1198
5 18 11 6.1078 -2.8158
5 18 13 4.5464 -7.0327
5 18 15 4.4776 4.7109
5 18 17 -2.0241 0.1110
5 18 19 1.2248 3.0088
5 19 0 -6.0356 -0.5388
5 19 2 -1.4939 -0.3086
5 19 4 -1.3344 2.7898
5 19 6 -0.8542 -0.0447
5 19 8 4.7586 -1.9795
5 19 10 -4.5266 -3.6220
5 19 12 -4.2995 -0.3306
5 19 14 -2.6769 -3.6427
5 19 16 0.8293 -1.9179
5 19 18 4.3852 -0.5458
5 20 1 -0.6274 2.4676
5 20 3 2.8455 -1.3583
5 20 5 -2.4298 1.4301
5 20 7 0.5658 1.5773
5 20 9 -5.8090 -0.6636
5 20 11 -2.6366 -1.9745
5 20 13 8.4412 4.0936
5 20 15 -4.3209 1.7253
5 20 17 -0.3518 -2.7841
5 21 0 -0.1620 2.0373
5 21 2 0.5778 1.3648
5 21 4 -3.1863 -1.3549
5 21 6 3.3949 3.7578
5 21 8 3.9324 1.1556
5 21 10 -5.5328 6.9666
5 21 12 2.8166 -3.6120
5 21 14 2.4367 -4.5134
5 21 16 -1.4336 1.7624
5 22 1 2.9199 1.9414
5 22 3 0.5037 0.1605
5 22 5 1.1071 1.1619
5 22 7 1.6236 -6.1702
5 22 9 3.9653 5.0989
5 22 11 1.2763 -5.5164
5 22 13 -1.4345 0.5430
5 23 0 3.4925 0.3675
5 23 2 2.2805 -0.9162
5 23 4 -2.4014 0.1270
5 23 6 0.1911 -1.5726
5 23 8 -2.3273 -1.6382
5 23 10 -0.3433 1.3576
5 23 12 -1.5331 -1.6164
5 24 1 1.4339 -2.4172
5 24 3 0.2295 0.3180
5 24 5 1.0142 -1.4589
5 24 7 -3.0974 5.4354
5 24 9 2.5445 -2.6993
5 25 0 -3.1035 1.5360
5 25 2 1.9739 -1.3153
5 25 4 -3.8827 -0.6674
5 25 6 3.2176 1.1341
5 25 8 -0.7084 -1.7134
6 0 0 -30.2605 9.3243
6 0 2 20.1862 9.7806
6 0 4 5.7749 2.0027
6 0 6 -14.7272 -3.7651
6 0 8 -16.3736 -8.1975
6 0 10 6.2680 -7.0015
6 0 12 -9.5889 -3.8002
6 0 14 -2.5468 1.2131
6 0 16 -4.4414 4.4019
6 0 18 0.3227 4.8420
6 0 20 -0.0821 2.0068
6 0 22 3.7201 -0.6642
6 0 24 -7.0689 -2.3694
6 0 26 -2.1206 -1.7550
6 1 1 -3.7048 11.7579
6 1 3 -7.1832 1.4079
6 1 5 4.1090 -2.0083
6 1 7 -14.0926 6.8091
6 1 9 9.7138 -0.2571
6 1 11 -8.9928 2.2045
6 1 13 -4.8611 5.6859
6 1 15 1.3786 3.7057
6 1 17 1.5351 -0.0785
6 1 19 2.8459 -0.7560
6 1 21 0.9363 1.1903
6 1 23 0.4119 -1.7716
6 2 0 43.7909 -6.6464
6 2 2 7.9827 -29.8548
6 2 4 25.6991 15.9182
6 2 6 -20.6525 15.8135
6 2 8 -11.0282 -6.1818
6 2 10 8.7104 2.7032
6 2 12 -3.8992 -5.9901
6 2 14 3.4344 0.9901
6 2 16 -0.3565 7.3107
6 2 18 -2.8420 -3.4331
6 2 20 1.6461 -2.9608
6 2 22 1.4398 3.0021
6 2 24 -7.5101 -5.1706
6 3 1 -67.4624 -16.0068
6 3 3 13.0799 -23.1742
6 3 5 12.3987 2.3332
6 3 7 -4.1596 19.2368
6 3 9 -0.9650 -9.0636
6 3 11 2.4030 1.1249
6 3 13 -5.2110 3.5171
6 3 15 -4.1576 -0.9905
6 3 17 2.7483 1.7906
6 3 19 -3.2602 -0.4279
6 3 21 3.1141 0.5153
6 3 23 -1.2407 2.6151
6 3 25 1.5206 3.4151
6 4 0 49.4592 -3.2708
6 4 2 -24.3029 -15.8601
6 4 4 8.3879 7.7103
6 4 6 -3.7611 3.6913
6 4 8 -6.2026 12.5060
6 4 10 -5.1236 1.6614
6 4 12 3.5903 -15.8660
6 4 14 -3.8916 10.9760
6 4 16 0.7015 8.7574
6 4 18 -1.3292 -1.5036
6 4 20 0.3234 -1.6729
6 4 22 2.8044 -1.6930
6 4 24 -1.1023 -3.1679
6 5 1 -39.2255 -11.1123
6 5 3 6.1453 -28.7711
6 5 5 8.0586 25.6940
6 5 7 11.7813 -2.8939
6 5 9 4.8932 12.9591
6 5 11 -3.9300 1.5845
6 5 13 -0.3506 2.1412
6 5 15 2.9408 1.5801
6 5 17 -0.6624 2.7127
6 5 19 3.0859 -0.9390
6 5 21 -6.7463 2.5755
6 5 23 1.1685 -2.2511
6 5 25 -3.6323 4.3487
6 6 0 16.8940 4.9900
6 6 2 -3.4739 -22.8351
6 6 4 -6.3396 20.8899
6 6 6 1.3232 -20.5263
6 6 8 9.3380 4.4024
6 6 10 3.2948 -0.8706
6 6 12 4.5530 -4.9676
6 6 14 -3.7494 -0.8024
6 6 16 2.4029 7.3460
6 6 18 -1.6523 -1.9098
6 6 20 1.7793 4.9091
6 6 22 3.5940 -0.2825
6 6 24 -1.2905 -4.1122
6 7 1 -8.8534 -22.3762
6 7 5 6.5810 13.7334
6 7 7 3.6823 1.2515
6 7 9 -6.7205 -3.9736
6 7 11 1.6879 4.4610
6 7 13 0.2849 -3.4455
6 7 15 1.1968 3.9530
6 7 17 -1.0194 -0.3434
6 7 19 4.2062 4.6136
6 7 21 -1.1284 -2.4057
6 7 23 -3.7423 -1.2413
6 8 0 -35.0839 -0.1214
6 8 2 6.2385 -10.4319
6 8 4 -4.9640 4.9589
6 8 8 16.3178 -0.8110
6 8 10 4.6285 2.4103
6 8 12 2.3656 2.7360
6 8 14 -3.2871 -3.7822
6 8 16 1.2643 -0.9966
6 8 18 -1.0503 2.8187
6 8 20 5.9319 4.0711
6 8 22 2.5251 -0.3752
6 8 24 -1.6375 2.9980
6 9 1 1.0243 -6.0063
6 9 3 -6.1573 -3.9127
6 9 5 -4.6546 -10.5771
6 9 7 6.1771 8.0573
6 9 9 -16.1253 -18.6619
6 9 11 4.8025 -2.1372
6 9 13 4.4352 -0.5411
6 9 15 -2.8105 2.8670
6 9 17 -0.2318 2.5428
6 9 19 3.9368 1.4203
6 9 21 0.8535 -5.7800
6 9 23 0.0138 -3.3079
6 10 0 -8.5088 -3.5579
6 10 2 -3.3871 1.8744
6 10 4 -10.3956 -2.5697
6 10 6 -6.8611 -2.5587
6 10 8 -3.6276 0.5624
6 10 10 1.3960 8.9221
6 10 12 -4.8246 3.9320
6 10 14 0.3598 -2.6220
6 10 16 3.2092 -7.4826
6 10 18 -0.1044 2.2621
6 10 20 1.1389 5.0020
6 10 22 -2.1952 -1.0708
6 11 1 -4.5071 -11.6076
6 11 3 -0.4832 7.9759
6 11 5 -7.7612 -1.6301
6 11 7 7.0342 1.3772
6 11 9 -2.5084 6.8161
6 11 11 1.4291 -9.3273
6 11 13 8.0899 4.3891
6 11 15 -8.1063 -0.2952
6 11 17 -3.6534 1.2909
6 11 19 4.9286 2.5297
6 11 21 3.9737 2.6418
6 11 23 2.6731 -0.6852
6 12 0 -12.2635 0.7852
6 12 2 -12.8339 1.5044
6 12 4 0.7016 0.0278
6 12 6 -4.4559 0.9954
6 12 8 -1.8966 -8.6937
6 12 10 5.3018 9.0399
6 12 12 -9.1001 0.2446
6 12 14 4.2304 3.9713
6 12 16 4.6450 1.3689
6 12 18 1.7754 -3.7272
6 12 20 5.8995 -0.4690
6 12 22 1.2659 1.0361
6 13 1 -5.4462 3.1168
6 13 3 -4.0861 2.1858
6 13 5 3.3803 3.3717
6 13 7 -2.5924 -3.4036
6 13 9 2.0260 3.7070
6 13 11 1.8047 4.2081
6 13 13 5.7727 -2.1968
6 13 15 3.7221 -3.7548
6 13 17 -1.1093 -6.5274
6 13 19 -5.4388 -1.2183
6 13 21 8.2324 0.4605
6 14 0 -6.0232 4.0414
6 14 2 -4.2584 2.3802
6 14 4 -3.2095 1.0281
6 14 6 -4.1233 -3.9351
6 14 8 2.8778 -3.5069
6 14 10 3.5128 1.8803
6 14 12 -0.3440 -0.9159
6 14 14 -2.0981 2.4212
6 14 16 -3.3480 -3.8924
6 14 18 -4.0726 0.5042
6 14 20 2.1610 -3.5416
6 15 1 -0.4215 3.6457
6 15 3 -3.5555 3.8210
6 15 5 1.3990 1.5872
6 15 7 -4.4449 1.2495
6 15 9 2.3687 -8.0857
6 15 11 0.8355 6.6636
6 15 13 6.1938 -2.6539
6 15 15 -1.9363 -1.1586
6 15 17 2.1381 0.6380
6 15 19 -4.3239 2.4153
6 15 21 0.4914 -1.1409
6 16 0 -4.1575 -4.7674
6 16 2 1.3750 1.9345
6 16 4 -3.3938 1.3986
6 16 6 -5.7609 -2.6430
6 16 8 2.9152 1.6924
6 16 10 -1.4784 -7.4854
6 16 12 -0.8644 -2.4206
6 16 14 2.5254 4.5400
6 16 16 -5.9819 -2.7087
6 16 18 2.7237 -2.4221
6 16 20 -1.0319 -1.1845
6 17 1 -4.2706 2.0694
6 17 3 0.5047 3.6203
6 17 5 -1.7871 4.2868
6 17 7 -0.7164 0.8936
6 17 9 -1.5216 -3.5064
6 17 11 -8.4104 1.4334
6 17 13 8.3203 -2.4084
6 17 15 -1.1636 -2.2571
6 17 17 -3.1931 2.4249
6 17 19 -0.0694 0.9283
6 18 0 -0.7835 1.3006
6 18 2 -1.1350 -0.1354
6 18 4 3.1521 0.8466
6 18 6 -4.8223 0.7249
6 18 8 -0.7742 0.7176
6 18 10 4.2011 -1.1644
6 18 12 -14.3021 2.3763
6 18 14 2.7516 -2.9654
6 18 16 -2.5472 2.9439
6 18 18 0.5284 -0.6304
6 19 1 -3.4981 -0.0957
6 19 3 0.7072 1.3254
6 19 5 -1.6707 2.9983
6 19 7 4.3437 3.2867
6 19 9 -6.7824 -3.1706
6 19 11 4.5315 4.1559
6 19 13 -4.3487 9.8485
6 19 15 0.8026 -5.7578
6 19 17 -1.6216 4.0527
6 20 0 -6.9995 2.2313
6 20 2 0.8204 -0.0391
6 20 4 1.2202 0.1404
6 20 6 0.2222 -1.0960
6 20 8 0.7387 -1.2585
6 20 10 -0.7842 -0.1425
6 20 12 0.5877 0.0952
6 20 14 1.1077 9.6024
6 20 16 -0.3121 -0.5280
6 21 1 3.5151 2.6284
6 21 3 -4.0027 0.0403
6 21 5 -1.1077 0.4551
6 21 7 -1.8350 -1.2231
6 21 9 -1.4690 0.6825
6 21 11 -1.1584 2.9272
6 22 0 -2.6491 -3.5178
6 22 2 -0.7353 1.5678
6 22 4 -1.6223 4.5868
6 22 6 -1.6705 3.0764
6 22 8 1.4828 -2.3153
6 22 10 -2.9063 0.3143
6 22 12 2.6800 2.4843
6 23 1 -2.1291 0.5904
6 23 3 5.4318 9.0722
6 23 5 4.1256 -2.0733
6 23 7 -2.0599 0.1224
6 23 9 0.6214 3.7448
6 23 11 -1.6344 2.9710
6 24 0 -3.1375 1.1609
6 24 2 3.9469 1.4965
6 24 4 1.0137 -5.7681
6 24 6 -1.0651 -0.8675
6 24 8 1.8654 -0.4308
7 0 1 3.1299 -16.8986
7 0 3 8.5717 20.6968
7 0 5 7.4447 7.9149
7 0 7 3.4209 34.5426
7 0 9 -1.0897 -8.3550
7 0 11 -4.7876 -0.5714
7 0 13 -5.2359 3.2804
7 0 15 -4.3250 6.0716
7 0 17 -1.1202 6.4440
7 0 19 1.3531 -4.8813
7 0 21 2.5154 3.1108
7 1 0 2.8393 -12.8279
7 1 2 15.4670 -12.8947
7 1 4 -15.6281 4.0614
7 1 6 30.2929 -9.3483
7 1 8 6.0310 -28.5208
7 1 10 -15.1296 9.1262
7 1 12 10.2136 3.0234
7 1 14 0.4499 -2.6564
7 1 16 0.8244 2.0808
7 1 18 3.8928 -6.2565
7 1 20 -2.6440 -3.8445
7 1 22 2.2963 -3.6007
7 2 1 -27.2265 -7.8052
7 2 3 -4.7307 3.5056
7 2 5 -8.0831 15.0476
7 2 7 -7.2958 -13.2392
7 2 9 -2.6389 11.2310
7 2 11 -5.1704 5.7984
7 2 13 0.5889 -2.2925
7 2 15 -0.7835 6.7219
7 2 17 -4.4774 -0.6159
7 2 19 -2.8121 -3.6218
7 2 21 -1.5362 3.8442
7 2 23 -0.6584 -3.8824
7 2 25 2.6041 -1.4967
7 3 0 -3.0824 76.6039
7 3 2 -4.9404 16.0131
7 3 4 4.8900 1.7911
7 3 6 15.5060 -1.6214
7 3 8 -6.3031 -13.1381
7 3 10 4.4558 13.4569
7 3 12 6.8535 -0.5951
7 3 14 8.4498 -3.0201
7 3 16 1.0190 -3.1311
7 3 18 1.7678 1.0395
7 3 20 -0.5723 -0.5013
7 3 22 -0.1121 1.2559
7 3 24 0.5763 0.0218
7 4 1 69.4424 66.8064
7 4 3 -20.1091 -10.9059
7 4 5 -3.6476 2.7621
7 4 7 -11.1506 1.6272
7 4 9 11.6810 -4.1014
7 4 11 -2.3099 5.2758
7 4 13 -5.3977 -2.2776
7 4 15 -3.9037 -8.0024
7 4 17 -9.6846 -2.1748
7 4 19 2.4752 -2.6006
7 4 21 -1.0692 1.3776
7 4 23 1.6660 -0.7903
7 5 0 -2.3206 -74.0562
7 5 2 33.8232 18.1212
7 5 4 6.4206 3.8626
7 5 6 9.0498 -5.4219
7 5 8 -6.4705 2.2659
7 5 10 4.3976 -6.7869
7 5 12 3.9595 9.9535
7 5 14 0.3395 -1.2343
7 5 16 -1.6286 7.6780
7 5 18 -2.6216 -1.3681
7 5 20 -3.4410 4.1242
7 5 22 1.8539 -1.5074
7 5 24 -0.1855 -0.6908
7 6 1 -1.6161 15.0096
7 6 3 25.0859 -7.2225
7 6 5 -25.1548 -15.1071
7 6 7 3.5597 8.9394
7 6 9 0.2793 -7.7810
7 6 11 2.5734 6.1643
7 6 13 -2.6920 0.3630
7 6 15 2.6196 -2.5381
7 6 17 -3.3160 -4.2922
7 6 19 -1.0350 3.0574
7 6 21 4.2655 0.0208
7 6 23 -2.9441 0.7461
7 7 0 7.8458 -6.5567
7 7 2 16.4118 -6.4682
7 7 4 2.0272 -5.9977
7 7 6 1.4219 4.8267
7 7 8 0.3075 0.5494
7 7 10 2.4027 0.0817
7 7 12 2.9878 0.7483
7 7 14 1.3785 3.8508
7 7 16 3.7955 -2.9942
7 7 18 -4.8738 3.1256
7 7 20 -2.3295 0.9711
7 7 22 2.1191 1.3940
7 8 1 7.4411 -7.3748
7 8 5 -8.4582 -7.1408
7 8 7 1.3543 0.7337
7 8 9 2.0661 -7.5493
7 8 11 0.1834 7.9159
7 8 13 2.0667 -4.5746
7 8 15 -1.4637 -3.0333
7 8 17 -1.4916 -4.9532
7 8 19 -3.8173 -0.4717
7 8 21 3.3494 0.6215
7 9 0 -10.3694 -12.6153
7 9 2 13.4019 1.4378
7 9 4 2.3098 7.6539
7 9 8 -0.6416 4.7375
7 9 10 1.2821 1.4044
7 9 12 3.0424 -1.0532
7 9 14 -4.6406 2.5000
7 9 16 2.1759 0.1897
7 9 18 -6.8156 3.2042
7 9 20 -6.2479 5.1817
7 9 22 -0.3300 0.7028
7 10 1 2.2890 9.4153
7 10 3 3.4497 -9.9574
7 10 5 -5.9382 -5.8511
7 10 7 12.9503 -0.1890
7 10 9 0.6420 -9.5150
7 10 11 0.7372 5.4309
7 10 13 2.0324 -4.0887
7 10 15 0.8886 1.7361
7 10 17 3.5844 1.2785
7 10 19 -1.7417 0.3514
7 10 21 4.8865 7.5003
7 11 0 4.2247 1.1470
7 11 2 5.9785 -5.4353
7 11 4 -1.1283 9.4344
7 11 6 1.7070 -14.5685
7 11 8 9.2324 -5.4701
7 11 10 -7.9304 2.8135
7 11 12 2.6900 -1.8596
7 11 14 -4.0127 1.8725
7 11 16 0.6802 -1.9132
7 11 18 2.9340 -3.0414
7 11 20 -2.1007 2.9107
7 12 1 3.7091 3.4290
7 12 3 4.5692 -3.7123
7 12 5 -7.8132 -5.1784
7 12 7 -3.8548 -10.4813
7 12 9 5.3012 -7.4770
7 12 11 -7.3907 2.1685
7 12 13 7.0433 -1.0837
7 12 15 2.2527 7.5498
7 12 17 1.3533 -2.0131
7 12 19 -7.1070 -5.6141
7 13 0 3.4238 -5.7533
7 13 2 5.0149 -1.4122
7 13 4 2.4731 1.9999
7 13 6 -8.6613 0.9063
7 13 10 -2.0545 1.9216
7 13 12 -5.4319 2.3938
7 13 14 6.3388 -7.3883
7 13 16 0.1680 -0.4117
7 13 18 0.4292 -1.3812
7 14 1 3.9133 -11.7275
7 14 3 3.1576 -2.4629
7 14 5 -1.1672 2.4168
7 14 7 -4.9018 -5.2454
7 14 9 1.5789 -0.0222
7 14 11 -0.3052 -2.5027
7 14 13 -0.2238 -0.0800
7 14 15 0.7704 1.4221
7 14 17 1.0780 -1.5662
7 14 19 -3.6715 -2.1125
7 15 0 -7.2263 -8.4290
7 15 2 -0.0579 -4.8146
7 15 4 1.5149 -3.1985
7 15 6 1.2683 2.4868
7 15 8 -8.1369 0.0758
7 15 10 1.1541 -1.0233
7 15 12 -7.1523 -4.5855
7 15 14 -1.7324 -1.9158
7 15 16 2.7041 -3.3510
7 16 1 -0.5959 -0.4947
7 16 3 -3.2632 -4.8498
7 16 5 0.3095 0.4856
7 16 7 0.5538 -1.0407
7 16 9 -1.1647 -0.5144
7 16 11 1.8842 0.4509
7 16 13 -9.6001 5.6679
7 16 15 -1.6869 1.4688
7 16 19 -1.1282 1.2163
7 17 0 5.9878 -2.5084
7 17 2 1.3860 -2.6695
7 17 4 -2.3252 -0.9910
7 17 6 1.9636 -4.3703
7 17 8 -0.3277 3.5887
7 17 10 -7.5316 0.1723
7 17 12 3.1179 -11.0278
7 17 14 -1.6121 10.4610
7 18 1 -1.1580 -1.3845
7 18 3 -1.5030 -3.1251
7 18 5 -2.6980 -4.5499
7 18 7 -0.9278 1.0734
7 18 9 4.5900 -3.9784
7 18 11 -7.4952 9.8136
7 18 13 -12.2621 -5.0269
7 18 15 2.6065 5.6309
7 19 0 -2.4792 -2.6768
7 19 2 3.3233 -1.1160
7 19 4 -6.5470 -1.2156
7 19 6 -4.5196 -6.0010
7 19 8 3.5571 2.0660
7 19 10 -1.5145 -0.0118
7 19 12 -2.7232 6.4207
7 19 14 -1.4576 9.0973
7 20 1 -3.3177 0.8253
7 20 3 -3.3810 1.2381
7 20 5 -4.6386 1.4410
7 20 7 -7.4101 0.0131
7 20 9 5.0033 -7.1888
7 20 11 -3.2003 9.0685
7 20 13 3.6690 1.6637
7 21 2 7.3608 9.2899
7 21 4 -3.6227 -2.0543
7 21 6 -0.2514 2.7672
7 21 8 -5.4639 3.7849
7 21 10 1.4249 3.5732
7 21 12 -1.6444 0.0959
7 22 3 1.7724 -3.1679
7 22 5 -2.8115 1.7011
7 22 7 -0.9546 -0.1676
7 22 9 7.3806 4.9349
7 23 4 -6.6804 -1.4669
8 0 0 2.4988 -5.5361
8 0 2 13.3700 -5.6850
8 0 4 16.2800 -0.7472
8 0 6 11.3476 2.5103
8 0 8 8.8694 5.6807
8 0 10 1.3364 4.5940
8 0 12 9.8280 3.8653
8 0 14 12.2748 1.2686
8 0 16 -0.0449 -0.2631
8 0 18 0.6670 -1.6623
8 0 20 -1.6163 -2.4310
8 0 22 -0.6767 -2.1402
8 1 1 -2.2139 -6.0854
8 1 3 5.8053 -4.2578
8 1 5 -2.8520 -22.4060
8 1 7 -3.5834 -2.6681
8 1 9 0.0349 6.2188
8 1 11 13.4881 -7.9229
8 1 13 -2.8868 -7.2017
8 1 15 10.3034 -3.9032
8 1 17 -0.0935 -1.3248
8 1 19 -3.4052 2.1442
8 1 21 -2.8155 1.2958
8 1 23 3.8468 0.0300
8 2 0 7.2178 6.3470
8 2 2 -3.4026 -1.0920
8 2 4 -5.4520 -1.6443
8 2 6 -2.4822 2.4878
8 2 8 10.5407 -4.0388
8 2 10 -0.8873 6.0651
8 2 12 0.8645 -7.0446
8 2 14 1.9406 -3.9514
8 2 16 -1.5630 -6.1027
8 2 18 -2.1784 3.4383
8 2 20 3.6386 -1.4216
8 2 22 -0.3360 0.0517
8 3 1 -2.7298 -7.8961
8 3 3 6.6807 7.5064
8 3 5 -6.8344 -15.5512
8 3 7 -5.7147 -6.7429
8 3 9 11.1199 14.1750
8 3 11 1.8743 -10.8312
8 3 13 -2.9052 -5.3994
8 3 15 -2.0709 -1.2615
8 3 17 0.9493 1.1194
8 3 19 2.4975 1.5285
8 3 21 -2.4769 -4.0617
8 3 23 2.9612 3.6776
8 4 0 -1.8789 -2.0215
8 4 2 -9.4667 2.7989
8 4 4 -2.8049 -2.7766
8 4 6 0.0835 7.9770
8 4 8 12.8166 -19.0987
8 4 10 -0.0773 -1.8972
8 4 12 -6.9531 -4.4566
8 4 14 4.8339 -2.4225
8 4 16 3.9721 0.6041
8 4 18 -4.7651 -4.7253
8 4 20 0.3205 -7.0470
8 4 22 0.5982 2.9121
8 5 1 -14.3064 11.1189
8 5 3 1.4178 -3.8235
8 5 5 -7.2031 -8.9645
8 5 7 -14.1589 -16.6090
8 5 9 -6.8897 -4.0883
8 5 11 -11.1227 4.3122
8 5 13 -0.2367 -10.4391
8 5 15 -2.1270 -10.7624
8 5 17 -6.5700 1.6198
8 5 19 -4.0914 4.9921
8 5 21 -5.3026 -4.6737
8 6 0 2.2580 -1.4190
8 6 2 5.8283 22.4208
8 6 4 -29.5099 11.9855
8 6 6 4.6305 12.1032
8 6 8 -16.7568 0.6243
8 6 10 -3.3621 18.3960
8 6 12 -10.7037 -1.2716
8 6 14 -7.8715 -5.1587
8 6 16 0.2045 12.2346
8 6 18 -2.8898 3.8684
8 6 20 0.9499 -1.7017
8 6 22 -4.3533 3.6197
8 7 1 -8.1580 -0.5326
8 7 3 30.1167 17.8269
8 7 5 11.4674 8.5201
8 7 7 -8.4925 1.9152
8 7 9 16.0139 8.4056
8 7 11 -1.7190 15.3748
8 7 13 -7.0399 5.6774
8 7 15 3.0116 -4.9647
8 7 17 6.5861 5.3389
8 7 19 3.0082 0.0483
8 7 21 -3.7819 1.4766
8 8 0 -4.2574 4.3215
8 8 2 9.9618 5.3162
8 8 4 3.4090 -16.9615
8 8 6 9.5663 4.0918
8 8 8 1.9233 -4.1518
8 8 12 1.7400 2.8026
8 8 14 -0.5387 1.0388
8 8 16 5.4321 1.8650
8 8 18 -0.8007 -5.5595
8 8 20 -1.0400 -1.0566
8 9 1 2.9459 -5.0172
8 9 3 3.1302 5.5785
8 9 5 1.0934 -4.0656
8 9 7 -2.9787 0.2335
8 9 17 1.0905 -1.2546
8 10 0 1.6100 -5.0739
8 10 2 -3.6552 -2.0272
8 10 4 4.7097 3.7346
8 10 6 7.2679 -6.0054
8 10 8 -0.8474 -0.9069
8 11 1 -2.4615 0.2242
8 11 3 0.4789 0.4154
8 11 5 4.5953 0.5916
8 11 7 -4.9975 -6.7606
8 12 0 2.0525 4.1716
8 12 2 0.8572 -3.7548
8 12 4 0.6210 4.3018
8 12 6 6.6662 -6.8310
8 13 1 -4.8165 -2.2028
8 13 3 -0.4182 -4.6393
8 13 5 -3.2484 1.7835
8 13 7 0.6640 -6.6871
8 13 9 -4.8683 -1.2492
8 13 19 0.2756 -0.4887
8 14 0 -3.1871 -2.2594
8 14 2 -0.5148 5.0671
8 14 4 -3.4845 4.4028
8 14 6 3.1608 0.2498
8 14 8 -0.3599 -0.0131
8 14 18 3.7891 4.2201
8 15 1 -4.7870 -4.3819
8 15 3 6.6546 3.5502
8 15 5 -3.2136 -3.4257
8 15 7 2.4261 -0.6366
8 15 9 -3.2048 -1.1502
8 15 11 6.5560 -0.3508
8 15 13 7.5044 -1.0760
8 15 15 0.7430 4.6932
8 15 17 -3.7527 1.9818
8 16 0 -8.6505 -0.3519
8 16 2 -2.5384 3.7247
8 16 4 -2.2219 1.7712
8 16 6 3.5433 1.6664
8 16 8 -1.7910 1.6097
8 16 10 -0.7699 -3.6390
8 16 12 -1.8017 -1.7611
8 16 14 -3.5686 -7.9013
8 16 16 2.4625 -1.4564
8 17 1 -3.0841 2.8227
8 17 3 4.1791 4.9171
8 17 5 1.6161 -5.3029
8 17 7 -0.4926 -2.6008
8 17 9 2.1811 5.0993
8 17 11 -3.0501 -3.5022
8 17 13 -1.3643 4.9461
8 17 15 -2.0993 4.0319
8 18 0 -0.9323 2.5940
8 18 2 -2.1638 3.1628
8 18 4 -2.0881 0.3993
8 18 6 -0.2308 3.1931
8 18 8 -0.5136 0.8230
8 18 10 0.8788 -2.1747
8 18 12 3.0402 1.4665
8 18 14 0.4811 -0.7348
8 19 1 1.4347 5.4225
8 19 3 1.8252 1.6801
8 19 5 7.8644 0.8600
8 19 7 2.0833 -2.7725
8 19 9 -0.8371 2.6542
8 19 11 -0.1906 -2.9337
8 19 13 -1.7837 -2.7542
8 20 0 7.5075 -3.4635
8 20 2 -3.8690 2.1025
8 20 4 0.2647 -8.2476
8 20 6 0.9934 0.7902
8 20 8 -3.3942 -1.4734
8 20 10 0.0087 0.7249
8 21 1 1.6039 1.7784
8 21 3 -7.2117 9.0743
8 22 0 2.4255 2.4591
8 22 2 3.1630 1.9246
8 23 1 -0.6971 0.1165
9 0 1 -0.7015 2.6371
9 0 3 1.2629 9.1147
9 0 5 3.0996 -0.0254
9 0 7 3.0326 -4.8402
9 0 9 2.6390 -12.6611
9 0 11 -0.4909 9.1584
9 0 13 -2.2010 -0.2224
9 0 15 -2.8240 7.7183
9 0 17 -2.2631 7.7647
9 0 19 -1.9768 10.2006
9 0 21 -1.0828 -6.4887
9 1 0 0.6422 15.0571
9 1 2 17.4876 -18.8726
9 1 4 -0.5129 17.6654
9 1 6 -0.5137 -11.4641
9 1 8 -3.3145 -4.3799
9 1 10 -4.9806 1.3428
9 1 12 7.1535 2.4623
9 1 14 0.5818 -4.3298
9 1 16 3.8961 3.5080
9 1 18 4.3216 2.1910
9 1 20 4.4279 -2.5656
9 1 22 -2.7867 -4.0634
9 2 1 -3.0487 -19.7202
9 2 3 -1.2995 -6.5234
9 2 5 -2.6570 -2.4371
9 2 7 0.2459 0.3427
9 2 9 -4.5634 0.7034
9 2 11 -2.6294 0.5489
9 2 13 -2.3879 -3.2500
9 2 15 5.0792 4.7389
9 2 17 1.3183 3.9046
9 2 19 -10.1522 -3.1202
9 2 21 -1.1622 -3.5888
9 3 0 -2.9352 -13.7267
9 3 2 -6.2533 4.3019
9 3 4 -1.7201 13.1681
9 3 6 -3.0237 0.8107
9 3 8 11.9931 -8.1232
9 3 10 -8.0675 10.5335
9 3 12 7.6431 -1.5092
9 3 14 -4.2085 -1.1619
9 3 16 9.7416 -3.5443
9 3 18 -3.1377 8.5861
9 3 20 -0.3433 4.9574
9 4 1 -13.4230 1.6064
9 4 3 14.2367 -2.4611
9 4 5 3.1354 -12.5236
9 4 7 -5.9297 -2.6042
9 4 9 -0.3198 -1.2914
9 4 11 -0.1529 -5.0154
9 4 13 -2.1131 1.7439
9 4 15 0.3940 4.4936
9 4 17 5.1602 -1.6046
9 4 19 -1.1803 3.9162
9 4 21 5.8321 -6.4744
9 5 0 3.3744 -4.8744
9 5 2 -3.3242 11.1423
9 5 4 -21.2574 -6.4303
9 5 6 2.8587 13.8114
9 5 8 4.9930 -1.9977
9 5 10 -6.9730 -4.2238
9 5 12 4.6971 -2.8341
9 5 14 5.1720 3.2719
9 5 16 4.4275 4.4075
9 5 18 -0.0142 -6.5975
9 5 20 0.2557 3.2040
9 6 1 -2.6262 -19.7718
9 6 3 5.2319 34.1375
9 6 5 7.8931 -19.7815
9 6 7 3.5424 -12.2881
9 6 9 -7.0047 -1.4042
9 6 11 -20.4859 -3.2036
9 6 13 4.2576 -5.8867
9 6 15 7.7099 0.8045
9 6 17 1.9313 -1.1299
9 6 19 -5.0046 2.6885
9 7 0 -1.9291 -2.8479
9 7 2 4.4054 3.0963
9 7 4 -5.2849 -0.7133
9 7 6 -20.1803 1.4557
9 7 8 -13.3500 3.0185
9 7 12 3.0080 5.9805
9 7 14 -1.5716 -5.1496
9 7 16 3.4057 0.5232
9 7 18 4.4057 -2.0828
9 8 1 0.7251 -8.7586
9 8 3 0.2234 9.3368
9 8 5 13.8549 4.2247
9 8 7 -12.5643 8.2293
9 9 0 -1.4036 -4.2251
9 9 2 -6.8948 2.2067
9 9 4 1.7200 -8.0548
9 9 6 -5.7822 9.0648
9 10 1 3.7299 12.0086
9 10 3 -2.1673 -0.9971
9 10 5 5.5404 6.2520
9 10 7 0.7397 4.5332
9 11 0 4.0126 -7.6955
9 11 2 -6.3968 -3.2740
9 11 4 3.9809 -2.2426
9 12 1 -1.7688 4.8150
9 12 3 0.1765 5.6776
9 12 5 3.7175 2.4040
9 13 0 -3.6210 -4.9394
9 13 2 1.0666 -6.7015
9 13 4 5.7252 -3.0099
9 13 6 -4.2762 1.0976
9 13 8 2.5488 -0.1002
9 13 16 1.6620 2.0587
9 14 1 -9.8673 1.0194
9 14 3 -2.8639 1.4026
9 14 5 -1.1222 -1.5006
9 14 7 7.1729 6.7476
9 14 9 -5.1250 -1.4936
9 14 11 9.6445 -2.2029
9 14 13 0.5045 -1.8318
9 14 15 -1.4614 -1.3324
9 15 0 0.6315 11.4063
9 15 2 4.1093 0.6299
9 15 4 -7.7936 -1.2802
9 15 6 3.2911 -1.3294
9 15 8 -5.3114 -0.7924
9 15 10 -1.8893 -2.5132
9 15 12 -4.0690 -4.0098
9 15 14 -3.1139 -0.5140
9 16 1 3.6861 -3.8431
9 16 3 -3.5692 6.8428
9 16 5 -0.5189 5.0599
9 16 7 -2.1791 7.6414
9 16 9 0.1052 9.1079
9 16 11 3.1993 4.1364
9 16 13 -0.5699 -2.3418
9 17 0 2.0608 -5.0498
9 17 2 1.3151 -0.0245
9 17 4 5.8700 -2.6903
9 17 6 5.9671 4.3622
9 17 8 3.8006 -0.6276
9 17 10 7.8843 -5.3088
9 17 12 -0.8873 -2.0981
9 18 1 -1.8804 -0.7644
9 18 3 -6.9656 -1.2868
9 18 5 0.0914 -0.6315
9 18 9 -1.9306 0.3672
9 19 0 -2.5407 -5.9807
9 19 2 -0.6835 3.9909
9 19 4 5.2366 7.1722
9 20 1 -7.2937 1.8141
9 20 3 3.9919 -5.2100
9 21 0 0.9557 5.0408
9 21 2 0.0863 6.0613
10 0 0 32.7839 -0.5484
10 0 2 4.6219 -0.6362
10 0 4 -10.3668 -0.5448
10 0 6 -17.7726 -0.2931
10 0 8 22.3973 0.4413
10 0 10 -5.2699 2.2043
10 0 12 0.6302 3.0930
10 0 14 2.5084 2.8252
10 0 16 2.6340 0.8664
10 0 18 0.3623 -1.2942
10 0 20 -3.9070 -2.7731
10 1 1 -12.7982 -14.3526
10 1 3 -2.7631 5.5680
10 1 5 -4.4811 11.0797
10 1 7 5.5812 1.4477
10 1 9 3.3921 -16.0468
10 1 11 -4.2061 -0.4871
10 1 13 2.0586 0.7509
10 1 15 -5.5476 -2.2092
10 1 17 -5.0583 1.6623
10 1 19 -0.2178 0.6316
10 2 0 4.9035 1.9777
10 2 2 -0.4140 5.3273
10 2 4 4.2013 -1.4894
10 2 6 -0.8223 3.7993
10 2 8 -1.8360 -6.5686
10 2 10 -17.6939 1.6624
10 2 12 2.0295 5.5317
10 2 14 2.6297 1.8334
10 2 16 -0.0576 8.5418
10 2 18 4.5084 -0.4206
10 3 1 1.3703 -8.5912
10 3 3 -10.1089 -2.7324
10 3 5 3.7139 7.3976
10 3 7 2.1651 3.2117
10 3 9 1.9126 1.0632
10 3 11 0.4638 2.2663
10 3 13 1.7126 -2.8779
10 3 15 2.9034 -0.5095
10 3 17 2.8653 0.4695
10 3 19 -5.2428 0.2377
10 4 0 10.5265 -3.6698
10 4 2 -9.2493 1.6729
10 4 4 2.1202 5.3815
10 4 6 6.2497 -6.7754
10 4 8 -3.9690 -3.1830
10 4 10 -4.3875 -4.6284
10 4 12 -3.8313 7.0648
10 4 14 2.2498 -1.4977
10 4 16 -2.1129 -0.7932
10 4 18 5.3123 3.9004
10 5 1 -4.9376 -7.0230
10 5 3 -0.5476 2.0335
10 5 5 -6.3991 10.9264
10 5 7 0.3304 -3.8213
10 5 9 -2.3064 4.4126
10 5 11 -0.5772 -1.1955
10 5 13 4.6880 1.3101
10 5 15 -3.5787 -0.5770
10 5 17 5.8540 0.3413
10 6 0 13.2238 2.7176
10 6 2 -6.8632 -7.1093
10 6 4 18.5508 7.4048
10 6 6 4.4050 5.2443
10 6 8 -5.3543 -10.4815
10 7 1 -3.9646 -17.3757
10 7 3 -9.0880 -8.5180
10 7 5 3.9826 -11.5854
10 7 7 -6.5387 4.2440
10 8 0 -10.5184 1.3606
10 8 2 -18.5566 1.3999
10 8 4 1.0199 4.3062
10 8 6 -7.4284 10.4267
10 9 1 3.2170 2.9513
10 9 3 -2.2178 -2.6674
10 9 5 -0.0890 -3.0032
10 10 0 -2.1862 -4.3738
10 10 2 -9.9892 -4.5236
10 10 4 -8.9937 8.0137
10 10 6 -0.4017 5.0110
10 11 1 -7.2176 6.7226
10 11 3 5.5776 0.1924
10 11 5 2.3431 2.0346
10 12 0 5.9145 3.8516
10 12 2 -9.0004 -1.3770
10 12 4 -13.6402 -1.6883
10 12 10 -0.6493 1.6038
10 12 12 4.5148 -2.3959
10 12 14 -0.4478 3.3663
10 13 1 1.7061 8.5174
10 13 3 3.3320 18.3924
10 13 11 2.3290 3.5613
10 13 13 -0.0586 -0.3601
10 14 0 17.3393 -1.8780
10 14 2 9.4363 -2.8753
10 14 4 5.3269 1.6300
10 14 12 -0.2890 -1.1867
10 15 1 4.4613 -8.8172
10 15 3 -2.1141 0.5066
10 16 0 4.2116 -0.3931
10 16 2 -3.1227 1.2590
10 16 4 1.0808 1.9823
10 17 1 5.7676 -1.3545
10 17 3 1.1617 -1.2407
10 18 0 3.6703 1.5573
10 18 2 -4.1054 3.4022
10 19 1 7.6325 3.3514
11 0 1 2.1815 6.1361
11 0 3 4.4822 -7.4036
11 0 5 3.2973 3.5448
11 0 7 0.2730 -11.4774
11 0 9 -2.7471 6.5548
11 0 11 -3.3240 -2.6645
11 0 13 -2.4915 -1.6552
11 0 15 -0.7609 -3.8510
11 0 17 0.9327 -9.7794
11 1 0 2.0360 2.7950
11 1 2 -2.6963 -4.6545
11 1 4 3.0534 -8.6396
11 1 6 -2.9182 -14.1245
11 1 8 -3.8990 14.7772
11 1 10 3.8691 -6.7325
11 1 12 -3.4524 5.2842
11 1 14 -4.6374 4.2229
11 1 16 -3.0285 3.0722
11 2 1 -0.2966 3.8870
11 2 3 0.4671 -0.4335
11 2 5 -6.8245 -9.3690
11 2 7 -6.2534 4.4700
11 2 9 6.3662 1.9571
11 2 11 0.8365 -2.6093
11 2 13 6.1887 4.3655
11 2 15 0.7219 2.4372
11 2 17 1.3770 -3.9582
11 3 0 -5.1365 -5.5884
11 3 2 2.1161 2.6248
11 3 4 -0.3378 -9.6911
11 3 6 -10.9825 4.0229
11 3 8 8.8286 4.1095
11 3 10 -0.8251 -1.5083
11 3 12 -3.8311 -8.1123
11 3 14 3.5518 1.6357
11 4 1 -3.7550 1.2391
11 4 3 2.3513 0.9028
11 4 5 -7.8547 -4.6660
11 4 7 1.5232 6.4482
11 4 17 0.4535 -0.6548
11 5 0 5.5248 2.1625
11 5 2 5.0483 -0.3456
11 5 4 -2.5217 -0.2638
11 5 6 -7.1364 -0.9357
11 5 8 3.4920 -4.1988
11 6 1 -2.1841 -17.7797
11 6 3 5.3640 4.2760
11 6 5 -9.5236 1.6406
11 6 7 2.3273 1.9004
11 7 0 -3.2798 5.9151
11 7 2 -0.2932 -5.9593
11 7 4 2.1837 6.7575
11 7 6 -0.5425 -5.9244
11 7 8 3.4206 -6.4297
11 8 1 2.4408 -3.4720
11 8 3 -2.0234 -6.6324
11 8 5 -1.3694 -1.1084
11 8 9 3.6148 7.4412
11 8 11 0.3112 4.8722
11 8 13 1.2181 -1.5066
11 9 0 0.9421 -6.5962
11 9 2 -2.5649 1.0162
11 9 4 -12.9998 4.5417
11 10 1 -1.4992 9.3380
11 10 3 1.1119 6.8426
11 11 0 1.1613 2.1309
11 11 2 18.5120 0.9102
11 11 4 -23.6766 0.4112
11 12 1 1.5150 -2.8351
11 12 3 -0.7881 5.3388
11 13 0 -2.9217 1.5119
11 14 1 -1.0694 3.9396
11 15 0 2.7633 6.3200
12 0 0 -14.2985 3.6782
12 0 2 7.7013 3.3538
12 0 4 -11.6764 0.4335
12 0 6 1.7056 -1.3141
12 0 8 2.3438 -1.7826
12 0 10 -3.7928 -1.3587
12 0 12 5.9676 -0.5068
12 0 14 4.4971 -0.2083
12 1 1 10.7159 0.5184
12 1 3 -1.1151 5.0784
12 1 5 1.8393 2.8037
12 1 7 0.3514 -1.5235
12 1 9 0.4478 2.2750
12 1 11 0.2330 -1.2300
12 1 13 -1.1064 -2.7673
12 1 15 0.0512 -1.9396
12 2 0 -4.8342 -3.5246
12 2 2 2.1698 -5.5848
12 2 4 -2.1393 2.2946
12 2 6 3.1674 -1.2263
12 2 8 -0.1486 1.0260
12 2 10 0.9471 -1.7053
12 2 12 0.9387 0.8098
12 2 14 -0.0001 -1.1488
12 3 1 2.7810 0.4267
12 3 3 -4.2669 9.2459
12 3 5 5.0970 -4.1810
12 3 7 0.8956 0.2687
12 3 9 -0.4116 1.1117
12 3 11 3.0761 -0.6255
12 3 13 -2.3714 -1.1688
12 4 0 1.9410 -0.3188
12 4 2 2.6904 -2.5923
12 4 4 -0.2203 0.3472
12 4 6 -1.4630 -1.1516
12 4 8 1.3075 -1.3515
12 4 10 1.4512 -3.1324
12 4 12 0.1732 -2.2101
12 4 14 -3.5139 0.8561
12 5 1 0.2977 2.4835
12 5 3 -1.7433 0.4564
12 5 5 3.2650 4.3554
12 5 7 1.5326 0.7618
12 5 9 -7.4668 0.5130
12 5 11 1.7900 0.8217
12 5 13 -6.1077 0.1437
12 6 0 0.1207 1.8542
12 6 2 4.6264 0.7274
12 6 4 0.2706 -4.6970
12 6 8 3.2399 1.6740
12 6 10 2.9512 -0.0469
12 6 12 -2.1686 1.7207
12 7 1 9.2841 5.6744
12 7 3 -4.1682 -5.1106
12 8 0 6.5651 -2.2563
12 8 2 5.4401 -6.6195
12 8 4 -4.7691 -4.8879
12 9 1 -4.8509 -2.9945
12 9 3 -9.2657 3.6457
12 10 0 3.5905 0.8015
12 10 2 0.0106 4.2661
12 11 1 -2.8533 -3.8748
12 12 0 2.1600 0.3110
13 0 1 -0.5243 -13.8575
13 0 3 -2.0813 20.2732
13 0 5 -2.5864 3.2960
13 0 7 -1.8428 -6.4745
13 0 9 -1.1663 7.9748
13 1 0 0.7311 7.7204
13 1 2 9.4618 8.4152
13 1 4 7.6619 6.1089
13 1 6 0.5224 2.2704
13 1 8 1.1863 1.3091
13 1 10 -3.3069 -1.8938
13 2 1 11.6913 -18.7697
13 2 3 -2.3032 0.1242
13 2 5 4.3817 -3.7949
13 2 7 -1.6712 -2.9066
13 2 9 -1.8907 2.0592
13 3 0 -1.4399 -10.4982
13 3 2 3.7044 1.9612
13 3 6 -1.7580 -4.7964
13 3 8 -4.3300 6.5273
13 4 1 -5.1990 -16.9721
13 5 0 0.7911 21.5358
13 5 2 -25.6164 -7.8294
13 6 1 7.1847 7.7906
13 7 0 -0.4484 3.4138
0 0 0 0.0 0.0
;
_olex2_submission_special_instructions 'No special instructions were received'
_oxdiff_exptl_absorpt_empirical_details
;
Empirical correction (ABSPACK) includes:
- Absorption correction using spherical harmonics
- Frame scaling
;
_oxdiff_exptl_absorpt_empirical_full_max 2.110
_oxdiff_exptl_absorpt_empirical_full_min 0.562
loop_
_space_group_symop_operation_xyz
'x, y, z'
'-x+1/2, -y, z+1/2'
'-x, y+1/2, -z+1/2'
'x+1/2, -y+1/2, -z'
'x+1/2, y+1/2, z+1/2'
'-x+1, -y+1/2, z+1'
'-x+1/2, y+1, -z+1'
'x+1, -y+1, -z+1/2'
loop_
_atom_site_label
_atom_site_type_symbol
_atom_site_fract_x
_atom_site_fract_y
_atom_site_fract_z
_atom_site_U_iso_or_equiv
_atom_site_adp_type
_atom_site_occupancy
_atom_site_site_symmetry_order
_atom_site_calc_flag
_atom_site_refinement_flags_posn
_atom_site_refinement_flags_adp
_atom_site_refinement_flags_occupancy
_atom_site_disorder_assembly
_atom_site_disorder_group
Ag1 Ag 0.3877(2) 0.79873(9) 0.54743(9) 0.0720(6) Uani 1 1 d . . . A 1
Ag2 Ag 0.2280(3) 0.65738(10) 0.56170(10) 0.0812(7) Uani 1 1 d . . . . .
Ag3 Ag -0.0359(3) 0.68045(11) 0.57563(11) 0.0907(9) Uani 1 1 d . . . . .
S1 S 0.5548(6) 0.8573(3) 0.5181(3) 0.0660(16) Uani 1 1 d . . . . .
S2 S 0.2185(6) 0.7632(3) 0.5958(3) 0.0615(15) Uani 1 1 d . . . . .
F1 F 0.103(3) 0.6158(12) 0.7750(13) 0.140(8) Uani 1 1 d . U . . .
F2 F 0.088(4) 0.4599(14) 0.6413(14) 0.149(9) Uani 1 1 d . U . . .
O1 O 0.197(2) 0.5874(9) 0.6295(10) 0.083(6) Uani 1 1 d D . . . .
O2 O 0.0136(18) 0.6197(12) 0.6515(10) 0.089(7) Uani 1 1 d D . . . .
C1 C 0.498(2) 0.9377(16) 0.5225(11) 0.102(8) Uani 1 1 d D U . . .
C2 C 0.440(3) 0.9417(12) 0.5800(15) 0.096(7) Uani 1 1 d D U . . .
H2A H 0.390902 0.907463 0.585868 0.144 Uiso 1 1 calc GR . . . .
H2B H 0.391874 0.976746 0.581576 0.144 Uiso 1 1 calc GR . . . .
H2C H 0.498916 0.943422 0.609550 0.144 Uiso 1 1 calc GR . . . .
C3 C 0.608(3) 0.9747(15) 0.5173(15) 0.102(9) Uani 1 1 d D U . . .
H3A H 0.659295 0.966670 0.549140 0.152 Uiso 1 1 calc GR . . . .
H3B H 0.586665 1.015912 0.517389 0.152 Uiso 1 1 calc GR . . . .
H3C H 0.647603 0.965342 0.481988 0.152 Uiso 1 1 calc GR . . . .
C4 C 0.416(3) 0.944(2) 0.4727(16) 0.116(10) Uani 1 1 d D U . . .
H4A H 0.446513 0.973055 0.446335 0.174 Uiso 1 1 calc GR . . . .
H4B H 0.339741 0.957023 0.486343 0.174 Uiso 1 1 calc GR . . . .
H4C H 0.407540 0.906842 0.453467 0.174 Uiso 1 1 calc GR . . . .
C5 C 0.2606(19) 0.7652(10) 0.6684(14) 0.078(6) Uani 1 1 d D U . . .
C6 C 0.151(3) 0.7517(19) 0.7074(17) 0.098(10) Uani 1 1 d D U . . .
H6A H 0.089205 0.779644 0.699156 0.147 Uiso 1 1 calc GR . . . .
H6B H 0.173167 0.754861 0.747058 0.147 Uiso 1 1 calc GR . . . .
H6C H 0.122965 0.712315 0.699728 0.147 Uiso 1 1 calc GR . . . .
C7 C 0.312(4) 0.8275(14) 0.6849(13) 0.088(7) Uani 1 1 d D U . . .
H7A H 0.378012 0.836530 0.660388 0.132 Uiso 1 1 calc GR . . . .
H7B H 0.338097 0.826820 0.724240 0.132 Uiso 1 1 calc GR . . . .
H7C H 0.252227 0.857115 0.680290 0.132 Uiso 1 1 calc GR . . . .
C8 C 0.3505(19) 0.7157(13) 0.6871(14) 0.068(6) Uani 1 1 d D U . . .
H8A H 0.349661 0.684208 0.659454 0.103 Uiso 1 1 calc GR . . . .
H8B H 0.328303 0.700529 0.724140 0.103 Uiso 1 1 calc GR . . . .
H8C H 0.428522 0.732289 0.689306 0.103 Uiso 1 1 calc GR . . . .
C9 C 0.099(2) 0.5828(17) 0.6570(17) 0.098(8) Uani 1 1 d D U . . .
C10 C 0.102(3) 0.5391(18) 0.7046(17) 0.089(6) Uani 1 1 d . U . . .
C11 C 0.101(8) 0.556(2) 0.758(2) 0.16(2) Uani 1 1 d . U . . .
C12 C 0.100(5) 0.485(2) 0.6951(19) 0.112(11) Uani 1 1 d . U . . .
loop_
_atom_site_aniso_label
_atom_site_aniso_U_11
_atom_site_aniso_U_22
_atom_site_aniso_U_33
_atom_site_aniso_U_23
_atom_site_aniso_U_13
_atom_site_aniso_U_12
Ag1 0.0731(12) 0.0753(11) 0.0676(12) 0.0044(10) 0.0068(10) -0.0058(10)
Ag2 0.1045(18) 0.0723(11) 0.0669(13) 0.0079(10) 0.0105(12) -0.0043(11)
Ag3 0.1042(19) 0.0883(14) 0.0797(14) 0.0304(12) 0.0239(13) 0.0317(13)
S1 0.050(3) 0.072(3) 0.076(4) 0.014(3) 0.008(3) 0.007(3)
S2 0.062(4) 0.063(3) 0.059(3) 0.002(3) -0.001(3) 0.004(3)
F1 0.18(2) 0.117(10) 0.126(13) 0.012(10) 0.016(16) 0.011(13)
F2 0.18(2) 0.142(14) 0.123(12) 0.002(11) -0.003(15) 0.001(16)
O1 0.087(15) 0.079(12) 0.084(14) -0.003(11) -0.028(12) 0.014(11)
O2 0.050(11) 0.135(18) 0.081(14) 0.013(14) 0.020(10) 0.024(12)
C1 0.072(13) 0.095(17) 0.138(16) 0.009(14) -0.006(11) 0.004(11)
C2 0.096(18) 0.051(12) 0.141(16) 0.007(14) 0.003(13) -0.008(13)
C3 0.085(14) 0.097(19) 0.12(2) -0.021(17) 0.007(13) -0.006(13)
C4 0.083(14) 0.12(2) 0.142(16) -0.002(15) -0.014(13) 0.011(14)
C5 0.060(10) 0.098(11) 0.075(14) -0.019(9) 0.006(9) 0.008(8)
C6 0.061(11) 0.114(17) 0.12(2) 0.028(19) 0.021(14) 0.033(11)
C7 0.110(18) 0.104(10) 0.051(14) -0.017(12) -0.001(14) -0.007(11)
C8 0.024(8) 0.101(11) 0.081(14) -0.004(11) -0.001(9) -0.016(8)
C9 0.111(15) 0.096(11) 0.087(10) 0.012(9) -0.001(10) -0.003(10)
C10 0.057(16) 0.108(9) 0.101(9) 0.028(8) 0.013(11) 0.010(11)
C11 0.26(7) 0.107(10) 0.098(9) 0.031(10) 0.013(14) 0.021(16)
C12 0.12(3) 0.108(9) 0.105(12) 0.027(9) 0.005(16) 0.011(12)
loop_
_atom_type_symbol
_atom_type_description
_atom_type_scat_dispersion_real
_atom_type_scat_dispersion_imag
_atom_type_scat_source
C C 0.0181 0.0091 'International Tables Vol C Tables 4.2.6.8 and 6.1.1.4'
H H 0.0000 0.0000 'International Tables Vol C Tables 4.2.6.8 and 6.1.1.4'
Ag Ag 0.1306 4.2820 'International Tables Vol C Tables 4.2.6.8 and 6.1.1.4'
F F 0.0727 0.0534 'International Tables Vol C Tables 4.2.6.8 and 6.1.1.4'
O O 0.0492 0.0322 'International Tables Vol C Tables 4.2.6.8 and 6.1.1.4'
S S 0.3331 0.5567 'International Tables Vol C Tables 4.2.6.8 and 6.1.1.4'
loop_
_geom_angle_atom_site_label_1
_geom_angle_atom_site_label_2
_geom_angle_atom_site_label_3
_geom_angle
_geom_angle_site_symmetry_1
_geom_angle_site_symmetry_3
_geom_angle_publ_flag
Ag3 Ag1 Ag1 83.42(8) 4_566 6_564 ?
S1 Ag1 Ag1 76.43(17) . 6_564 ?
S1 Ag1 Ag3 54.7(2) . 4_566 ?
S2 Ag1 Ag1 112.99(17) . 6_564 ?
S2 Ag1 Ag3 137.33(19) . 4_566 ?
S2 Ag1 S1 163.6(3) . . ?
Ag2 Ag2 Ag3 105.79(14) 7_545 . ?
S1 Ag2 Ag2 58.00(18) 6_564 7_545 ?
S1 Ag2 Ag2 56.72(18) 4_466 7_545 ?
S1 Ag2 Ag3 52.19(17) 4_466 . ?
S1 Ag2 Ag3 163.71(19) 6_564 . ?
S1 Ag2 S1 112.83(19) 6_564 4_466 ?
S2 Ag2 Ag2 108.53(16) . 7_545 ?
S2 Ag2 Ag3 76.27(19) . . ?
S2 Ag2 S1 107.4(2) . 4_466 ?
S2 Ag2 S1 106.0(2) . 6_564 ?
O1 Ag2 Ag2 135.5(6) . 7_545 ?
O1 Ag2 Ag3 84.0(6) . . ?
O1 Ag2 S1 108.5(6) . 6_564 ?
O1 Ag2 S1 106.3(6) . 4_466 ?
O1 Ag2 S2 115.9(6) . . ?
Ag1 Ag3 Ag2 101.90(10) 4_466 . ?
Ag1 Ag3 Ag3 85.48(6) 4_466 6_464 ?
Ag2 Ag3 Ag3 85.42(13) . 6_464 ?
S1 Ag3 Ag1 50.23(16) 4_466 4_466 ?
S1 Ag3 Ag2 57.24(17) 4_466 . ?
S1 Ag3 Ag3 102.86(17) 4_466 6_464 ?
S2 Ag3 Ag1 81.99(18) 6_464 4_466 ?
S2 Ag3 Ag2 157.97(19) 6_464 . ?
S2 Ag3 Ag3 73.19(17) 6_464 6_464 ?
S2 Ag3 S1 132.0(2) 6_464 4_466 ?
O2 Ag3 Ag1 152.4(7) . 4_466 ?
O2 Ag3 Ag2 75.0(5) . . ?
O2 Ag3 Ag3 121.0(7) . 6_464 ?
O2 Ag3 S1 110.9(6) . 4_466 ?
O2 Ag3 S2 111.4(5) . 6_464 ?
Ag1 S1 Ag2 133.9(3) . 4_566 ?
Ag1 S1 Ag2 123.0(3) . 6_564 ?
Ag1 S1 Ag3 75.1(2) . 4_566 ?
Ag2 S1 Ag2 65.28(17) 6_564 4_566 ?
Ag3 S1 Ag2 70.6(2) 4_566 4_566 ?
Ag3 S1 Ag2 130.5(3) 4_566 6_564 ?
C1 S1 Ag1 104.0(8) . . ?
C1 S1 Ag2 113.6(8) . 6_564 ?
C1 S1 Ag2 113.0(8) . 4_566 ?
C1 S1 Ag3 103.1(8) . 4_566 ?
Ag1 S2 Ag2 97.9(2) . . ?
Ag1 S2 Ag3 114.3(3) . 6_464 ?
Ag3 S2 Ag2 117.6(3) 6_464 . ?
C5 S2 Ag1 103.3(8) . . ?
C5 S2 Ag2 108.4(8) . . ?
C5 S2 Ag3 113.4(7) . 6_464 ?
C9 O1 Ag2 122(2) . . ?
C9 O2 Ag3 130(2) . . ?
C2 C1 S1 105(2) . . ?
C2 C1 C3 113.9(15) . . ?
C2 C1 C4 114.2(15) . . ?
C3 C1 S1 104(2) . . ?
C4 C1 S1 105(3) . . ?
C4 C1 C3 113.5(15) . . ?
C6 C5 S2 110(2) . . ?
C6 C5 C7 109(3) . . ?
C6 C5 C8 102(2) . . ?
C7 C5 S2 111.1(18) . . ?
C7 C5 C8 109(2) . . ?
C8 C5 S2 115.1(19) . . ?
O1 C9 C10 114(3) . . ?
O2 C9 O1 123(3) . . ?
O2 C9 C10 122(3) . . ?
C11 C10 C9 121(4) . . ?
C12 C10 C9 121(4) . . ?
C12 C10 C11 117(4) . . ?
F1 C11 C12 114(4) . 8_456 ?
C10 C11 F1 123(4) . . ?
C10 C11 C12 123(4) . 8_456 ?
F2 C12 C11 115(4) . 8_456 ?
C10 C12 F2 125(4) . . ?
C10 C12 C11 120(5) . 8_456 ?
loop_
_geom_bond_atom_site_label_1
_geom_bond_atom_site_label_2
_geom_bond_distance
_geom_bond_site_symmetry_2
_geom_bond_publ_flag
Ag1 Ag1 3.363(5) 6_564 ?
Ag1 Ag3 3.027(3) 4_566 ?
Ag1 S1 2.407(7) . ?
Ag1 S2 2.362(7) . ?
Ag2 Ag2 2.913(5) 7_545 ?
Ag2 Ag3 3.049(4) . ?
Ag2 S1 2.720(7) 4_466 ?
Ag2 S1 2.681(8) 6_564 ?
Ag2 S2 2.519(6) . ?
Ag2 O1 2.26(2) . ?
Ag3 Ag3 3.244(5) 6_464 ?
Ag3 S1 2.555(8) 4_466 ?
Ag3 S2 2.473(7) 6_464 ?
Ag3 O2 2.30(2) . ?
S1 C1 1.93(4) . ?
S2 C5 1.75(3) . ?
F1 C11 1.42(6) . ?
F2 C12 1.38(5) . ?
O1 C9 1.29(2) . ?
O2 C9 1.29(2) . ?
C1 C2 1.50(3) . ?
C1 C3 1.50(3) . ?
C1 C4 1.50(3) . ?
C5 C6 1.57(2) . ?
C5 C7 1.57(2) . ?
C5 C8 1.57(2) . ?
C9 C10 1.48(5) . ?
C10 C11 1.29(6) . ?
C10 C12 1.23(6) . ?
C11 C12 1.44(6) 8_456 ?
loop_
_geom_torsion_atom_site_label_1
_geom_torsion_atom_site_label_2
_geom_torsion_atom_site_label_3
_geom_torsion_atom_site_label_4
_geom_torsion
_geom_torsion_site_symmetry_1
_geom_torsion_site_symmetry_2
_geom_torsion_site_symmetry_3
_geom_torsion_site_symmetry_4
_geom_torsion_publ_flag
Ag1 S2 C5 C6 171.6(18) . . . . ?
Ag1 S2 C5 C7 51(2) . . . . ?
Ag1 S2 C5 C8 -73.6(17) . . . . ?
Ag2 S2 C5 C6 -85.2(19) . . . . ?
Ag2 S2 C5 C7 154.1(18) . . . . ?
Ag2 S2 C5 C8 29.5(19) . . . . ?
Ag2 O1 C9 O2 -5(5) . . . . ?
Ag2 O1 C9 C10 -173(2) . . . . ?
Ag3 S2 C5 C6 47(2) 6_464 . . . ?
Ag3 S2 C5 C7 -73(2) 6_464 . . . ?
Ag3 S2 C5 C8 162.1(14) 6_464 . . . ?
Ag3 O2 C9 O1 26(6) . . . . ?
Ag3 O2 C9 C10 -168(3) . . . . ?
O1 C9 C10 C11 109(6) . . . . ?
O1 C9 C10 C12 -75(6) . . . . ?
O2 C9 C10 C11 -59(7) . . . . ?
O2 C9 C10 C12 117(5) . . . . ?
C9 C10 C11 F1 -4(11) . . . . ?
C9 C10 C11 C12 178(5) . . . 8_456 ?
C9 C10 C12 F2 -4(8) . . . . ?
C9 C10 C12 C11 -179(5) . . . 8_456 ?
C11 C10 C12 F2 172(6) . . . . ?
C11 C10 C12 C11 -3(7) . . . 8_456 ?
C12 C10 C11 F1 180(6) . . . . ?
C12 C10 C11 C12 2(10) . . . 8_456 ?
loop_
_smtbx_masks_void_nr
_smtbx_masks_void_average_x
_smtbx_masks_void_average_y
_smtbx_masks_void_average_z
_smtbx_masks_void_volume
_smtbx_masks_void_count_electrons
_smtbx_masks_void_content
1 -0.823 -0.722 -0.878 3043.1 818.3 ?
loop_
_twin_individual_id
_twin_individual_mass_fraction_refined
1 0.74(6)
2 0.26(6)
