#------------------------------------------------------------------------------
#$Date: 2020-09-06 11:14:41 +0300 (Sun, 06 Sep 2020) $
#$Revision: 255959 $
#$URL: file:///home/coder/svn-repositories/cod/cif/7/12/69/7126979.cif $
#------------------------------------------------------------------------------
#
# This file is available in the Crystallography Open Database (COD),
# http://www.crystallography.net/
#
# All data on this site have been placed in the public domain by the
# contributors.
#
data_7126979
loop_
_publ_author_name
'Song, Xueling'
'Peng, Chengdong'
'Xu, Xiaoxiang'
'Yin, Jinlin'
'Fei, Honghan'
_publ_section_title
;
 Efficient, broadband self-trapped white-light emission from
 haloplumbate-based metal-organic frameworks.
;
_journal_issue                   69
_journal_name_full
'Chemical communications (Cambridge, England)'
_journal_page_first              10078
_journal_page_last               10081
_journal_paper_doi               10.1039/d0cc04473c
_journal_volume                  56
_journal_year                    2020
_chemical_absolute_configuration unk
_chemical_formula_moiety         'C6 H2 Br O4 Pb S, C2 H8 N'
_chemical_formula_sum            'C8 H10 Br N O4 Pb S'
_chemical_formula_weight         503.36
_space_group_crystal_system      hexagonal
_space_group_IT_number           170
_space_group_name_Hall           'P 65'
_space_group_name_H-M_alt        'P 65'
_symmetry_Int_Tables_number      170
_atom_sites_solution_primary     iterative
_audit_block_doi                 10.5517/ccdc.csd.cc25kc7c
_audit_creation_date             2020-06-09
_audit_creation_method
;
Olex2 1.2
(compiled 2018.05.29 svn.r3508 for OlexSys, GUI svn.r5506)
;
_audit_update_record
;
2020-06-29 deposited with the CCDC.	2020-07-22 downloaded from the CCDC.
;
_cell_angle_alpha                90
_cell_angle_beta                 90
_cell_angle_gamma                120
_cell_formula_units_Z            6
_cell_length_a                   10.1079(9)
_cell_length_b                   10.1079(9)
_cell_length_c                   21.838(3)
_cell_measurement_reflns_used    9538
_cell_measurement_temperature    299(2)
_cell_measurement_theta_max      27.99
_cell_measurement_theta_min      2.98
_cell_volume                     1932.3(4)
_computing_molecular_graphics    'Olex2 (Dolomanov et al., 2009)'
_computing_publication_material  'Olex2 (Dolomanov et al., 2009)'
_computing_structure_refinement  'olex2.refine (Bourhis et al., 2015)'
_computing_structure_solution    'olex2.solve (Bourhis et al., 2015)'
_diffrn_ambient_temperature      299.0
_diffrn_measured_fraction_theta_full 0.9716
_diffrn_measured_fraction_theta_max 0.9716
_diffrn_measurement_device_type  'Bruker APEX-III CMOS'
_diffrn_measurement_method       '\f and \w scans'
_diffrn_radiation_type           'Mo K\a'
_diffrn_radiation_wavelength     0.71073
_diffrn_reflns_av_R_equivalents  0.0494
_diffrn_reflns_av_unetI/netI     0.0236
_diffrn_reflns_limit_h_max       13
_diffrn_reflns_limit_h_min       -13
_diffrn_reflns_limit_k_max       13
_diffrn_reflns_limit_k_min       -13
_diffrn_reflns_limit_l_max       28
_diffrn_reflns_limit_l_min       -28
_diffrn_reflns_number            27306
_diffrn_reflns_theta_full        27.9868
_diffrn_reflns_theta_max         27.99
_diffrn_reflns_theta_min         2.51
_diffrn_standards_number         0
_exptl_absorpt_coefficient_mu    16.361
_exptl_absorpt_correction_T_max  0.7456
_exptl_absorpt_correction_T_min  0.4241
_exptl_absorpt_correction_type   multi-scan
_exptl_absorpt_process_details
;
SADABS-2016/2 (Bruker,2016/2) was used for absorption correction.
wR2(int) was 0.1521 before and 0.0653 after correction.
The Ratio of minimum to maximum transmission is 0.5688.
The \l/2 correction factor is Not present.
;
_exptl_crystal_colour            colourless
_exptl_crystal_density_diffrn    2.5953
_exptl_crystal_description       block
_exptl_crystal_F_000             1362.0334
_exptl_crystal_size_max          0.35
_exptl_crystal_size_mid          0.21
_exptl_crystal_size_min          0.18
_refine_diff_density_max         0.5309
_refine_diff_density_min         -1.2797
_refine_diff_density_rms         0.1557
_refine_ls_abs_structure_details
'Flack, H. D. (1983). Acta Cryst. A39, 876-881.'
_refine_ls_abs_structure_Flack   0.010(8)
_refine_ls_d_res_high            0.7573
_refine_ls_d_res_low             8.1252
_refine_ls_goodness_of_fit_ref   1.0330
_refine_ls_hydrogen_treatment    constr
_refine_ls_matrix_type           full
_refine_ls_number_constraints    27
_refine_ls_number_parameters     177
_refine_ls_number_reflns         3015
_refine_ls_number_restraints     37
_refine_ls_restrained_S_all      1.0265
_refine_ls_R_factor_all          0.0221
_refine_ls_R_factor_gt           0.0210
_refine_ls_shift/su_max          0.0003
_refine_ls_shift/su_mean         0.0000
_refine_ls_structure_factor_coef Fsqd
_refine_ls_weighting_details
'w=1/[\s^2^(Fo^2^)+(0.0365P)^2^+1.0478P] where P=(Fo^2^+2Fc^2^)/3'
_refine_ls_weighting_scheme      calc
_refine_ls_wR_factor_gt          0.0533
_refine_ls_wR_factor_ref         0.0539
_reflns_Friedel_coverage         0.954
_reflns_limit_h_max              10
_reflns_limit_h_min              -10
_reflns_limit_k_max              11
_reflns_limit_k_min              -11
_reflns_limit_l_max              28
_reflns_limit_l_min              -28
_reflns_number_gt                2926
_reflns_number_total             3015
_reflns_threshold_expression     I>=2u(I)
_iucr_refine_instructions_details
;
TITL 191115a_a.res in P6(5)
REM Old TITL 191115a in P6(5)
REM SHELXT solution in P6(5)
REM R1 0.055, Rweak 0.023, Alpha 0.005, Orientation as input
REM Flack x = -0.008 ( 0.006 ) from Parsons' quotients
REM Formula found by SHELXT: C10 Br O3 Pb S
CELL 0.71073 10.1079 10.1079 21.8377 90 90 120
ZERR 6 0.0009 0.0009 0.0029 0 0 0
LATT -1
SYMM -Y,+X-Y,0.667+Z
SYMM +Y-X,-X,0.333+Z
SYMM -X,-Y,0.5+Z
SYMM +Y,-X+Y,0.167+Z
SYMM -Y+X,+X,0.833+Z
SFAC C H Br N O Pb S
UNIT 48 60 6 6 24 6 6
SADI 0.01 N1 C7 N1 C8 N1' C7' N1' C8'
SADI C7 C8 C7' C8'
DELU N1 > C8'
SIMU 0.01 0.02 2 N1 > C8'

L.S. 10
PLAN  20
SIZE 0.18 0.21 0.35
TEMP 25.85
BOND $H
LIST 4
acta 
FMAP 2
WGHT 0.036508 1.047751
FVAR 0.286868 0.667756
REM <olex2.extras>
REM <HklSrc "%.\\191115a_a.hkl">
REM </olex2.extras>

Pb1   6     1.16388  1.05721  0.57855  11.00000  0.02463  0.02686  0.02038 =
 0.00282 -0.00048  0.01266 
S1    7     0.57694  0.48846  0.58222  11.00000  0.03217  0.02142  0.03667 =
 0.00357 -0.00973  0.00387 
Br1   3     1.20155  1.23555  0.69464  11.00000  0.04412  0.03564  0.03876 =
 -0.00680 -0.00318  0.01447 
C1    1     0.81675  0.73547  0.64240  11.00000  0.02582  0.03214  0.03380 =
 -0.00473 -0.00419  0.00881 
O1    5     0.93042  0.87044  0.63784  11.00000  0.02377  0.04265  0.04308 =
 -0.00667 -0.00832 -0.00043 
C2    1     0.71388  0.67847  0.58857  11.00000  0.01933  0.02338  0.03413 =
 -0.00011 -0.00568  0.00186 
O2    5     0.78958  0.65626  0.68897  11.00000  0.06235  0.03807  0.04770 =
 0.00399 -0.02345  0.00833 
C3    1     0.71402  0.76014  0.53863  11.00000  0.03311  0.02140  0.05039 =
 0.00339 -0.01305  0.00042 
AFIX 43
H3    2     0.78241  0.86375  0.53318  11.00000 -1.20000 
AFIX 0
O3    5     0.34158  0.42843  0.43127  11.00000  0.04318  0.03552  0.04985 =
 0.00176 -0.02095  0.00936 
O4    5     0.33825  0.25799  0.49717  11.00000  0.03029  0.02281  0.04109 =
 -0.00031 -0.00547  0.00420 
C4    1     0.59904  0.66958  0.49656  11.00000  0.04157  0.02755  0.04598 =
 0.00646 -0.01881  0.00415 
AFIX 43
H4    2     0.58063  0.70806  0.46089  11.00000 -1.20000 
AFIX 0
C6    1     0.39053  0.39371  0.47826  11.00000  0.02302  0.02662  0.03527 =
 0.00114 -0.00461  0.00795 
C5    1     0.51760  0.52074  0.51297  11.00000  0.02463  0.02358  0.03314 =
 0.00063 -0.00391  0.00411 

PART 1
N1    4     1.12535  1.60235  0.63404  21.00000  0.13948  0.07916  0.10303 =
 -0.01277  0.01448  0.06260 
AFIX 23
H1a   2     1.14242  1.65368  0.66952  21.00000 -1.20000 
H1b   2     1.11393  1.65938  0.60515  21.00000 -1.20000 
AFIX 0
C7    1     1.26187  1.60268  0.61982  21.00000  0.14208  0.06377  0.11303 =
 -0.01160  0.00797  0.06435 
AFIX 137
H7a   2     1.29768  1.64806  0.58026  21.00000 -1.50000 
H7b   2     1.33792  1.66060  0.65013  21.00000 -1.50000 
H7c   2     1.24278  1.49962  0.61941  21.00000 -1.50000 
AFIX 0
C8    1     0.98316  1.46925  0.64003  21.00000  0.15100  0.07785  0.10575 =
 -0.01092  0.02061  0.06776 
AFIX 137
H8a   2     0.92543  1.48327  0.67170  21.00000 -1.50000 
H8b   2     0.92862  1.44793  0.60199  21.00000 -1.50000 
H8c   2     0.99792  1.38528  0.65051  21.00000 -1.50000 
AFIX 0
PART 0
PART 2
N1'   4     1.11753  1.54995  0.58675 -21.00000  0.04916  0.02255  0.04641 =
 -0.00540 -0.00156  0.02256 
AFIX 23
H1'a  2     1.12260  1.62292  0.56162 -21.00000 -1.20000 
H1'b  2     1.08641  1.46622  0.56336 -21.00000 -1.20000 
AFIX 0
C7'   1     1.26872  1.59683  0.60186 -21.00000  0.05071  0.02252  0.04982 =
 -0.00637 -0.00295  0.02638 
AFIX 137
H7'a  2     1.32551  1.70610  0.60542 -21.00000 -1.50000 
H7'b  2     1.27163  1.55170  0.64015 -21.00000 -1.50000 
H7'c  2     1.31309  1.56494  0.57040 -21.00000 -1.50000 
AFIX 0
C8'   1     0.99505  1.51501  0.62611 -21.00000  0.06094  0.03927  0.05323 =
 -0.00268  0.00862  0.03180 
AFIX 137
H8'a  2     0.90077  1.45996  0.60395 -21.00000 -1.50000 
H8'b  2     0.99595  1.45326  0.65933 -21.00000 -1.50000 
H8'c  2     1.00442  1.60784  0.64204 -21.00000 -1.50000 
AFIX 0
HKLF 4

END
Q1 1 0.833333 0.888889 0.453333 11 0.05 0.53
Q2 1 1 1.083333 0.626667 11 0.05 0.52
Q3 1 0.916667 0.944444 0.686667 11 0.05 0.44
Q4 1 0.638889 0.75 0.62 11 0.05 0.44
Q5 1 0.833333 0.722222 0.546667 11 0.05 0.43
Q6 1 0.861111 0.833333 0.52 11 0.05 0.4
Q7 1 0.805556 0.888889 0.54 11 0.05 0.4
Q8 1 0.694444 0.722222 0.56 11 0.05 0.4
Q9 1 1.111111 1.5 0.646667 11 0.05 0.39
Q10 1 1.027778 0.972222 0.613333 11 0.05 0.38
Q11 1 0.916667 0.972222 0.606667 11 0.05 0.37
Q12 1 0.666667 0.75 0.513333 11 0.05 0.36
Q13 1 0.694444 0.777778 0.686667 11 0.05 0.35
Q14 1 0.722222 0.666667 0.446667 11 0.05 0.35
Q15 1 1.166667 1.055556 0.52 11 0.05 0.34
Q16 1 1.25 1 0.546667 11 0.05 0.33
Q17 1 1.111111 0.944444 0.626667 11 0.05 0.33
Q18 1 0.833333 1.027778 0.493333 11 0.05 0.33
Q19 1 0.555556 0.638889 0.626667 11 0.05 0.33
Q20 1 1.305556 1.722222 0.72 11 0.05 0.32

  REM The information below was added by Olex2.
  REM
  REM R1 = 0.0210 for 2926 Fo > 4sig(Fo) and 0.0221 for all 3015 data
  REM 177 parameters refined using 37 restraints
  REM Highest difference peak 0.5309, deepest hole -1.2797
  REM Mean Shift 0.0000, Max Shift 0.0003.

  REM +++ Tabular Listing of Refinement Information +++
  REM R1_all = 0.0221
  REM R1_gt = 0.0210
  REM wR_ref = 0.0539
  REM GOOF = 1.0330
  REM Shift_max = 0.0003
  REM Shift_mean = 0.0000
  REM Reflections_all = 3015
  REM Reflections_gt = 2926
  REM Parameters = 177
  REM Hole = -1.2797
  REM Peak = 0.5309
  REM Flack = 0.010(8)

  
;
_cod_data_source_file            d0cc04473c2.cif
_cod_data_source_block           191115a_a
_cod_depositor_comments
'Adding full bibliography for 7126979--7126980.cif.'
_cod_original_cell_volume        1932.2(4)
_cod_original_sg_symbol_Hall     ' P 65'
_cod_database_code               7126979
_olex2_refinement_description
;
1. Fixed Uiso
 At 1.2 times of:
  All C(H) groups, All N(H,H) groups
 At 1.5 times of:
  All C(H,H,H) groups
2. Restrained distances
 N1-C7 \\sim N1-C8 \\sim N1'-C7' \\sim N1'-C8'
 with sigma of 0.01
 C7-C8 \\sim C7'-C8'
 with sigma of 0.02
3. Rigid bond restraints
 N1, C7, C8, N1', C7', C8'
 with sigma for 1-2 distances of 0.01 and sigma for 1-3 distances of 0.01
4. Uiso/Uaniso restraints and constraints
N1 \\sim C7 \\sim C8 \\sim N1' \\sim C7' \\sim C8': within 2A with sigma of
0.01 and sigma for terminal atoms of 0.02
5. Others
 Sof(N1')=Sof(H1'a)=Sof(H1'b)=Sof(C7')=Sof(H7'a)=Sof(H7'b)=Sof(H7'c)=Sof(C8')=
 Sof(H8'a)=Sof(H8'b)=Sof(H8'c)=1-FVAR(1)
 Sof(N1)=Sof(H1a)=Sof(H1b)=Sof(C7)=Sof(H7a)=Sof(H7b)=Sof(H7c)=Sof(C8)=Sof(H8a)=
 Sof(H8b)=Sof(H8c)=FVAR(1)
6.a Secondary CH2 refined with riding coordinates:
 N1(H1a,H1b), N1'(H1'a,H1'b)
6.b Aromatic/amide H refined with riding coordinates:
 C3(H3), C4(H4)
6.c Idealised Me refined as rotating group:
 C7(H7a,H7b,H7c), C8(H8a,H8b,H8c), C7'(H7'a,H7'b,H7'c), C8'(H8'a,H8'b,H8'c)
;
_iucr_refine_fcf_details
;
data_191115a_a_CCDC1
_computing_structure_refinement   'olex2.refine (Bourhis et al., 2015)'
_shelx_refln_list_code            4
loop_
  _space_group_symop_id
  _space_group_symop_operation_xyz
  1  x,y,z
  2  x-y,x,z+5/6
  3  y,-x+y,z+1/6
  4  -y,x-y,z+2/3
  5  -x+y,-x,z+1/3
  6  -x,-y,z+1/2

_space_group_crystal_system       hexagonal
_space_group_IT_number            170
_space_group_name_H-M_alt         'P 65'
_space_group_name_Hall            ' P 65'
_symmetry_space_group_name_H-M    'P 65'
_symmetry_space_group_name_Hall   ' P 65'
_symmetry_Int_Tables_number       170
_cell_length_a                    10.1079(9)
_cell_length_b                    10.1079(9)
_cell_length_c                    21.838(3)
_cell_angle_alpha                 90
_cell_angle_beta                  90
_cell_angle_gamma                 120
_cell_volume                      1932.2(4)
loop_
  _refln_index_h
  _refln_index_k
  _refln_index_l
  _refln_F_squared_calc
  _refln_F_squared_meas
  _refln_F_squared_sigma
  _refln_F_squared_weight
  _refln_observed_status
-10 -2 -7 160.610 201.718 164.048 42.136 o
-10 -2 -6 2081.550 1536.170 569.245 3.456 o
-10 -2 -5 717.797 740.518 76.559 156.140 o
-10 -2 -4 762.061 743.520 66.133 192.902 o
-10 -2 -3 6344.800 6171.820 165.802 13.178 o
-10 -2 -2 1394.080 1276.790 77.028 116.666 o
-10 -2 -1 327.520 314.894 63.910 250.592 o
-10 -1 -11 1440.500 842.509 437.782 5.863 o
-10 -1 -10 1002.480 887.727 72.310 152.888 o
-10 -1 -9 4022.670 4081.590 133.165 26.135 o
-10 -1 -8 2108.890 2063.900 97.284 65.327 o
-10 -1 -7 1096.450 904.996 79.087 130.548 o
-10 -1 -6 1653.960 1595.650 116.987 60.304 o
-10 -1 -5 2272.830 2467.340 107.509 53.700 o
-10 -1 -4 692.757 726.185 60.796 224.448 o
-10 -1 -3 6589.970 6690.700 168.390 12.193 o
-10 -1 -2 1239.510 1265.520 74.698 127.546 o
-10 -1 -1 683.025 589.687 65.206 207.828 o
-9 -3 -9 8310.420 8452.400 633.649 2.271 o
-9 -3 -8 2879.350 2902.100 149.697 31.288 o
-9 -3 -7 442.032 376.721 63.776 241.050 o
-9 -3 -6 2101.810 1958.930 118.827 52.216 o
-9 -3 -5 782.778 747.166 68.562 181.464 o
-9 -3 -4 2380.000 2399.120 111.422 50.803 o
-9 -3 -3 5699.570 5711.260 171.397 14.526 o
-9 -3 -2 2283.860 2322.370 130.507 43.195 o
-9 -3 -1 1024.460 1013.900 80.515 127.867 o
-9 -2 -13 34.082 186.804 151.131 49.842 o
-9 -2 -12 3021.430 2971.090 183.544 23.396 o
-9 -2 -11 696.655 622.934 86.291 130.631 o
-9 -2 -10 1017.680 789.647 87.218 116.961 o
-9 -2 -9 8965.580 9008.430 247.788 6.413 o
-9 -2 -8 1027.740 1116.910 67.005 161.306 o
-9 -2 -7 922.668 1073.010 72.346 152.153 o
-9 -2 -6 1921.140 2034.600 93.950 71.486 o
-9 -2 -5 79.491 117.076 47.054 492.434 o
-9 -2 -4 443.309 323.384 54.052 321.065 o
-9 -2 -3 10976.600 10892.700 281.805 4.561 o
-9 -2 -2 502.658 573.339 61.258 244.672 o
-9 -2 -1 1444.690 1404.600 80.433 106.856 o
-9 -1 -16 3252.980 2793.990 313.278 10.012 o
-9 -1 -15 3150.200 3057.990 157.969 27.756 o
-9 -1 -14 3478.600 3544.110 164.810 24.243 o
-9 -1 -13 328.732 317.383 68.907 218.638 o
-9 -1 -12 4446.530 4786.710 187.604 16.892 o
-9 -1 -11 1013.680 1000.310 115.219 72.869 o
-9 -1 -10 5456.440 5471.670 141.005 17.493 o
-9 -1 -9 7486.430 7429.050 173.455 10.187 o
-9 -1 -8 4996.810 5061.710 138.084 19.749 o
-9 -1 -7 672.038 720.604 62.910 215.313 o
-9 -1 -6 4870.740 5118.460 135.470 20.328 o
-9 -1 -5 125.100 95.738 45.170 524.736 o
-9 -1 -4 6455.580 6620.030 172.564 12.282 o
-9 -1 -3 6670.880 7177.950 161.693 11.951 o
-9 -1 -2 4745.430 5018.100 135.132 20.977 o
-9 -1 -1 521.358 544.321 55.432 285.833 o
-8 -5 -4 1430.030 1036.420 196.857 26.990 o
-8 -5 -3 918.026 500.649 204.148 26.404 o
-8 -5 -2 1925.700 995.101 274.628 14.187 o
-8 -5 -1 3144.820 1465.370 311.083 10.549 o
-8 -4 -11 95.378 99.899 149.846 50.662 o
-8 -4 -10 6396.980 6150.740 207.200 11.133 o
-8 -4 -9 492.872 410.173 78.600 164.414 o
-8 -4 -8 6629.550 6532.170 211.915 10.410 o
-8 -4 -7 162.318 246.685 53.677 365.384 o
-8 -4 -6 2183.610 2289.650 99.052 61.145 o
-8 -4 -5 28.859 -6.449 48.397 483.863 o
-8 -4 -4 3358.230 3287.870 121.085 34.670 o
-8 -4 -3 429.300 384.790 54.685 312.928 o
-8 -4 -2 5645.840 5712.710 154.427 15.747 o
-8 -4 -1 278.783 240.504 49.274 408.189 o
-8 -3 -14 1540.520 1492.400 123.171 57.553 o
-8 -3 -13 460.897 435.632 87.689 135.526 o
-8 -3 -12 2053.150 2009.090 147.518 38.842 o
-8 -3 -11 806.784 658.710 81.031 140.733 o
-8 -3 -10 3933.850 3779.510 160.504 22.904 o
-8 -3 -9 2597.560 2525.230 134.688 38.543 o
-8 -3 -8 4686.700 5207.470 177.292 16.811 o
-8 -3 -7 2769.080 2750.130 113.035 44.238 o
-8 -3 -6 1981.040 2151.520 93.979 69.283 o
-8 -3 -5 644.322 731.942 57.381 248.396 o
-8 -3 -4 1619.410 1632.780 86.059 90.582 o
-8 -3 -3 4743.230 5107.770 145.574 19.770 o
-8 -3 -2 4313.150 4378.500 127.353 24.960 o
-8 -3 -1 3447.110 3531.490 122.955 32.801 o
-8 -2 -17 2884.060 2577.950 664.028 2.517 o
-8 -2 -16 2953.000 3069.740 153.828 29.522 o
-8 -2 -15 2247.390 2446.580 134.542 41.334 o
-8 -2 -14 1814.560 1825.840 111.775 60.798 o
-8 -2 -13 1686.260 1697.980 106.211 67.817 o
-8 -2 -12 1856.080 1992.680 126.312 50.219 o
-8 -2 -11 2459.620 2562.970 131.837 40.422 o
-8 -2 -10 3082.790 3386.440 145.100 30.166 o
-8 -2 -9 3862.600 4027.810 155.318 23.484 o
-8 -2 -8 3662.340 4039.940 116.137 31.252 o
-8 -2 -7 2151.320 2290.480 89.303 68.401 o
-8 -2 -6 3070.950 3206.570 100.867 43.338 o
-8 -2 -5 3992.880 4082.730 113.523 29.565 o
-8 -2 -4 5303.490 5263.950 134.556 18.758 o
-8 -2 -3 4272.090 4632.310 130.045 24.210 o
-8 -2 -2 4928.800 5237.320 136.955 19.790 o
-8 -2 -1 7877.040 8220.170 174.161 9.234 o
-8 -1 -19 2648.320 2450.500 292.206 11.790 o
-8 -1 -18 100.382 77.124 64.446 268.277 o
-8 -1 -17 1247.920 1154.680 87.746 104.436 o
-8 -1 -16 4243.920 4339.520 159.614 21.047 o
-8 -1 -15 45.898 10.145 54.809 375.952 o
-8 -1 -14 3940.040 4194.900 153.335 23.181 o
-8 -1 -13 5415.930 5314.020 182.686 14.730 o
-8 -1 -12 1403.890 1437.620 92.874 89.481 o
-8 -1 -11 6700.320 7038.050 194.966 10.684 o
-8 -1 -10 6222.060 6444.010 155.098 13.695 o
-8 -1 -9 13.254 33.215 33.023 1028.300 o
-8 -1 -8 6874.690 7188.180 162.865 11.577 o
-8 -1 -7 5158.480 5709.970 163.005 16.285 o
-8 -1 -6 2000.750 2087.480 99.556 65.227 o
-8 -1 -5 6832.580 7108.880 154.318 12.038 o
-8 -1 -4 8858.810 9134.380 202.438 7.276 o
-8 -1 -3 275.385 241.445 40.024 579.922 o
-8 -1 -2 9203.110 9300.170 195.766 7.071 o
-8 -1 -1 5354.450 5569.780 130.739 18.434 o
-7 -6 -5 460.368 158.493 115.441 82.397 o
-7 -6 -4 729.339 532.241 130.598 62.347 o
-7 -6 -3 4824.100 4498.350 191.865 16.015 o
-7 -6 -2 758.649 612.930 70.568 178.763 o
-7 -6 -1 1752.620 1627.690 107.937 65.918 o
-7 -5 -12 2100.720 1898.690 242.291 17.233 o
-7 -5 -11 34.371 -40.981 65.713 263.267 o
-7 -5 -10 6230.830 5898.400 374.394 5.818 o
-7 -5 -9 4523.690 4284.970 272.646 10.856 o
-7 -5 -8 5727.270 5518.660 190.051 13.497 o
-7 -5 -7 106.121 91.507 47.951 472.646 o
-7 -5 -6 2642.330 2685.990 115.827 44.648 o
-7 -5 -5 410.193 457.085 54.133 315.998 o
-7 -5 -4 4538.210 4581.480 150.422 20.780 o
-7 -5 -3 3733.530 3717.540 127.762 29.502 o
-7 -5 -2 4911.420 5026.670 140.689 19.837 o
-7 -5 -1 1118.070 1263.880 88.208 105.697 o
-7 -4 -15 784.773 506.530 128.438 64.017 o
-7 -4 -14 2955.510 3168.280 159.473 28.016 o
-7 -4 -13 972.586 778.038 115.486 74.309 o
-7 -4 -12 11.337 -32.934 66.234 260.146 o
-7 -4 -11 2095.890 1916.410 126.675 48.232 o
-7 -4 -10 7591.220 7305.390 223.620 8.613 o
-7 -4 -9 1159.400 1054.500 84.840 113.639 o
-7 -4 -8 7015.550 6847.490 234.380 9.018 o
-7 -4 -7 2430.840 2536.060 107.220 51.538 o
-7 -4 -6 437.473 620.174 52.227 319.288 o
-7 -4 -5 2495.020 2819.750 104.005 50.641 o
-7 -4 -4 4285.180 4525.020 134.446 23.797 o
-7 -4 -3 238.410 185.222 46.563 463.962 o
-7 -4 -2 6204.220 6259.890 161.372 13.583 o
-7 -4 -1 3516.670 3676.580 116.234 33.394 o
-7 -3 -18 409.977 254.625 135.935 60.098 o
-7 -3 -17 6256.790 6204.910 200.001 11.616 o
-7 -3 -16 3281.260 3412.280 156.539 26.762 o
-7 -3 -15 1013.490 828.262 96.043 100.040 o
-7 -3 -14 1669.250 1631.780 103.030 71.416 o
-7 -3 -13 3790.840 4040.020 154.551 23.846 o
-7 -3 -12 496.011 506.915 71.797 190.204 o
-7 -3 -11 5412.130 5458.030 179.109 14.843 o
-7 -3 -10 2410.430 2570.480 122.683 44.448 o
-7 -3 -9 822.997 907.366 67.487 178.320 o
-7 -3 -8 3379.160 3482.040 123.161 33.358 o
-7 -3 -7 6327.860 7123.650 148.983 13.136 o
-7 -3 -6 96.539 122.639 38.127 724.243 o
-7 -3 -5 9758.800 10154.200 200.358 6.321 o
-7 -3 -4 5714.830 6054.530 139.810 16.120 o
-7 -3 -3 1813.850 1879.740 84.406 84.442 o
-7 -3 -2 6231.560 6613.260 153.668 13.584 o
-7 -3 -1 16733.500 17252.400 305.740 2.323 o
-7 -2 -20 522.575 324.787 132.304 62.612 o
-7 -2 -19 5286.730 5248.920 236.202 11.620 o
-7 -2 -18 3800.010 3847.640 162.044 23.021 o
-7 -2 -17 5617.800 5789.310 177.423 14.230 o
-7 -2 -16 961.172 888.203 85.060 121.806 o
-7 -2 -15 334.421 368.035 60.302 274.991 o
-7 -2 -14 1514.810 1575.190 92.808 85.568 o
-7 -2 -13 8755.090 9086.670 218.504 7.067 o
-7 -2 -12 3748.460 3968.830 136.716 27.116 o
-7 -2 -11 8015.630 8676.020 208.142 8.032 o
-7 -2 -10 3238.710 3656.650 141.341 29.524 o
-7 -2 -9 477.504 378.355 53.795 315.588 o
-7 -2 -8 1744.620 1889.830 70.293 102.959 o
-7 -2 -7 7096.180 7257.050 152.736 11.554 o
-7 -2 -6 5133.400 5615.460 124.195 19.602 o
-7 -2 -5 20491.000 20873.000 361.985 1.590 o
-7 -2 -4 2516.850 2624.150 114.019 46.936 o
-7 -2 -3 168.125 194.718 37.011 715.941 o
-7 -2 -2 1295.780 1234.830 88.581 100.724 o
-7 -2 -1 13216.700 13370.800 244.795 3.707 o
-7 -1 -21 62.502 55.801 63.935 275.128 o
-7 -1 -20 1889.080 2069.720 113.194 57.398 o
-7 -1 -19 4979.380 4967.660 196.042 14.918 o
-7 -1 -18 996.425 974.382 73.754 146.961 o
-7 -1 -17 4574.140 4582.340 144.177 21.370 o
-7 -1 -16 3999.500 4016.120 139.490 25.389 o
-7 -1 -15 400.325 392.448 58.874 279.292 o
-7 -1 -14 1182.980 1202.610 82.620 114.812 o
-7 -1 -13 10682.900 11249.100 246.535 4.977 o
-7 -1 -12 2564.700 2735.070 110.308 47.492 o
-7 -1 -11 14640.500 15778.900 309.096 2.775 o
-7 -1 -10 6380.070 6714.460 134.013 14.128 o
-7 -1 -9 833.998 888.911 46.527 283.990 o
-7 -1 -8 8231.770 9122.210 200.102 7.835 o
-7 -1 -7 16117.700 16456.200 290.612 2.526 o
-7 -1 -6 2508.330 2738.800 77.983 64.605 o
-7 -1 -5 21353.200 21893.200 353.059 1.494 o
-7 -1 -4 1450.240 1693.430 63.733 130.048 o
-7 -1 -3 187.769 214.709 32.482 870.884 o
-7 -1 -2 10574.100 10685.600 210.926 5.559 o
-7 -1 -1 8613.680 8998.180 184.535 7.881 o
-6 -7 -5 337.860 457.411 278.203 14.661 o
-6 -7 -4 988.841 782.837 122.033 67.315 o
-6 -7 -3 5334.930 5539.710 217.423 12.448 o
-6 -7 -2 536.230 485.188 61.747 242.440 o
-6 -7 -1 75.015 83.242 61.133 298.777 o
-6 -6 -12 2850.320 2155.690 358.474 8.144 o
-6 -6 -11 13.266 31.834 69.587 235.098 o
-6 -6 -10 528.351 377.206 82.225 151.110 o
-6 -6 -9 8497.270 8358.160 240.337 7.066 o
-6 -6 -8 167.623 125.570 68.304 235.358 o
-6 -6 -7 38.970 117.048 42.353 612.216 o
-6 -6 -6 3639.660 3334.060 129.247 30.823 o
-6 -6 -5 505.659 538.303 55.971 283.733 o
-6 -6 -4 498.345 509.739 56.683 280.561 o
-6 -6 -3 12356.200 12474.000 269.494 3.937 o
-6 -6 -2 75.133 17.202 48.270 477.848 o
-6 -6 -1 322.570 294.160 52.657 353.819 o
-6 -5 -16 1539.820 530.343 502.411 4.473 o
-6 -5 -15 3262.140 3534.230 175.285 23.229 o
-6 -5 -14 2819.340 2725.910 155.869 30.426 o
-6 -5 -13 2692.710 2659.730 178.417 25.851 o
-6 -5 -12 623.623 501.429 76.440 165.542 o
-6 -5 -11 2495.220 2295.870 134.739 40.031 o
-6 -5 -10 1890.690 1848.830 111.059 60.192 o
-6 -5 -9 7995.530 8345.770 227.407 7.729 o
-6 -5 -8 1596.050 1612.470 100.403 75.332 o
-6 -5 -7 3366.750 3527.110 109.732 36.627 o
-6 -5 -6 1575.380 1631.100 95.910 80.206 o
-6 -5 -5 2826.200 2917.650 104.247 46.219 o
-6 -5 -4 5284.850 5314.370 154.691 17.105 o
-6 -5 -3 3106.680 3150.660 109.408 40.507 o
-6 -5 -2 3612.950 3895.010 123.925 30.443 o
-6 -5 -1 3269.140 3223.760 113.913 37.488 o
-6 -4 -18 374.252 297.993 75.701 182.691 o
-6 -4 -17 4971.180 5402.070 207.099 13.756 o
-6 -4 -16 1888.870 2127.730 121.869 51.784 o
-6 -4 -15 815.598 703.525 71.606 169.381 o
-6 -4 -14 522.116 525.161 66.803 212.695 o
-6 -4 -13 5307.380 5553.380 170.346 15.582 o
-6 -4 -12 2131.830 2205.750 116.495 51.902 o
-6 -4 -11 9396.720 10003.700 254.629 5.783 o
-6 -4 -10 691.940 657.095 66.759 197.589 o
-6 -4 -9 2865.790 3027.190 116.474 40.853 o
-6 -4 -8 1336.420 1406.770 75.481 119.259 o
-6 -4 -7 9796.200 10272.400 192.892 6.362 o
-6 -4 -6 1743.610 1813.270 82.308 89.418 o
-6 -4 -5 6990.920 7064.960 152.632 11.879 o
-6 -4 -4 3873.570 3948.500 108.291 31.699 o
-6 -4 -3 1320.070 1264.310 64.491 146.951 o
-6 -4 -2 4495.920 4597.580 132.054 23.082 o
-6 -4 -1 9186.640 9576.660 192.770 7.031 o
-6 -3 -20 497.181 425.111 78.048 166.047 o
-6 -3 -19 3977.210 4033.430 191.803 18.365 o
-6 -3 -18 8091.310 8513.010 400.932 4.403 o
-6 -3 -17 4214.420 4626.030 245.700 12.680 o
-6 -3 -16 686.572 541.327 68.494 193.694 o
-6 -3 -15 232.341 202.233 58.376 308.467 o
-6 -3 -14 441.982 380.984 59.882 268.102 o
-6 -3 -13 6365.430 6576.730 251.893 9.118 o
-6 -3 -12 16713.100 17405.300 407.384 2.019 o
-6 -3 -11 4088.470 4350.330 139.443 24.295 o
-6 -3 -10 376.373 355.480 53.191 336.457 o
-6 -3 -9 915.141 928.553 59.308 203.870 o
-6 -3 -8 564.736 548.277 50.810 318.974 o
-6 -3 -7 5555.850 5903.170 126.482 17.640 o
-6 -3 -6 20100.800 20598.100 336.217 1.677 o
-6 -3 -5 9202.780 9312.750 198.034 7.028 o
-6 -3 -4 2079.770 2144.020 81.442 77.679 o
-6 -3 -3 46.872 81.371 33.096 984.758 o
-6 -3 -2 2792.990 2954.700 96.274 49.594 o
-6 -3 -1 10597.700 10920.300 201.461 5.590 o
-6 -2 -22 8.166 21.800 120.194 79.068 o
-6 -2 -21 753.839 829.421 74.822 158.283 o
-6 -2 -20 161.212 181.660 62.045 281.387 o
-6 -2 -19 2142.720 2045.850 112.363 55.040 o
-6 -2 -18 10261.800 11213.200 408.975 3.491 o
-6 -2 -17 2871.350 2954.540 130.208 36.653 o
-6 -2 -16 337.185 245.293 54.142 338.490 o
-6 -2 -15 1450.760 1709.570 94.663 83.332 o
-6 -2 -14 944.977 916.312 64.169 182.525 o
-6 -2 -13 5194.100 5276.600 184.397 15.081 o
-6 -2 -12 23890.800 24832.200 446.605 1.137 o
-6 -2 -11 6860.220 7401.170 204.352 9.924 o
-6 -2 -10 877.025 936.684 59.422 206.271 o
-6 -2 -9 108.444 50.498 31.032 1071.590 o
-6 -2 -8 1620.010 1665.770 67.730 115.900 o
-6 -2 -7 2436.930 2752.690 78.760 65.407 o
-6 -2 -6 27481.500 27277.600 429.812 0.941 o
-6 -2 -5 6872.640 7007.400 131.140 12.959 o
-6 -2 -4 487.533 559.813 36.623 513.578 o
-6 -2 -3 2662.440 2800.970 75.055 62.649 o
-6 -2 -2 662.898 713.531 40.547 384.683 o
-6 -2 -1 6193.070 6334.420 136.890 14.814 o
-6 -1 -23 4307.060 4889.380 220.006 14.270 o
-6 -1 -22 2215.160 2356.500 98.424 60.562 o
-6 -1 -21 155.883 169.485 43.822 538.610 o
-6 -1 -20 3412.080 3648.980 108.146 36.185 o
-6 -1 -19 6094.700 6322.450 151.655 14.254 o
-6 -1 -18 4469.130 4544.480 131.515 23.369 o
-6 -1 -17 8310.110 8793.550 206.992 7.758 o
-6 -1 -16 4527.260 4659.780 145.224 21.278 o
-6 -1 -15 95.382 112.441 46.092 509.513 o
-6 -1 -14 1298.830 1239.630 69.922 135.950 o
-6 -1 -13 6829.700 6889.140 191.507 10.747 o
-6 -1 -12 15767.200 16450.000 338.915 2.419 o
-6 -1 -11 10027.100 10556.700 243.332 5.479 o
-6 -1 -10 882.889 959.511 46.642 270.471 o
-6 -1 -9 818.149 904.758 41.001 324.369 o
-6 -1 -8 2670.420 2928.080 76.365 60.669 o
-6 -1 -7 10679.900 11881.000 213.990 5.173 o
-6 -1 -6 24603.800 25304.400 416.176 1.119 o
-6 -1 -5 14350.300 14428.400 240.679 3.281 o
-6 -1 -4 10111.200 10384.400 174.167 6.361 o
-6 -1 -3 111.663 98.410 25.396 1479.710 o
-6 -1 -2 11817.900 12590.200 213.170 4.529 o
-6 -1 -1 21084.400 21216.000 353.181 1.541 o
-5 -8 -4 2393.300 1889.710 366.312 7.989 o
-5 -8 -3 2327.890 2040.020 301.362 11.457 o
-5 -8 -2 1096.020 1148.210 162.832 38.977 o
-5 -8 -1 791.281 478.776 170.123 37.745 o
-5 -7 -12 1509.080 1232.040 163.496 37.013 o
-5 -7 -11 352.045 354.501 84.233 149.832 o
-5 -7 -10 718.813 576.751 78.122 154.349 o
-5 -7 -9 4672.910 4621.350 173.201 17.930 o
-5 -7 -8 1061.920 1012.690 66.794 163.014 o
-5 -7 -7 1011.630 1054.930 71.899 149.500 o
-5 -7 -6 2293.270 2344.840 102.882 56.824 o
-5 -7 -5 992.483 947.466 68.857 162.431 o
-5 -7 -4 1519.550 1459.250 86.463 94.933 o
-5 -7 -3 13209.500 13807.400 292.841 3.368 o
-5 -7 -2 1622.140 1694.620 101.632 72.980 o
-5 -7 -1 840.118 829.218 64.616 191.057 o
-5 -6 -16 2860.920 2298.850 405.866 6.458 o
-5 -6 -15 3580.790 3567.350 212.802 17.303 o
-5 -6 -14 2453.580 2335.520 131.955 41.261 o
-5 -6 -13 1432.780 1446.430 113.776 66.456 o
-5 -6 -12 1117.850 877.039 88.660 110.121 o
-5 -6 -11 943.669 816.816 78.891 138.566 o
-5 -6 -10 2461.340 2383.390 130.847 41.459 o
-5 -6 -9 4845.860 5007.050 171.765 17.159 o
-5 -6 -8 1365.830 1441.680 70.300 127.335 o
-5 -6 -7 1343.960 1348.630 69.660 131.792 o
-5 -6 -6 1685.440 1595.080 89.769 85.039 o
-5 -6 -5 186.454 215.956 47.838 449.156 o
-5 -6 -4 6868.150 7179.780 169.991 11.321 o
-5 -6 -3 6277.080 6706.190 185.676 11.893 o
-5 -6 -2 6315.470 6732.800 163.466 12.845 o
-5 -6 -1 945.768 911.490 64.018 183.204 o
-5 -5 -19 2033.150 1574.870 232.000 18.896 o
-5 -5 -18 251.326 209.584 73.412 200.123 o
-5 -5 -17 4218.330 4356.660 197.034 16.931 o
-5 -5 -16 4923.160 5275.650 193.128 14.956 o
-5 -5 -15 1202.670 1194.000 152.536 43.238 o
-5 -5 -14 1884.760 1814.300 122.697 52.878 o
-5 -5 -13 7113.840 7251.800 314.796 6.536 o
-5 -5 -12 116.237 119.115 54.170 371.752 o
-5 -5 -11 11700.300 11884.100 378.205 3.365 o
-5 -5 -10 2394.020 2453.840 115.118 48.553 o
-5 -5 -9 3375.520 3748.860 125.452 31.997 o
-5 -5 -8 2673.330 2687.120 95.888 53.034 o
-5 -5 -7 12157.900 12245.700 229.183 4.343 o
-5 -5 -6 37.306 27.646 35.292 891.310 o
-5 -5 -5 9117.530 9298.730 188.628 7.261 o
-5 -5 -4 4894.780 5123.770 124.538 21.309 o
-5 -5 -3 1854.340 2012.860 99.250 68.476 o
-5 -5 -2 7213.960 7432.090 170.002 10.655 o
-5 -5 -1 5338.100 5351.410 128.503 19.007 o
-5 -4 -21 89.105 122.860 146.486 52.990 o
-5 -4 -20 314.966 259.535 66.212 237.612 o
-5 -4 -19 3145.770 3299.700 149.938 28.979 o
-5 -4 -18 8632.770 8901.790 241.166 6.777 o
-5 -4 -17 3003.230 2949.180 135.969 34.137 o
-5 -4 -16 2325.510 2461.620 126.697 43.927 o
-5 -4 -15 15.165 -25.507 51.176 434.779 o
-5 -4 -14 292.814 409.752 62.613 258.983 o
-5 -4 -13 8051.500 8588.470 211.508 7.959 o
-5 -4 -12 13763.500 14376.800 326.737 2.997 o
-5 -4 -11 6233.780 6571.280 182.231 12.223 o
-5 -4 -10 1723.930 1745.680 99.931 72.388 o
-5 -4 -9 227.708 216.776 44.346 504.069 o
-5 -4 -8 1942.970 2015.690 89.891 74.730 o
-5 -4 -7 5274.780 5418.760 117.161 20.035 o
-5 -4 -6 17051.700 17759.600 283.104 2.302 o
-5 -4 -5 16066.700 16334.500 285.962 2.560 o
-5 -4 -4 11.079 66.966 32.935 1023.560 o
-5 -4 -3 107.521 69.147 33.101 947.328 o
-5 -4 -2 4218.820 4321.420 102.478 29.267 o
-5 -4 -1 4551.730 4745.690 104.336 25.910 o
-5 -3 -22 99.248 132.173 57.192 336.021 o
-5 -3 -21 377.697 397.004 68.591 215.567 o
-5 -3 -20 55.609 55.338 53.963 384.404 o
-5 -3 -19 234.090 235.995 58.951 301.309 o
-5 -3 -18 17708.500 18265.200 493.350 1.660 o
-5 -3 -17 570.020 482.543 61.203 243.139 o
-5 -3 -16 411.573 550.180 62.222 246.911 o
-5 -3 -15 934.113 996.912 65.345 176.268 o
-5 -3 -14 76.946 65.390 45.436 532.254 o
-5 -3 -13 719.517 660.986 56.534 249.493 o
-5 -3 -12 36264.300 38052.100 765.267 0.470 o
-5 -3 -11 1178.700 1034.540 59.630 177.421 o
-5 -3 -10 135.769 141.801 45.319 514.215 o
-5 -3 -9 4425.950 5014.020 184.279 16.995 o
-5 -3 -8 22.681 73.727 38.071 765.750 o
-5 -3 -7 183.213 220.856 27.439 1133.030 o
-5 -3 -6 48199.200 49395.800 720.331 0.308 o
-5 -3 -5 2764.820 2786.180 74.392 61.208 o
-5 -3 -4 1057.780 1095.580 47.438 233.386 o
-5 -3 -3 2681.050 2673.180 73.690 64.239 o
-5 -3 -2 318.894 386.177 32.505 728.499 o
-5 -3 -1 325.083 452.344 37.075 589.456 o
-5 -2 -24 9600.490 9183.740 337.188 4.707 o
-5 -2 -23 3237.860 3339.730 107.166 39.182 o
-5 -2 -22 444.375 409.963 41.299 474.618 o
-5 -2 -21 241.684 274.448 43.741 505.238 o
-5 -2 -20 404.246 384.514 42.923 462.918 o
-5 -2 -19 7644.670 8059.070 175.509 9.552 o
-5 -2 -18 13816.300 14544.700 309.921 3.055 o
-5 -2 -17 5195.990 5300.950 139.172 18.645 o
-5 -2 -16 271.262 230.657 46.410 455.066 o
-5 -2 -15 907.981 969.472 58.118 207.896 o
-5 -2 -14 1936.990 2038.570 85.869 78.228 o
-5 -2 -13 10090.000 10106.500 201.698 6.111 o
-5 -2 -12 32654.100 33877.100 783.177 0.543 o
-5 -2 -11 6435.770 6768.920 175.864 12.046 o
-5 -2 -10 1718.280 1797.590 80.273 92.736 o
-5 -2 -9 3058.070 3122.110 101.469 43.703 o
-5 -2 -8 2334.990 2370.700 82.761 68.671 o
-5 -2 -7 7079.130 7439.480 154.436 11.380 o
-5 -2 -6 39254.800 40483.100 617.446 0.454 o
-5 -2 -5 20346.900 20522.800 313.378 1.695 o
-5 -2 -4 5040.010 5269.640 101.716 22.596 o
-5 -2 -3 2497.170 2412.070 63.414 77.611 o
-5 -2 -2 521.195 520.515 30.689 618.212 o
-5 -2 -1 18562.700 18857.900 300.518 1.992 o
-5 -1 -25 5037.360 4817.210 357.867 6.883 o
-5 -1 -24 1688.470 1813.600 92.189 79.946 o
-5 -1 -23 7227.840 7825.740 162.866 10.603 o
-5 -1 -22 1557.660 1583.090 68.090 119.767 o
-5 -1 -21 843.455 848.347 54.016 240.447 o
-5 -1 -20 2418.630 2317.210 80.771 68.863 o
-5 -1 -19 16622.000 17086.900 289.536 2.399 o
-5 -1 -18 2418.440 2505.560 80.144 67.369 o
-5 -1 -17 9474.350 9879.100 174.118 6.995 o
-5 -1 -16 1252.830 1142.690 55.415 181.017 o
-5 -1 -15 2864.570 3024.110 85.077 52.830 o
-5 -1 -14 4955.340 4963.810 109.750 22.864 o
-5 -1 -13 19650.300 19636.600 318.641 1.796 o
-5 -1 -12 1749.120 1746.430 74.146 100.267 o
-5 -1 -11 6885.550 7326.890 138.931 12.348 o
-5 -1 -10 1902.440 2128.420 75.984 87.550 o
-5 -1 -9 3659.230 3895.190 88.164 37.720 o
-5 -1 -8 2157.640 2293.060 64.249 88.609 o
-5 -1 -7 17007.500 18683.400 296.080 2.210 o
-5 -1 -6 6852.950 7167.600 136.510 12.640 o
-5 -1 -5 29843.700 31325.800 480.391 0.768 o
-5 -1 -4 7380.050 8219.760 139.089 10.829 o
-5 -1 -3 3157.230 3338.950 72.327 51.035 o
-5 -1 -2 6669.130 6901.590 125.932 13.677 o
-5 -1 -1 51713.400 51426.700 775.033 0.272 o
-4 -8 -11 3206.440 2774.820 251.965 14.437 o
-4 -8 -10 1798.800 1728.250 86.273 84.669 o
-4 -8 -9 596.198 473.283 59.600 251.573 o
-4 -8 -8 2647.700 2646.150 117.671 44.042 o
-4 -8 -7 4819.910 4805.400 148.229 19.740 o
-4 -8 -6 117.746 84.579 52.071 402.819 o
-4 -8 -5 3969.560 3902.040 176.969 20.337 o
-4 -8 -4 3464.000 3526.650 125.487 32.130 o
-4 -8 -3 3256.820 3516.800 124.801 33.649 o
-4 -8 -2 2190.160 2134.040 107.200 57.020 o
-4 -8 -1 5074.370 5358.360 184.442 15.235 o
-4 -7 -15 170.684 137.146 93.463 127.941 o
-4 -7 -14 6254.920 6024.660 207.841 11.371 o
-4 -7 -13 409.517 322.071 68.070 218.828 o
-4 -7 -12 1591.090 1495.160 173.999 32.528 o
-4 -7 -11 167.058 124.733 60.984 292.374 o
-4 -7 -10 6504.420 6736.050 180.134 11.777 o
-4 -7 -9 18.162 73.046 40.420 683.105 o
-4 -7 -8 4982.570 4930.330 132.577 20.550 o
-4 -7 -7 318.397 298.256 62.087 265.228 o
-4 -7 -6 2351.270 2459.480 102.972 55.231 o
-4 -7 -5 1027.820 1087.720 67.181 161.617 o
-4 -7 -4 10581.300 11118.400 244.659 5.071 o
-4 -7 -3 1415.950 1588.730 84.521 98.719 o
-4 -7 -2 8069.450 8458.300 183.662 8.667 o
-4 -7 -1 1623.090 1696.340 87.918 87.455 o
-4 -6 -18 265.351 153.131 70.224 218.215 o
-4 -6 -17 996.690 956.519 118.950 69.427 o
-4 -6 -16 5171.880 5507.380 238.924 11.453 o
-4 -6 -15 80.278 40.640 60.795 303.084 o
-4 -6 -14 7783.100 7932.940 350.112 5.379 o
-4 -6 -13 1516.700 1530.700 92.511 86.372 o
-4 -6 -12 2808.790 3015.740 134.758 35.493 o
-4 -6 -11 5309.510 5522.110 174.845 15.287 o
-4 -6 -10 8531.650 8473.110 250.399 6.798 o
-4 -6 -9 151.309 158.743 36.270 758.101 o
-4 -6 -8 9083.620 8890.600 188.345 7.456 o
-4 -6 -7 4319.880 4181.380 117.091 26.882 o
-4 -6 -6 2620.960 2727.400 96.105 53.365 o
-4 -6 -5 689.268 716.253 80.064 146.739 o
-4 -6 -4 10548.200 10988.500 234.174 5.233 o
-4 -6 -3 50.667 102.904 43.117 590.378 o
-4 -6 -2 13815.100 14720.600 275.128 3.211 o
-4 -6 -1 1176.880 1242.710 85.550 108.989 o
-4 -5 -21 427.230 339.276 127.581 67.634 o
-4 -5 -20 2184.320 2175.380 131.230 44.232 o
-4 -5 -19 4759.500 4968.710 191.627 15.691 o
-4 -5 -18 2009.350 2017.980 136.376 43.800 o
-4 -5 -17 4393.620 4317.160 177.771 18.558 o
-4 -5 -16 3259.020 3229.450 178.402 23.190 o
-4 -5 -15 1155.670 1289.010 84.864 110.160 o
-4 -5 -14 3885.780 4056.670 142.664 25.293 o
-4 -5 -13 10885.400 11128.500 253.812 4.841 o
-4 -5 -12 303.024 220.053 51.577 374.898 o
-4 -5 -11 9291.930 9399.600 237.323 6.280 o
-4 -5 -10 5427.170 5544.800 219.168 12.217 o
-4 -5 -9 1163.780 1103.950 54.629 192.916 o
-4 -5 -8 7835.610 8052.170 151.306 9.983 o
-4 -5 -7 10489.200 10809.300 194.183 5.761 o
-4 -5 -6 1559.200 1541.200 67.071 122.397 o
-4 -5 -5 20372.100 20650.300 351.503 1.626 o
-4 -5 -4 6977.200 7273.890 150.913 11.796 o
-4 -5 -3 1910.270 1976.300 77.464 87.938 o
-4 -5 -2 5479.130 5559.440 128.383 18.248 o
-4 -5 -1 11759.100 12475.300 229.865 4.444 o
-4 -4 -23 4812.710 4715.820 333.271 7.802 o
-4 -4 -22 935.886 986.432 94.369 102.878 o
-4 -4 -21 95.191 167.986 63.472 273.992 o
-4 -4 -20 891.679 1027.940 79.604 134.683 o
-4 -4 -19 6927.750 7185.470 239.187 8.787 o
-4 -4 -18 8784.020 8689.830 209.811 7.362 o
-4 -4 -17 5251.910 5570.030 154.298 16.892 o
-4 -4 -16 528.061 449.012 55.471 290.322 o
-4 -4 -15 380.922 296.280 48.303 398.585 o
-4 -4 -14 2439.380 2472.930 103.411 53.765 o
-4 -4 -13 9432.820 9571.340 206.821 6.629 o
-4 -4 -12 10455.900 10907.600 272.504 4.859 o
-4 -4 -11 5092.830 5595.620 179.617 15.315 o
-4 -4 -10 1513.610 1677.580 93.106 84.131 o
-4 -4 -9 602.406 610.802 59.134 247.523 o
-4 -4 -8 496.417 563.727 73.014 183.419 o
-4 -4 -7 5309.430 5631.770 111.593 19.975 o
-4 -4 -6 15351.500 15520.800 247.384 2.904 o
-4 -4 -5 21262.300 21436.000 329.399 1.552 o
-4 -4 -4 5127.500 5480.970 112.875 20.823 o
-4 -4 -3 794.859 787.579 41.432 337.885 o
-4 -4 -2 2541.260 2477.780 70.492 71.129 o
-4 -4 -1 19436.100 20254.900 328.688 1.769 o
-4 -3 -24 7326.830 7285.480 332.707 6.029 o
-4 -3 -23 3709.120 3647.610 113.357 32.808 o
-4 -3 -22 805.698 799.051 53.735 249.105 o
-4 -3 -21 22.905 18.071 37.227 811.602 o
-4 -3 -20 1582.720 1579.610 90.433 86.816 o
-4 -3 -19 6628.210 6930.770 211.200 10.208 o
-4 -3 -18 11683.800 11840.200 233.322 4.568 o
-4 -3 -17 6363.040 6531.680 152.943 13.445 o
-4 -3 -16 4049.190 4161.140 122.520 27.517 o
-4 -3 -15 178.163 238.378 42.230 559.514 o
-4 -3 -14 17.112 78.556 39.078 729.020 o
-4 -3 -13 13922.000 14619.500 280.079 3.173 o
-4 -3 -12 27656.800 27964.200 519.915 0.862 o
-4 -3 -11 13273.000 13820.000 270.023 3.482 o
-4 -3 -10 249.336 206.820 37.057 675.190 o
-4 -3 -9 300.849 265.220 38.575 601.085 o
-4 -3 -8 2325.010 2376.990 83.501 68.302 o
-4 -3 -7 14868.100 15338.100 322.189 2.719 o
-4 -3 -6 38678.800 37974.500 556.748 0.493 o
-4 -3 -5 19520.100 19578.700 300.479 1.845 o
-4 -3 -4 3026.000 2983.100 70.158 56.694 o
-4 -3 -3 215.200 253.841 25.506 1192.380 o
-4 -3 -2 5508.780 5220.720 103.023 20.662 o
-4 -3 -1 19055.200 19704.200 312.354 1.866 o
-4 -2 -25 3519.070 3541.780 112.003 34.840 o
-4 -2 -24 2404.710 2319.570 95.972 59.465 o
-4 -2 -23 7252.020 7486.130 155.121 11.062 o
-4 -2 -22 1105.030 1070.650 59.243 182.950 o
-4 -2 -21 56.162 87.847 37.820 759.074 o
-4 -2 -20 2042.910 2087.300 78.194 82.174 o
-4 -2 -19 9209.220 9436.450 172.402 7.407 o
-4 -2 -18 3730.010 3745.910 93.806 36.517 o
-4 -2 -17 5503.140 5611.260 120.043 18.710 o
-4 -2 -16 3894.740 4079.290 93.017 33.968 o
-4 -2 -15 211.921 216.701 26.397 1165.150 o
-4 -2 -14 5566.360 6118.800 125.093 17.390 o
-4 -2 -13 28883.000 30011.100 494.582 0.807 o
-4 -2 -12 4707.720 4782.410 113.674 23.953 o
-4 -2 -11 25122.800 25313.400 420.261 1.090 o
-4 -2 -10 8876.590 8909.700 169.542 7.977 o
-4 -2 -9 942.959 950.439 53.333 227.466 o
-4 -2 -8 18248.900 18778.800 334.279 1.959 o
-4 -2 -7 10911.700 10785.300 206.600 5.405 o
-4 -2 -6 5372.820 5526.130 108.833 20.151 o
-4 -2 -5 38687.400 37645.700 548.627 0.497 o
-4 -2 -4 5567.890 6054.270 111.206 18.402 o
-4 -2 -3 577.377 611.235 29.831 580.817 o
-4 -2 -2 9063.140 8982.310 149.052 8.137 o
-4 -2 -1 14555.600 15036.300 241.050 3.157 o
-4 -1 -26 2964.390 3051.070 164.539 27.125 o
-4 -1 -25 2729.400 2845.830 104.466 47.586 o
-4 -1 -24 721.689 707.123 53.316 267.225 o
-4 -1 -23 5430.120 5275.370 124.710 19.137 o
-4 -1 -22 4876.980 4937.150 118.147 22.395 o
-4 -1 -21 3355.840 3382.510 96.074 41.061 o
-4 -1 -20 4906.080 5021.730 119.472 21.970 o
-4 -1 -19 4867.690 4936.200 110.881 23.193 o
-4 -1 -18 1727.220 1709.010 67.283 111.233 o
-4 -1 -17 8029.180 8026.020 147.970 9.839 o
-4 -1 -16 8956.690 9174.700 160.575 7.945 o
-4 -1 -15 6822.020 6888.310 127.630 13.311 o
-4 -1 -14 9510.490 9610.350 162.968 7.238 o
-4 -1 -13 17516.800 17516.100 270.950 2.283 o
-4 -1 -12 7464.580 7583.650 132.158 11.389 o
-4 -1 -11 20997.500 21312.500 320.684 1.591 o
-4 -1 -10 14150.400 14229.700 232.601 3.394 o
-4 -1 -9 9226.860 8905.050 170.045 7.657 o
-4 -1 -8 14302.000 14138.700 218.210 3.432 o
-4 -1 -7 19162.000 19512.800 321.985 1.846 o
-4 -1 -6 6742.980 6558.350 115.915 14.303 o
-4 -1 -5 38149.200 38755.300 613.675 0.481 o
-4 -1 -4 27247.000 28000.700 448.872 0.923 o
-4 -1 -3 12396.500 12610.200 213.900 4.298 o
-4 -1 -2 22519.000 22878.700 338.539 1.392 o
-4 -1 -1 22811.100 23245.600 358.637 1.337 o
-3 -9 -9 46.268 50.072 145.213 54.085 o
-3 -9 -8 790.482 691.942 70.866 173.736 o
-3 -9 -7 5216.740 5323.250 152.012 17.488 o
-3 -9 -6 3236.530 3392.500 124.180 34.355 o
-3 -9 -5 2203.750 2114.410 126.141 46.688 o
-3 -9 -4 1914.410 1955.120 94.807 71.626 o
-3 -9 -3 311.806 192.385 59.333 292.863 o
-3 -9 -2 904.279 944.134 73.957 151.372 o
-3 -9 -1 3239.430 3138.970 142.770 30.537 o
-3 -8 -14 4561.440 4496.110 173.260 18.369 o
-3 -8 -13 2278.190 2324.840 91.798 64.079 o
-3 -8 -12 110.970 162.710 42.085 593.207 o
-3 -8 -11 4511.550 4674.860 141.136 21.782 o
-3 -8 -10 3680.390 3828.330 161.996 23.481 o
-3 -8 -9 325.437 364.428 49.803 382.693 o
-3 -8 -8 3299.110 3192.670 140.295 30.654 o
-3 -8 -7 3705.880 3813.970 128.760 29.195 o
-3 -8 -6 135.752 102.128 46.756 489.175 o
-3 -8 -5 4994.240 5091.190 141.785 19.364 o
-3 -8 -4 6418.830 6563.700 159.292 13.008 o
-3 -8 -3 333.983 278.062 49.571 391.521 o
-3 -8 -2 2040.590 2148.860 98.537 64.839 o
-3 -8 -1 3924.580 3919.080 120.199 29.266 o
-3 -7 -18 1373.750 1012.150 238.780 18.922 o
-3 -7 -17 80.727 103.841 63.351 277.750 o
-3 -7 -16 3915.440 3922.580 262.858 12.208 o
-3 -7 -15 2018.550 2072.110 126.921 48.100 o
-3 -7 -14 8082.050 8197.790 280.821 6.524 o
-3 -7 -13 463.940 502.066 69.890 201.048 o
-3 -7 -12 3047.400 3160.870 104.946 42.451 o
-3 -7 -11 1400.790 1495.610 72.758 119.983 o
-3 -7 -10 9356.100 9640.850 225.521 6.358 o
-3 -7 -9 2709.120 2700.340 98.194 51.413 o
-3 -7 -8 9365.470 9549.150 216.231 6.531 o
-3 -7 -7 911.820 886.080 55.680 222.697 o
-3 -7 -6 2443.830 2325.380 93.139 60.497 o
-3 -7 -5 720.274 735.736 55.207 253.550 o
-3 -7 -4 10366.700 10572.100 214.371 5.659 o
-3 -7 -3 4449.540 4653.460 125.517 23.975 o
-3 -7 -2 6949.540 7712.730 167.269 10.920 o
-3 -7 -1 313.416 356.347 46.377 433.523 o
-3 -6 -20 1245.780 1291.630 104.808 79.257 o
-3 -6 -19 1918.510 1934.320 117.014 55.392 o
-3 -6 -18 444.232 476.956 70.350 200.513 o
-3 -6 -17 2719.560 2972.810 147.787 32.428 o
-3 -6 -16 3960.020 3841.290 183.354 19.641 o
-3 -6 -15 5777.950 5716.560 173.698 14.223 o
-3 -6 -14 3366.260 3381.400 130.723 31.964 o
-3 -6 -13 3084.500 3074.410 125.392 36.176 o
-3 -6 -12 6140.620 6142.800 151.768 14.339 o
-3 -6 -11 4496.240 4431.090 106.732 26.735 o
-3 -6 -10 4328.480 4422.090 103.752 28.116 o
-3 -6 -9 7729.100 8091.320 164.253 9.744 o
-3 -6 -8 3269.140 3557.930 101.041 39.656 o
-3 -6 -7 7679.380 8179.840 188.500 9.088 o
-3 -6 -6 4992.400 5017.320 113.093 22.261 o
-3 -6 -5 3016.060 3267.470 119.431 37.710 o
-3 -6 -4 6178.780 6300.720 148.902 14.248 o
-3 -6 -3 12209.900 12715.500 225.061 4.269 o
-3 -6 -2 4148.680 4257.050 106.371 29.286 o
-3 -6 -1 7023.540 7354.280 146.618 11.811 o
-3 -5 -22 1894.150 1700.320 112.796 59.857 o
-3 -5 -21 1770.110 1768.020 103.247 68.518 o
-3 -5 -20 2256.900 2283.870 123.391 46.777 o
-3 -5 -19 7025.530 7177.310 297.706 7.024 o
-3 -5 -18 1835.790 1736.770 93.886 76.044 o
-3 -5 -17 10045.700 10283.400 231.234 5.696 o
-3 -5 -16 3341.700 3309.890 123.413 34.119 o
-3 -5 -15 1613.280 1509.990 79.200 101.637 o
-3 -5 -14 2945.800 2918.150 111.641 42.292 o
-3 -5 -13 5866.440 5588.670 148.585 15.757 o
-3 -5 -12 426.053 384.165 48.993 373.837 o
-3 -5 -11 4539.890 4434.600 115.012 25.410 o
-3 -5 -10 3176.200 3228.740 89.169 45.932 o
-3 -5 -9 5804.670 5792.010 115.549 17.789 o
-3 -5 -8 5616.720 5760.430 120.109 18.111 o
-3 -5 -7 13062.400 13587.100 232.113 3.795 o
-3 -5 -6 419.200 456.615 35.396 585.263 o
-3 -5 -5 19788.600 20784.200 333.523 1.702 o
-3 -5 -4 5896.010 6165.500 119.449 16.741 o
-3 -5 -3 5069.850 5450.410 116.734 20.763 o
-3 -5 -2 10509.600 10916.600 200.031 5.654 o
-3 -5 -1 22286.900 23052.000 368.084 1.367 o
-3 -4 -24 780.382 788.427 97.003 103.495 o
-3 -4 -23 4270.990 4280.550 116.843 26.915 o
-3 -4 -22 2281.900 2280.850 83.447 70.178 o
-3 -4 -21 191.167 219.727 45.208 495.435 o
-3 -4 -20 4519.390 4588.160 110.380 25.726 o
-3 -4 -19 12063.100 12394.400 358.205 3.377 o
-3 -4 -18 1129.130 1072.870 56.234 191.546 o
-3 -4 -17 12123.800 12624.800 254.860 4.095 o
-3 -4 -16 5323.400 5540.280 142.716 17.637 o
-3 -4 -15 746.323 791.691 57.623 233.764 o
-3 -4 -14 4258.360 4284.190 122.177 26.184 o
-3 -4 -13 11308.700 11340.900 230.126 4.853 o
-3 -4 -12 3868.320 3951.590 129.498 27.829 o
-3 -4 -11 12605.800 12797.200 248.473 3.957 o
-3 -4 -10 2034.790 2166.120 83.936 76.317 o
-3 -4 -9 582.033 554.568 36.948 475.827 o
-3 -4 -8 8357.850 8577.720 171.975 8.587 o
-3 -4 -7 27590.100 28323.400 461.789 0.897 o
-3 -4 -6 7064.320 7336.640 136.582 12.113 o
-3 -4 -5 19095.600 19337.200 296.624 1.911 o
-3 -4 -4 5369.410 5653.400 110.068 19.838 o
-3 -4 -3 2043.680 2154.690 62.290 96.645 o
-3 -4 -2 18782.100 19305.700 306.291 1.929 o
-3 -4 -1 36211.900 37928.100 578.222 0.525 o
-3 -3 -25 4910.690 4993.750 131.597 20.789 o
-3 -3 -24 788.958 681.135 55.324 248.255 o
-3 -3 -23 3895.340 4004.210 109.423 31.157 o
-3 -3 -22 2606.970 2773.670 90.993 55.723 o
-3 -3 -21 386.545 330.707 40.844 511.741 o
-3 -3 -20 5595.490 5851.060 142.854 16.482 o
-3 -3 -19 6857.220 6881.050 136.847 12.884 o
-3 -3 -18 593.871 627.790 58.747 249.993 o
-3 -3 -17 6581.680 6804.120 131.651 13.717 o
-3 -3 -16 6153.360 6289.110 124.524 15.617 o
-3 -3 -15 6127.690 6282.860 161.079 13.723 o
-3 -3 -14 2717.860 2747.410 70.731 64.313 o
-3 -3 -13 19582.300 20001.200 385.944 1.662 o
-3 -3 -12 5886.190 6040.400 138.203 15.812 o
-3 -3 -11 20965.100 21220.300 359.193 1.542 o
-3 -3 -10 3765.460 3985.770 104.831 32.993 o
-3 -3 -9 16642.500 15988.500 293.679 2.469 o
-3 -3 -8 10770.100 10968.300 210.714 5.386 o
-3 -3 -7 22175.700 21534.900 356.997 1.441 o
-3 -3 -6 9429.830 9351.130 172.544 7.260 o
-3 -3 -5 18738.100 18216.400 289.914 2.031 o
-3 -3 -4 8224.560 8289.420 144.918 9.506 o
-3 -3 -3 7154.430 7191.090 123.106 12.548 o
-3 -3 -2 22979.000 23327.700 361.680 1.320 o
-3 -3 -1 12991.000 13371.200 208.422 3.990 o
-3 -2 -26 5285.620 5264.330 134.612 18.809 o
-3 -2 -25 3163.620 3144.230 113.813 38.696 o
-3 -2 -24 857.830 874.463 56.067 226.779 o
-3 -2 -23 2635.670 2703.160 92.383 55.134 o
-3 -2 -22 10027.500 10482.200 190.763 6.175 o
-3 -2 -21 188.457 198.210 41.484 580.138 o
-3 -2 -20 12647.500 13203.900 223.156 4.044 o
-3 -2 -19 3502.270 3732.250 94.246 38.491 o
-3 -2 -18 532.945 560.176 38.727 464.906 o
-3 -2 -17 4345.540 4453.740 99.948 28.463 o
-3 -2 -16 15351.600 15656.200 248.933 2.884 o
-3 -2 -15 1256.540 1339.880 56.220 170.525 o
-3 -2 -14 15631.900 16046.200 251.467 2.780 o
-3 -2 -13 19950.900 19952.200 304.374 1.775 o
-3 -2 -12 3395.840 3446.300 74.529 46.377 o
-3 -2 -11 27649.400 27169.900 421.979 0.942 o
-3 -2 -10 21216.800 21243.800 352.466 1.531 o
-3 -2 -9 1565.250 1567.650 68.635 118.845 o
-3 -2 -8 26530.200 27546.800 471.451 0.943 o
-3 -2 -7 31307.700 30485.300 518.583 0.721 o
-3 -2 -6 9768.840 9879.290 185.015 6.622 o
-3 -2 -5 20304.900 19503.000 303.755 1.763 o
-3 -2 -4 35691.000 35163.400 558.290 0.563 o
-3 -2 -3 147.019 200.787 19.524 1936.940 o
-3 -2 -2 45089.200 43388.700 653.386 0.367 o
-3 -2 -1 9033.990 9520.590 150.427 7.886 o
-3 -1 -27 922.936 838.362 88.576 116.072 o
-3 -1 -26 5140.500 5351.780 135.344 19.065 o
-3 -1 -25 638.879 575.838 51.928 296.764 o
-3 -1 -24 2641.730 2702.920 93.171 54.663 o
-3 -1 -23 862.866 864.161 53.909 237.997 o
-3 -1 -22 11118.300 11393.200 201.726 5.199 o
-3 -1 -21 1679.840 1661.420 70.130 109.878 o
-3 -1 -20 12291.900 12666.200 215.123 4.318 o
-3 -1 -19 171.675 178.130 34.353 815.203 o
-3 -1 -18 1776.640 1825.580 68.350 105.523 o
-3 -1 -17 103.283 159.803 31.907 980.653 o
-3 -1 -16 12235.300 12415.000 203.816 4.468 o
-3 -1 -15 2369.360 2416.060 66.497 78.842 o
-3 -1 -14 27979.400 27727.700 413.206 0.924 o
-3 -1 -13 8363.050 8189.740 139.086 9.529 o
-3 -1 -12 18456.600 17926.900 272.790 2.121 o
-3 -1 -11 6561.350 6242.390 128.105 14.526 o
-3 -1 -10 29381.300 28668.500 438.640 0.844 o
-3 -1 -9 6511.470 6629.730 111.506 14.947 o
-3 -1 -8 28177.300 28505.600 435.193 0.889 o
-3 -1 -7 13884.800 13416.300 226.411 3.608 o
-3 -1 -6 15327.200 15329.000 265.532 2.860 o
-3 -1 -5 13012.700 13256.800 218.226 3.944 o
-3 -1 -4 73161.300 72884.900 1131.970 0.135 o
-3 -1 -3 4628.370 4962.750 88.094 26.795 o
-3 -1 -2 47064.700 45702.000 653.425 0.339 o
-3 -1 -1 2861.770 3035.160 57.480 64.508 o
-2 -10 -7 3435.130 1261.220 370.626 7.622 o
-2 -10 -6 7814.840 6819.890 1041.340 0.980 o
-2 -10 -5 1134.090 921.987 66.931 161.009 o
-2 -10 -4 115.036 201.943 56.732 336.564 o
-2 -10 -3 33.452 143.402 54.845 370.251 o
-2 -10 -2 100.515 90.880 61.882 289.897 o
-2 -10 -1 1585.670 1612.220 121.069 57.987 o
-2 -9 -13 3441.340 3280.530 222.444 16.733 o
-2 -9 -12 883.759 979.469 77.907 140.348 o
-2 -9 -11 4443.450 4205.670 168.882 19.551 o
-2 -9 -10 2350.340 2328.040 127.277 44.025 o
-2 -9 -9 382.603 317.611 50.825 364.699 o
-2 -9 -8 1868.100 1779.590 86.354 82.320 o
-2 -9 -7 7193.080 7225.480 175.416 10.637 o
-2 -9 -6 568.101 553.147 55.122 282.229 o
-2 -9 -5 4635.560 4816.280 134.102 21.864 o
-2 -9 -4 2616.140 2549.700 106.645 49.582 o
-2 -9 -3 2455.580 2654.560 104.800 51.730 o
-2 -9 -2 1168.760 1230.930 70.276 141.664 o
-2 -9 -1 5209.130 5187.660 138.736 18.816 o
-2 -8 -17 1518.940 1623.820 169.539 34.038 o
-2 -8 -16 1326.270 1399.560 72.410 125.780 o
-2 -8 -15 4844.360 4805.440 141.345 20.361 o
-2 -8 -14 3049.380 3078.250 112.034 40.503 o
-2 -8 -13 4541.400 4872.030 134.715 22.046 o
-2 -8 -12 291.015 208.125 51.442 379.253 o
-2 -8 -11 2830.140 2950.870 114.959 42.028 o
-2 -8 -10 2521.560 2749.340 96.927 54.163 o
-2 -8 -9 3722.260 3901.160 127.195 29.164 o
-2 -8 -8 5799.190 6072.220 159.199 14.704 o
-2 -8 -7 2689.900 2770.260 100.936 49.990 o
-2 -8 -6 1439.620 1590.370 83.239 99.871 o
-2 -8 -5 5225.170 5349.900 134.043 18.912 o
-2 -8 -4 2106.000 2027.090 98.024 65.139 o
-2 -8 -3 12022.800 12677.300 242.471 4.214 o
-2 -8 -2 3592.230 3759.100 112.436 33.431 o
-2 -8 -1 4612.630 4804.170 126.421 22.853 o
-2 -7 -20 361.890 217.269 111.785 88.250 o
-2 -7 -19 138.131 156.979 41.149 610.636 o
-2 -7 -18 3569.730 3611.410 117.190 33.039 o
-2 -7 -17 89.240 142.407 40.552 645.302 o
-2 -7 -16 598.873 532.311 87.743 130.722 o
-2 -7 -15 16967.200 16966.900 441.918 1.916 o
-2 -7 -14 620.924 596.062 51.908 298.011 o
-2 -7 -13 507.374 635.793 49.252 335.714 o
-2 -7 -12 7012.530 7215.890 163.149 11.337 o
-2 -7 -11 895.198 928.366 66.965 175.129 o
-2 -7 -10 1157.980 1181.600 61.688 167.191 o
-2 -7 -9 19139.600 20533.000 353.090 1.739 o
-2 -7 -8 2952.890 3024.750 133.683 34.857 o
-2 -7 -7 782.813 804.805 46.734 297.428 o
-2 -7 -6 9101.550 9818.150 240.018 6.225 o
-2 -7 -5 199.219 231.120 37.328 683.849 o
-2 -7 -4 547.638 575.538 41.891 415.486 o
-2 -7 -3 30414.700 31660.600 498.944 0.739 o
-2 -7 -2 1589.410 1406.910 84.874 95.922 o
-2 -7 -1 159.355 189.379 33.896 837.853 o
-2 -6 -22 1857.500 1602.040 199.935 24.846 o
-2 -6 -21 4590.710 4739.990 176.896 17.629 o
-2 -6 -20 1153.840 1226.180 67.826 148.794 o
-2 -6 -19 1650.610 1578.900 82.781 94.616 o
-2 -6 -18 2058.810 2126.390 82.997 77.028 o
-2 -6 -17 2282.020 2391.470 85.190 67.849 o
-2 -6 -16 5303.890 5628.240 154.216 16.693 o
-2 -6 -15 9687.070 9763.250 186.570 6.697 o
-2 -6 -14 2915.910 3085.880 91.563 49.122 o
-2 -6 -13 139.932 117.250 33.834 874.941 o
-2 -6 -12 5523.540 5602.480 123.877 18.378 o
-2 -6 -11 1986.920 1813.890 70.374 95.800 o
-2 -6 -10 6665.550 6849.020 134.846 13.366 o
-2 -6 -9 19599.200 20179.100 320.425 1.771 o
-2 -6 -8 9235.300 9487.440 173.141 7.353 o
-2 -6 -7 4559.420 4975.680 113.936 24.160 o
-2 -6 -6 10450.900 10686.300 199.712 5.754 o
-2 -6 -5 1079.460 1194.840 55.940 191.633 o
-2 -6 -4 4424.980 4756.800 108.897 25.968 o
-2 -6 -3 16201.000 16653.700 288.747 2.502 o
-2 -6 -2 6014.630 6299.010 126.974 15.820 o
-2 -6 -1 8274.390 8429.590 169.233 8.811 o
-2 -5 -24 798.860 692.538 109.116 84.798 o
-2 -5 -23 1293.340 1398.650 71.844 128.385 o
-2 -5 -22 5439.180 5448.320 154.109 16.587 o
-2 -5 -21 835.067 831.028 52.872 248.798 o
-2 -5 -20 7468.130 7831.730 165.099 10.210 o
-2 -5 -19 4504.110 4427.700 120.669 24.862 o
-2 -5 -18 2171.470 2247.030 89.804 68.065 o
-2 -5 -17 4908.390 4987.460 129.055 21.063 o
-2 -5 -16 17770.700 18157.600 321.524 2.082 o
-2 -5 -15 958.526 965.593 52.926 226.918 o
-2 -5 -14 10692.300 10952.500 201.509 5.530 o
-2 -5 -13 2554.430 2506.430 77.831 66.068 o
-2 -5 -12 805.562 764.028 41.229 339.797 o
-2 -5 -11 4432.830 4543.100 101.955 27.415 o
-2 -5 -10 25854.200 26217.900 414.763 1.041 o
-2 -5 -9 1583.820 1705.390 59.782 130.036 o
-2 -5 -8 37123.500 38051.100 560.025 0.515 o
-2 -5 -7 11274.900 11792.100 203.799 5.011 o
-2 -5 -6 4546.210 4978.470 107.769 24.937 o
-2 -5 -5 4715.220 4909.230 107.176 24.354 o
-2 -5 -4 15546.300 15743.100 281.246 2.720 o
-2 -5 -3 1688.250 1678.200 62.274 121.281 o
-2 -5 -2 33943.000 33704.300 519.250 0.624 o
-2 -5 -1 13342.000 13150.900 220.181 3.845 o
-2 -4 -25 2068.840 2033.410 88.974 72.771 o
-2 -4 -24 1433.230 1501.540 76.400 112.223 o
-2 -4 -23 3384.070 3385.480 102.279 39.055 o
-2 -4 -22 3158.200 2978.540 94.996 45.614 o
-2 -4 -21 2405.990 2389.320 84.489 65.961 o
-2 -4 -20 4814.590 5010.640 115.158 22.815 o
-2 -4 -19 3923.330 4045.240 100.319 32.518 o
-2 -4 -18 3473.690 3575.340 97.826 38.570 o
-2 -4 -17 4501.630 4634.010 120.044 24.475 o
-2 -4 -16 8366.710 8617.500 189.440 8.172 o
-2 -4 -15 8844.280 9291.750 163.207 7.947 o
-2 -4 -14 7661.200 7713.560 139.490 10.777 o
-2 -4 -13 5920.270 6018.410 114.591 17.167 o
-2 -4 -12 937.541 981.473 48.042 253.278 o
-2 -4 -11 11151.700 11230.400 192.894 5.307 o
-2 -4 -10 12954.000 12886.600 215.635 4.041 o
-2 -4 -9 42128.200 40809.400 622.608 0.416 o
-2 -4 -8 13897.700 13974.900 230.778 3.505 o
-2 -4 -7 7113.870 7422.060 128.802 12.220 o
-2 -4 -6 3432.600 3410.290 73.051 46.550 o
-2 -4 -5 12826.300 13143.100 216.031 4.038 o
-2 -4 -4 11609.700 12010.100 190.909 4.917 o
-2 -4 -3 16417.500 16583.100 277.751 2.507 o
-2 -4 -2 10451.500 10972.700 187.159 5.815 o
-2 -4 -1 11162.800 11312.700 180.106 5.399 o
-2 -3 -26 1349.160 1307.950 68.708 134.558 o
-2 -3 -25 1752.990 1750.640 82.580 89.691 o
-2 -3 -24 2800.900 3048.510 101.421 46.880 o
-2 -3 -23 2477.520 2320.180 87.204 63.576 o
-2 -3 -22 6660.580 6814.340 142.767 13.073 o
-2 -3 -21 8326.070 8534.980 162.847 8.845 o
-2 -3 -20 6551.360 6781.670 139.594 13.453 o
-2 -3 -19 4892.760 4860.140 117.329 22.575 o
-2 -3 -18 7572.610 7851.450 146.338 10.610 o
-2 -3 -17 5662.890 5774.230 121.430 17.859 o
-2 -3 -16 6718.220 6761.840 126.912 13.680 o
-2 -3 -15 21660.800 22304.700 355.411 1.453 o
-2 -3 -14 14213.700 14475.000 229.593 3.360 o
-2 -3 -13 9128.670 9281.400 156.102 7.815 o
-2 -3 -12 4834.310 4810.990 93.784 25.463 o
-2 -3 -11 9316.040 9451.870 155.981 7.575 o
-2 -3 -10 4766.600 4944.670 94.483 25.393 o
-2 -3 -9 54093.600 51729.500 747.009 0.260 o
-2 -3 -8 2645.220 2987.860 67.265 65.093 o
-2 -3 -7 14510.500 14400.200 230.581 3.290 o
-2 -3 -6 8516.980 8506.530 138.130 9.176 o
-2 -3 -5 12666.300 12380.500 200.353 4.332 o
-2 -3 -4 41535.600 40030.000 604.940 0.431 o
-2 -3 -3 32842.800 32213.600 468.448 0.683 o
-2 -3 -2 25351.600 25499.800 389.827 1.101 o
-2 -3 -1 11985.600 12309.300 197.534 4.636 o
-2 -2 -27 2313.450 2427.190 125.148 44.846 o
-2 -2 -26 5076.850 5204.170 133.734 19.652 o
-2 -2 -25 361.377 345.318 48.101 400.370 o
-2 -2 -24 3793.750 3864.870 109.785 32.228 o
-2 -2 -23 890.295 942.257 56.026 220.388 o
-2 -2 -22 13471.800 13814.400 234.539 3.627 o
-2 -2 -21 8829.190 9120.040 175.793 7.807 o
-2 -2 -20 21513.300 21908.900 342.234 1.496 o
-2 -2 -19 1999.920 1994.750 73.633 89.064 o
-2 -2 -18 5483.900 5742.970 116.914 18.786 o
-2 -2 -17 2604.070 2686.610 73.744 65.612 o
-2 -2 -16 17022.800 17355.900 270.712 2.370 o
-2 -2 -15 10410.100 10438.100 172.778 6.165 o
-2 -2 -14 29438.700 29671.200 438.322 0.826 o
-2 -2 -13 1023.920 1000.270 41.417 275.116 o
-2 -2 -12 7493.540 7923.830 132.882 11.058 o
-2 -2 -11 997.256 1034.950 40.108 284.002 o
-2 -2 -10 14923.900 15992.400 243.052 2.960 o
-2 -2 -9 7624.140 8267.680 133.476 10.594 o
-2 -2 -8 27851.900 28386.100 413.822 0.916 o
-2 -2 -7 6174.590 6130.510 115.019 16.274 o
-2 -2 -6 18489.900 18011.300 295.441 2.063 o
-2 -2 -5 3353.570 3277.330 68.338 49.883 o
-2 -2 -4 60358.100 55144.600 820.476 0.215 o
-2 -2 -3 41135.900 38932.200 584.087 0.447 o
-2 -2 -2 73658.200 70077.800 1039.660 0.140 o
-2 -2 -1 10600.900 10390.800 158.621 6.214 o
-2 -1 -28 6709.440 6485.960 509.155 3.519 o
-2 -1 -27 175.608 134.638 47.367 466.991 o
-2 -1 -26 4490.380 4652.840 126.312 23.700 o
-2 -1 -25 2129.640 2219.570 89.618 69.250 o
-2 -1 -24 1093.020 1150.210 57.900 185.426 o
-2 -1 -23 4322.370 4381.040 109.490 27.442 o
-2 -1 -22 12894.500 13397.300 227.032 3.907 o
-2 -1 -21 875.924 987.705 50.618 246.918 o
-2 -1 -20 12558.600 12616.600 211.339 4.255 o
-2 -1 -19 7838.670 8125.240 149.192 9.988 o
-2 -1 -18 2153.410 2101.930 66.901 89.347 o
-2 -1 -17 6364.120 6343.530 118.969 15.310 o
-2 -1 -16 13756.700 13817.600 219.388 3.623 o
-2 -1 -15 2775.190 2727.130 67.386 65.041 o
-2 -1 -14 42071.400 40706.400 590.837 0.423 o
-2 -1 -13 6038.080 5942.000 122.578 16.475 o
-2 -1 -12 663.520 736.925 45.392 335.076 o
-2 -1 -11 7924.000 7920.330 130.096 10.500 o
-2 -1 -10 41075.500 38940.000 585.908 0.447 o
-2 -1 -9 3476.110 3247.850 62.162 50.071 o
-2 -1 -8 56855.400 52790.600 1038.390 0.218 o
-2 -1 -7 14075.400 14305.000 222.421 3.452 o
-2 -1 -6 4029.140 3872.950 74.081 37.198 o
-2 -1 -5 10748.000 10759.200 188.778 5.689 o
-2 -1 -4 129005.000 113024.000 2024.640 0.046 o
-2 -1 -3 7578.050 7688.440 128.638 11.230 o
-2 -1 -2 13908.100 14118.100 228.383 3.494 o
-2 -1 -1 28004.600 26894.200 386.570 0.956 o
-1 -10 -11 4166.140 4068.020 455.688 4.870 o
-1 -10 -10 2620.710 2709.450 134.682 37.761 o
-1 -10 -9 213.935 174.664 49.616 419.432 o
-1 -10 -8 2213.290 2181.370 146.069 37.971 o
-1 -10 -7 5816.930 5961.630 166.549 14.339 o
-1 -10 -6 865.518 941.909 67.140 175.915 o
-1 -10 -5 4284.200 4416.520 130.699 24.542 o
-1 -10 -4 2517.080 2417.030 110.875 49.457 o
-1 -10 -3 108.852 70.528 48.844 457.565 o
-1 -10 -2 591.716 487.571 65.850 214.376 o
-1 -10 -1 4140.300 4190.130 129.314 25.921 o
-1 -9 -16 1365.320 1061.840 240.282 18.685 o
-1 -9 -15 1388.400 1302.750 87.621 98.846 o
-1 -9 -14 4691.560 4678.920 144.444 20.765 o
-1 -9 -13 1852.710 2065.690 143.518 41.507 o
-1 -9 -12 133.826 104.667 49.406 441.185 o
-1 -9 -11 2066.850 2127.520 92.880 68.796 o
-1 -9 -10 2953.610 3140.410 114.169 40.376 o
-1 -9 -9 595.528 577.181 56.549 267.233 o
-1 -9 -8 4462.930 4412.430 138.894 22.732 o
-1 -9 -7 1937.630 1906.590 93.479 72.785 o
-1 -9 -6 379.334 414.930 49.079 378.258 o
-1 -9 -5 3613.320 3867.970 116.346 32.080 o
-1 -9 -4 6318.530 6590.350 191.243 11.662 o
-1 -9 -3 5197.910 5237.460 135.100 19.085 o
-1 -9 -2 5170.890 5306.360 135.428 19.034 o
-1 -9 -1 3634.540 3792.610 119.197 31.591 o
-1 -8 -19 154.904 80.057 85.683 152.440 o
-1 -8 -18 3657.600 3910.350 116.562 31.611 o
-1 -8 -17 444.878 437.627 46.561 395.288 o
-1 -8 -16 3391.350 3161.960 108.755 38.179 o
-1 -8 -15 7834.350 7942.040 235.720 7.811 o
-1 -8 -14 2200.200 2151.130 86.802 70.667 o
-1 -8 -13 341.034 320.402 45.053 452.144 o
-1 -8 -12 4393.940 4514.530 122.835 24.888 o
-1 -8 -11 292.550 315.333 44.699 470.018 o
-1 -8 -10 1503.530 1627.910 77.475 105.839 o
-1 -8 -9 6663.330 7208.000 163.078 11.883 o
-1 -8 -8 2040.770 2433.990 95.597 64.591 o
-1 -8 -7 438.164 553.250 55.989 290.428 o
-1 -8 -6 5251.240 5616.000 143.897 17.641 o
-1 -8 -5 578.210 662.159 50.443 311.587 o
-1 -8 -4 5194.440 5420.560 130.641 19.183 o
-1 -8 -3 14256.200 14831.800 269.855 3.122 o
-1 -8 -2 10934.600 11379.200 217.988 5.131 o
-1 -8 -1 1837.820 1892.040 82.384 85.821 o
-1 -7 -21 6050.630 5971.940 223.095 10.945 o
-1 -7 -20 648.908 658.799 57.436 251.325 o
-1 -7 -19 976.914 1019.340 67.471 165.705 o
-1 -7 -18 3463.110 3499.010 113.602 35.027 o
-1 -7 -17 365.409 333.159 43.846 464.439 o
-1 -7 -16 684.460 720.018 48.196 309.121 o
-1 -7 -15 14974.100 15195.600 279.354 2.890 o
-1 -7 -14 1988.590 2102.760 82.124 79.719 o
-1 -7 -13 2718.030 2740.780 82.339 58.521 o
-1 -7 -12 2501.800 2697.520 81.645 63.034 o
-1 -7 -11 391.625 398.803 42.543 470.582 o
-1 -7 -10 3573.320 3809.920 96.635 36.950 o
-1 -7 -9 29863.500 31424.600 492.192 0.760 o
-1 -7 -8 1759.610 1788.070 71.039 103.269 o
-1 -7 -7 849.257 898.644 55.633 228.623 o
-1 -7 -6 4237.870 4556.240 130.455 24.472 o
-1 -7 -5 2216.180 2445.820 82.000 70.872 o
-1 -7 -4 5549.330 5695.100 121.123 18.351 o
-1 -7 -3 19736.100 20193.500 343.272 1.717 o
-1 -7 -2 1017.990 1104.500 54.737 205.875 o
-1 -7 -1 3790.510 3773.420 100.042 34.577 o
-1 -6 -23 347.361 289.995 56.138 314.194 o
-1 -6 -22 3163.940 3206.070 137.788 31.958 o
-1 -6 -21 675.189 706.037 56.119 254.425 o
-1 -6 -20 5335.590 5456.170 142.830 17.712 o
-1 -6 -19 637.807 589.120 52.887 288.484 o
-1 -6 -18 5797.820 5880.680 180.209 13.642 o
-1 -6 -17 583.264 532.317 55.889 275.879 o
-1 -6 -16 11088.700 11374.200 222.178 5.019 o
-1 -6 -15 3963.930 4129.300 113.905 29.532 o
-1 -6 -14 10552.100 10784.500 197.484 5.696 o
-1 -6 -13 1218.600 1222.530 57.405 174.368 o
-1 -6 -12 3200.920 3275.230 89.951 45.121 o
-1 -6 -11 350.387 346.147 33.630 689.202 o
-1 -6 -10 16647.800 17682.900 278.357 2.381 o
-1 -6 -9 15104.400 15466.600 249.144 2.954 o
-1 -6 -8 24351.800 25711.200 448.634 1.092 o
-1 -6 -7 573.873 619.362 36.677 471.522 o
-1 -6 -6 6321.130 7051.820 134.745 13.863 o
-1 -6 -5 3392.620 3723.670 95.370 39.262 o
-1 -6 -4 12179.400 12348.800 218.822 4.393 o
-1 -6 -3 3914.830 4033.210 104.199 31.900 o
-1 -6 -2 18906.800 19294.600 310.427 1.908 o
-1 -6 -1 1349.450 1518.780 56.617 156.344 o
-1 -5 -25 45.328 36.293 99.488 114.971 o
-1 -5 -24 890.816 946.451 59.325 205.106 o
-1 -5 -23 772.259 803.596 55.492 242.441 o
-1 -5 -22 4469.340 4506.870 114.288 25.675 o
-1 -5 -21 1720.890 1775.620 79.396 94.046 o
-1 -5 -20 8717.980 9157.270 171.154 7.978 o
-1 -5 -19 549.170 562.852 43.858 392.585 o
-1 -5 -18 2581.980 2742.090 82.509 60.733 o
-1 -5 -17 1309.730 1384.410 60.708 153.305 o
-1 -5 -16 20880.900 21876.600 339.426 1.551 o
-1 -5 -15 4715.960 4811.290 111.993 24.040 o
-1 -5 -14 9638.470 9769.980 181.657 6.802 o
-1 -5 -13 488.487 534.222 38.421 488.156 o
-1 -5 -12 1592.120 1645.530 66.804 119.048 o
-1 -5 -11 88.594 78.167 30.323 1122.760 o
-1 -5 -10 34955.700 35010.400 540.301 0.584 o
-1 -5 -9 5484.150 5848.690 116.220 18.663 o
-1 -5 -8 35997.200 36580.000 536.458 0.552 o
-1 -5 -7 557.482 577.963 32.416 553.277 o
-1 -5 -6 3483.200 3655.800 78.069 43.122 o
-1 -5 -5 1228.770 1315.100 50.295 191.996 o
-1 -5 -4 12991.100 13993.200 265.883 3.558 o
-1 -5 -3 6280.500 6525.870 124.162 15.037 o
-1 -5 -2 31560.900 31950.900 503.970 0.703 o
-1 -5 -1 7934.930 7877.410 133.956 10.417 o
-1 -4 -26 943.577 898.520 95.322 102.007 o
-1 -4 -25 287.421 307.802 48.209 416.107 o
-1 -4 -24 3549.430 3526.670 104.973 36.354 o
-1 -4 -23 1088.730 1060.410 71.262 147.307 o
-1 -4 -22 550.015 616.112 49.428 328.669 o
-1 -4 -21 12303.300 12881.200 221.843 4.228 o
-1 -4 -20 1831.130 1797.120 71.733 99.713 o
-1 -4 -19 2115.550 2281.300 77.002 78.934 o
-1 -4 -18 10405.100 10538.500 183.462 6.013 o
-1 -4 -17 3191.140 3374.400 90.768 44.412 o
-1 -4 -16 2294.200 2324.250 70.515 79.051 o
-1 -4 -15 26170.400 26929.800 405.501 1.018 o
-1 -4 -14 8594.580 8650.290 151.240 8.743 o
-1 -4 -13 725.863 635.429 35.730 431.331 o
-1 -4 -12 19822.700 19662.500 301.108 1.808 o
-1 -4 -11 641.250 609.530 38.186 431.594 o
-1 -4 -10 4971.260 4837.910 99.290 24.135 o
-1 -4 -9 52238.300 50693.500 801.864 0.268 o
-1 -4 -8 9054.040 8463.490 157.942 8.238 o
-1 -4 -7 2001.730 2006.130 55.293 108.841 o
-1 -4 -6 17171.800 18048.500 272.300 2.291 o
-1 -4 -5 7803.940 7970.230 131.543 10.600 o
-1 -4 -4 18595.800 18874.600 295.594 1.997 o
-1 -4 -3 45275.800 45408.200 716.429 0.347 o
-1 -4 -2 3697.160 4086.720 86.798 36.805 o
-1 -4 -1 7944.550 7521.670 125.036 10.892 o
-1 -3 -27 8714.620 8484.630 253.275 6.622 o
-1 -3 -26 1214.690 1329.810 67.709 143.092 o
-1 -3 -25 37.487 83.025 42.986 599.655 o
-1 -3 -24 3167.950 3226.240 102.710 41.682 o
-1 -3 -23 532.219 544.990 47.679 355.185 o
-1 -3 -22 2033.010 2079.310 81.411 79.582 o
-1 -3 -21 23735.600 24367.400 397.889 1.206 o
-1 -3 -20 2919.820 2881.150 85.897 52.720 o
-1 -3 -19 833.441 864.563 46.963 283.100 o
-1 -3 -18 11040.500 11198.000 202.392 5.279 o
-1 -3 -17 232.485 315.473 40.998 559.458 o
-1 -3 -16 6425.280 6432.340 125.998 14.719 o
-1 -3 -15 43683.000 44024.300 642.394 0.379 o
-1 -3 -14 1036.710 1010.310 44.668 255.181 o
-1 -3 -13 2691.910 2803.640 66.431 66.473 o
-1 -3 -12 8318.410 8420.960 140.387 9.414 o
-1 -3 -11 3733.110 3761.240 78.311 39.807 o
-1 -3 -10 1969.690 1994.230 50.535 116.191 o
-1 -3 -9 35038.300 34476.300 500.843 0.600 o
-1 -3 -8 5247.370 5270.430 91.736 22.538 o
-1 -3 -7 1115.040 1091.230 35.468 282.193 o
-1 -3 -6 15970.600 15831.200 248.293 2.746 o
-1 -3 -5 2851.660 2629.280 56.108 69.969 o
-1 -3 -4 4329.590 4658.370 84.564 30.034 o
-1 -3 -3 113700.000 105124.000 1550.980 0.061 o
-1 -3 -2 28435.900 27461.900 459.002 0.884 o
-1 -3 -1 5162.340 5356.580 104.724 21.629 o
-1 -2 -28 2604.210 2564.000 205.779 21.171 o
-1 -2 -27 2410.410 2342.620 105.296 53.960 o
-1 -2 -26 3537.590 3502.150 108.301 35.738 o
-1 -2 -25 3920.590 3987.960 110.066 30.927 o
-1 -2 -24 1191.240 1189.180 62.150 163.352 o
-1 -2 -23 5500.310 5755.530 127.195 17.974 o
-1 -2 -22 5947.560 6000.790 132.565 16.046 o
-1 -2 -21 14458.300 14985.100 257.144 3.116 o
-1 -2 -20 6549.890 6668.400 131.670 13.924 o
-1 -2 -19 7044.640 7215.420 137.876 12.206 o
-1 -2 -18 8062.740 8074.040 144.418 9.853 o
-1 -2 -17 10662.200 10941.700 181.648 5.761 o
-1 -2 -16 12447.900 12633.500 202.860 4.350 o
-1 -2 -15 13371.200 13230.800 209.238 3.884 o
-1 -2 -14 8335.000 8216.000 138.379 9.563 o
-1 -2 -13 14379.500 14126.700 219.045 3.410 o
-1 -2 -12 1650.860 1704.290 48.856 145.713 o
-1 -2 -11 20298.100 20156.000 299.631 1.739 o
-1 -2 -10 19040.200 18592.000 319.849 1.913 o
-1 -2 -9 6384.160 6826.320 132.049 14.091 o
-1 -2 -8 25095.400 25101.000 365.618 1.144 o
-1 -2 -7 36629.200 36787.000 551.654 0.535 o
-1 -2 -6 10742.300 11283.300 177.477 5.661 o
-1 -2 -5 47533.300 45755.900 681.232 0.331 o
-1 -2 -4 25120.900 25135.000 379.557 1.130 o
-1 -2 -3 53592.900 48460.100 754.713 0.271 o
-1 -2 -2 21474.600 21028.800 394.492 1.458 o
-1 -2 -1 26669.000 25887.600 407.179 1.018 o
-1 -1 -28 1598.810 1606.590 99.150 76.597 o
-1 -1 -27 155.114 154.287 48.848 443.106 o
-1 -1 -26 2413.010 2469.660 94.672 58.955 o
-1 -1 -25 9193.430 9439.000 179.556 7.300 o
-1 -1 -24 2502.790 2609.100 89.207 59.535 o
-1 -1 -23 7643.560 7713.660 150.207 10.495 o
-1 -1 -22 4306.090 4406.040 105.088 28.100 o
-1 -1 -21 1460.160 1573.030 65.360 129.464 o
-1 -1 -20 2054.410 2094.860 71.193 88.394 o
-1 -1 -19 11154.900 11267.700 188.300 5.339 o
-1 -1 -18 4772.160 5182.060 103.643 23.819 o
-1 -1 -17 25563.500 25364.700 380.156 1.102 o
-1 -1 -16 1418.720 1584.700 53.433 156.719 o
-1 -1 -15 5522.160 5400.050 99.672 20.518 o
-1 -1 -14 20077.300 19839.200 297.775 1.779 o
-1 -1 -13 16392.400 16171.800 244.882 2.647 o
-1 -1 -12 11328.900 11415.700 177.104 5.313 o
-1 -1 -11 54794.300 51013.700 761.661 0.257 o
-1 -1 -10 13926.900 13140.300 198.160 3.780 o
-1 -1 -9 463.646 386.040 26.136 818.313 o
-1 -1 -8 14967.300 15085.000 244.091 3.045 o
-1 -1 -7 81517.000 71769.700 1148.210 0.120 o
-1 -1 -6 27635.700 27460.100 431.640 0.930 o
-1 -1 -5 15251.600 14927.200 217.582 3.100 o
-1 -1 -4 51565.000 48171.500 730.682 0.287 o
-1 -1 -3 28685.000 27570.900 442.025 0.884 o
-1 -1 -2 3074.810 3679.710 66.994 51.434 o
-1 -1 -1 39208.400 36045.900 534.271 0.505 o
0 -11 -8 2580.870 2304.760 275.237 13.200 o
0 -11 -7 2543.690 2640.720 109.906 48.399 o
0 -11 -6 134.334 48.806 51.046 418.572 o
0 -11 -5 3133.410 3202.950 122.810 36.101 o
0 -11 -4 1765.210 1578.070 89.240 83.990 o
0 -11 -3 3326.580 3367.210 124.300 33.807 o
0 -11 -2 1479.200 1264.080 75.656 116.205 o
0 -11 -1 2685.830 2482.310 116.688 44.847 o
0 -10 -14 5589.320 5304.850 509.702 3.739 o
0 -10 -13 2740.460 2749.760 138.083 35.758 o
0 -10 -12 246.308 172.295 49.272 419.507 o
0 -10 -11 1889.510 1920.680 117.188 55.678 o
0 -10 -10 5125.670 5144.890 149.150 18.227 o
0 -10 -9 1185.970 1245.000 72.292 135.681 o
0 -10 -8 5603.110 5662.060 166.460 15.096 o
0 -10 -7 2112.960 1906.950 97.726 66.233 o
0 -10 -6 439.686 408.814 53.617 320.221 o
0 -10 -5 4530.510 4972.180 133.664 22.016 o
0 -10 -4 5395.760 5621.100 143.677 17.253 o
0 -10 -3 477.854 428.725 51.704 332.306 o
0 -10 -2 3289.510 3250.850 110.001 38.312 o
0 -10 -1 3047.260 3110.090 110.880 40.752 o
0 -9 -17 421.259 452.006 76.633 173.949 o
0 -9 -16 5778.460 5444.430 178.085 14.210 o
0 -9 -15 939.550 843.167 92.363 108.074 o
0 -9 -14 6792.430 6869.490 199.027 10.517 o
0 -9 -13 239.033 286.542 50.252 397.152 o
0 -9 -12 3552.280 3643.140 112.021 34.222 o
0 -9 -11 1320.210 1327.400 85.297 104.007 o
0 -9 -10 8292.960 8916.800 202.706 7.814 o
0 -9 -9 140.121 154.468 41.171 609.825 o
0 -9 -8 6820.010 7065.800 164.342 11.699 o
0 -9 -7 1040.570 1148.880 86.484 112.615 o
0 -9 -6 2891.740 2925.120 110.953 43.010 o
0 -9 -5 248.516 255.078 43.308 514.541 o
0 -9 -4 14780.900 15833.100 313.161 2.728 o
0 -9 -3 1673.100 1681.450 84.939 89.928 o
0 -9 -2 13757.800 14013.700 259.416 3.391 o
0 -9 -1 662.206 741.045 52.441 278.648 o
0 -8 -20 4231.790 4461.890 191.794 17.313 o
0 -8 -19 775.585 679.837 70.320 176.953 o
0 -8 -18 686.295 581.265 65.812 204.936 o
0 -8 -17 2133.160 2151.790 113.787 53.705 o
0 -8 -16 4488.980 4474.250 147.421 21.479 o
0 -8 -15 5640.620 5631.870 138.284 16.965 o
0 -8 -14 3191.040 3259.360 96.885 43.112 o
0 -8 -13 3559.310 3975.610 105.499 34.404 o
0 -8 -12 1600.930 1675.690 68.605 115.102 o
0 -8 -11 7311.860 8048.930 190.495 9.501 o
0 -8 -10 3005.650 3217.470 95.135 45.941 o
0 -8 -9 10011.000 10697.200 216.279 5.796 o
0 -8 -8 4794.930 5306.600 122.877 21.506 o
0 -8 -7 5081.880 5513.550 122.859 20.070 o
0 -8 -6 2908.610 3173.220 88.073 49.999 o
0 -8 -5 3217.250 3471.270 94.024 42.611 o
0 -8 -4 6478.410 6859.010 155.993 12.788 o
0 -8 -3 8125.320 8131.190 172.225 9.059 o
0 -8 -2 11825.800 12248.700 229.258 4.467 o
0 -8 -1 2361.710 2372.970 87.774 64.813 o
0 -7 -22 4814.580 4587.770 153.265 19.582 o
0 -7 -21 1122.920 1124.220 71.742 142.812 o
0 -7 -20 2871.320 2992.060 127.220 37.444 o
0 -7 -19 4091.570 4475.150 128.090 25.660 o
0 -7 -18 892.714 1003.410 58.542 205.894 o
0 -7 -17 6741.980 6979.060 160.073 12.063 o
0 -7 -16 7405.810 7734.500 179.087 9.923 o
0 -7 -15 6342.120 6309.530 137.688 14.469 o
0 -7 -14 4337.320 4411.250 101.191 28.463 o
0 -7 -13 9259.920 9740.100 172.059 7.248 o
0 -7 -12 429.291 449.998 46.050 403.831 o
0 -7 -11 9456.050 10105.300 182.645 6.798 o
0 -7 -10 7125.360 7676.540 163.288 10.835 o
0 -7 -9 18892.600 20293.000 327.308 1.824 o
0 -7 -8 8479.440 9059.860 166.337 8.345 o
0 -7 -7 14121.600 15028.900 292.462 3.025 o
0 -7 -6 905.650 945.021 47.990 260.394 o
0 -7 -5 14910.200 15611.200 283.975 2.843 o
0 -7 -4 17920.500 18922.200 322.829 2.015 o
0 -7 -3 3755.450 3828.250 90.435 36.669 o
0 -7 -2 16207.100 16629.800 262.110 2.587 o
0 -7 -1 10898.000 10931.600 182.897 5.618 o
0 -6 -24 156.883 134.212 48.929 443.112 o
0 -6 -23 3884.400 4138.740 116.325 29.552 o
0 -6 -22 5748.510 5725.430 131.205 17.025 o
0 -6 -21 191.938 224.493 42.205 558.131 o
0 -6 -20 5360.590 5335.390 121.065 19.563 o
0 -6 -19 7704.800 7983.840 154.488 10.111 o
0 -6 -18 522.467 528.011 47.025 365.624 o
0 -6 -17 8184.080 8443.080 166.403 8.966 o
0 -6 -16 12497.200 12842.300 228.042 4.124 o
0 -6 -15 885.541 862.597 52.445 243.394 o
0 -6 -14 6589.480 6769.920 149.120 12.972 o
0 -6 -13 4447.080 4561.790 112.019 25.948 o
0 -6 -12 315.147 277.866 32.184 775.074 o
0 -6 -11 5569.670 5795.580 112.406 18.737 o
0 -6 -10 9657.870 10043.800 169.156 6.866 o
0 -6 -9 1047.200 993.157 43.477 261.017 o
0 -6 -8 12388.800 13364.400 230.474 4.056 o
0 -6 -7 13516.200 14364.600 235.652 3.531 o
0 -6 -6 394.883 404.689 29.533 761.891 o
0 -6 -5 11447.800 12063.800 211.533 4.805 o
0 -6 -4 13619.900 14872.000 244.975 3.389 o
0 -6 -3 1132.990 1287.400 51.459 198.530 o
0 -6 -2 23294.600 22988.000 360.558 1.312 o
0 -6 -1 24746.400 24905.200 372.961 1.161 o
0 -5 -26 3598.300 3440.670 459.146 4.943 o
0 -5 -25 2867.340 2953.070 103.636 45.821 o
0 -5 -24 1777.100 1868.370 86.445 83.327 o
0 -5 -23 3770.100 3932.320 109.604 32.196 o
0 -5 -22 2644.840 2773.640 92.372 54.504 o
0 -5 -21 8005.340 8357.240 163.514 9.281 o
0 -5 -20 6334.660 6709.480 139.722 13.959 o
0 -5 -19 6813.250 6955.410 138.498 12.831 o
0 -5 -18 1001.590 1061.020 55.345 206.985 o
0 -5 -17 10766.300 11267.000 192.815 5.498 o
0 -5 -16 8596.590 8413.310 152.854 8.835 o
0 -5 -15 19710.300 19877.600 308.583 1.796 o
0 -5 -14 10028.500 9823.110 167.496 6.697 o
0 -5 -13 3623.430 3633.250 83.166 40.476 o
0 -5 -12 12921.100 12699.300 225.239 4.023 o
0 -5 -11 6453.430 6402.070 129.412 14.527 o
0 -5 -10 12591.100 12695.300 212.985 4.218 o
0 -5 -9 25334.900 25730.500 401.428 1.087 o
0 -5 -8 20536.300 21408.800 336.541 1.603 o
0 -5 -7 15419.900 15957.400 244.784 2.854 o
0 -5 -6 15639.400 15781.100 251.421 2.805 o
0 -5 -5 10046.700 11143.600 192.639 5.939 o
0 -5 -4 10826.700 11282.000 194.995 5.440 o
0 -5 -3 34681.400 35758.100 544.425 0.580 o
0 -5 -2 25486.900 26101.600 402.689 1.070 o
0 -5 -1 38441.900 36875.400 559.000 0.504 o
0 -4 -27 6516.070 6989.060 379.592 5.433 o
0 -4 -26 2145.340 2231.800 93.598 65.940 o
0 -4 -25 1074.940 1022.250 61.186 180.288 o
0 -4 -24 3485.980 3521.350 104.392 37.038 o
0 -4 -23 61.151 23.163 39.266 716.473 o
0 -4 -22 2233.490 2095.430 81.169 74.934 o
0 -4 -21 15662.800 15800.200 263.952 2.755 o
0 -4 -20 2364.380 2444.150 80.946 68.558 o
0 -4 -19 41.868 48.661 32.707 1022.140 o
0 -4 -18 3247.550 3341.280 85.578 45.574 o
0 -4 -17 2243.560 2274.390 71.741 80.072 o
0 -4 -16 6757.120 6980.850 132.443 13.156 o
0 -4 -15 30953.600 30707.600 457.718 0.756 o
0 -4 -14 9766.100 10074.100 174.855 6.697 o
0 -4 -13 3505.620 3305.580 75.170 45.704 o
0 -4 -12 30056.600 29495.500 435.696 0.811 o
0 -4 -11 3335.570 3299.150 70.778 49.254 o
0 -4 -10 14416.600 14036.300 216.892 3.421 o
0 -4 -9 40238.200 39434.100 571.401 0.458 o
0 -4 -8 13344.000 13128.300 213.735 3.884 o
0 -4 -7 10135.500 10306.800 170.772 6.412 o
0 -4 -6 34519.600 34394.000 497.811 0.612 o
0 -4 -5 492.333 488.890 25.409 771.582 o
0 -4 -4 9863.530 10126.200 172.484 6.641 o
0 -4 -3 83143.500 82036.700 1358.270 0.103 o
0 -4 -2 18572.100 20274.600 363.420 1.785 o
0 -4 -1 1180.730 1136.860 35.923 264.376 o
0 -3 -27 5001.910 4923.250 141.783 19.607 o
0 -3 -26 2375.310 2375.370 96.664 59.078 o
0 -3 -25 863.236 812.328 56.801 225.619 o
0 -3 -24 2586.420 2598.040 90.809 57.445 o
0 -3 -23 2999.730 3110.700 94.345 46.908 o
0 -3 -22 3183.100 3197.470 93.503 44.612 o
0 -3 -21 16161.800 16387.100 266.637 2.601 o
0 -3 -20 2821.050 2891.640 83.554 55.110 o
0 -3 -19 4874.160 5113.540 108.884 22.979 o
0 -3 -18 8574.430 8965.850 157.225 8.479 o
0 -3 -17 3328.400 3317.570 80.325 46.347 o
0 -3 -16 10551.600 10708.900 177.364 5.941 o
0 -3 -15 31637.200 31111.800 459.814 0.731 o
0 -3 -14 12235.300 11956.200 191.176 4.652 o
0 -3 -13 13048.100 12948.100 212.117 4.020 o
0 -3 -12 7016.640 7060.970 120.203 13.035 o
0 -3 -11 8345.120 7804.210 135.390 9.879 o
0 -3 -10 39708.700 37532.200 542.266 0.484 o
0 -3 -9 29687.400 28461.800 492.683 0.807 o
0 -3 -8 29619.500 27996.900 463.592 0.833 o
0 -3 -7 12023.200 12045.900 211.005 4.573 o
0 -3 -6 17961.700 17349.200 256.386 2.266 o
0 -3 -5 29242.500 28129.600 425.505 0.865 o
0 -3 -4 17977.000 18143.900 266.385 2.185 o
0 -3 -3 85199.200 81389.400 1204.410 0.105 o
0 -3 -2 8855.830 8791.550 147.867 8.460 o
0 -3 -1 20577.200 20500.600 320.474 1.664 o
0 -2 -28 3436.800 3382.530 162.047 25.173 o
0 -2 -27 838.429 813.453 61.124 206.966 o
0 -2 -26 2520.130 2607.220 97.059 55.094 o
0 -2 -25 9922.470 10323.600 192.086 6.274 o
0 -2 -24 1084.790 1220.640 60.204 175.610 o
0 -2 -23 9222.080 9393.090 173.641 7.394 o
0 -2 -22 4700.880 4790.920 111.893 24.168 o
0 -2 -21 2695.110 2826.210 82.493 58.119 o
0 -2 -20 1468.650 1504.920 64.133 133.149 o
0 -2 -19 15887.200 16381.600 259.326 2.674 o
0 -2 -18 1952.110 2059.110 65.120 98.651 o
0 -2 -17 25297.400 25362.900 380.493 1.115 o
0 -2 -16 3897.640 3869.530 82.438 36.857 o
0 -2 -15 5314.960 5352.050 99.677 21.433 o
0 -2 -14 23539.000 23391.500 347.809 1.298 o
0 -2 -13 25180.700 25151.000 371.057 1.134 o
0 -2 -12 12330.000 12312.500 191.222 4.539 o
0 -2 -11 60960.900 58956.600 840.926 0.204 o
0 -2 -10 38532.300 37249.600 536.016 0.505 o
0 -2 -9 3943.980 4318.260 79.781 34.972 o
0 -2 -8 34937.800 33661.200 504.973 0.609 o
0 -2 -7 82075.500 74518.200 1053.560 0.119 o
0 -2 -6 17368.300 16829.100 293.260 2.297 o
0 -2 -5 51403.400 48957.400 694.035 0.290 o
0 -2 -4 42385.500 38598.800 548.744 0.440 o
0 -2 -3 21286.500 21001.100 352.382 1.535 o
0 -2 -2 8460.900 9556.600 162.978 8.188 o
0 -2 -1 81322.200 74749.200 1451.380 0.109 o
0 -1 -28 920.595 1070.500 65.395 174.583 o
0 -1 -27 57.505 68.819 43.169 591.552 o
0 -1 -26 284.354 329.247 46.434 441.584 o
0 -1 -25 7437.340 7855.430 157.372 10.468 o
0 -1 -24 15105.000 15558.000 259.111 2.907 o
0 -1 -23 2889.800 2963.730 88.708 51.400 o
0 -1 -22 926.569 870.782 45.757 275.913 o
0 -1 -21 227.412 213.623 34.900 753.377 o
0 -1 -20 72.132 116.554 29.884 1150.000 o
0 -1 -19 7368.540 7727.830 138.697 11.229 o
0 -1 -18 40080.500 39906.900 584.160 0.454 o
0 -1 -17 15632.600 15579.400 242.365 2.858 o
0 -1 -16 918.488 1021.820 44.611 272.295 o
0 -1 -15 585.557 525.500 28.256 629.159 o
0 -1 -14 3394.250 3394.890 69.466 48.162 o
0 -1 -13 14377.300 14421.800 219.305 3.370 o
0 -1 -12 31998.100 31640.000 458.788 0.715 o
0 -1 -11 45542.900 42994.700 616.435 0.370 o
0 -1 -10 16037.700 15310.700 238.453 2.816 o
0 -1 -9 1800.980 1668.190 37.484 155.368 o
0 -1 -8 7910.870 7286.530 112.657 11.451 o
0 -1 -7 61835.100 54915.900 778.676 0.212 o
0 -1 -6 68027.200 59095.300 835.182 0.178 o
0 -1 -5 7670.410 7799.710 121.266 11.199 o
0 -1 -4 1234.390 1355.380 26.722 271.231 o
0 -1 -3 838.448 909.135 20.329 495.632 o
0 -1 -2 3691.300 3716.760 85.520 38.843 o
0 0 -24 31291.400 31005.100 1158.180 0.428 o
0 0 -18 114942.000 106355.000 3714.210 0.037 o
0 0 -12 91518.200 86428.400 3004.980 0.058 o
0 0 -6 102172.000 89016.100 3077.070 0.051 o
0 0 6 105247.000 96909.600 4736.240 0.031 o
0 0 12 99405.100 67904.000 3402.100 0.051 o
0 0 18 124883.000 115991.000 4044.490 0.031 o
0 0 24 31692.200 30435.700 1582.030 0.298 o
0 1 1 46926.400 23147.800 1184.670 0.329 o
0 1 2 4106.590 4392.000 121.795 26.734 o
0 1 3 742.738 844.662 17.865 590.251 o
0 1 4 286.210 551.776 24.729 959.751 o
0 1 5 10260.900 10730.800 171.693 6.179 o
0 1 6 59840.800 51622.000 933.642 0.217 o
0 1 7 64584.900 57395.800 888.656 0.190 o
0 1 8 9492.370 9133.570 151.542 7.629 o
0 1 9 1833.020 1792.500 42.901 140.124 o
0 1 10 15325.500 15153.000 246.777 2.950 o
0 1 11 48244.100 45840.200 683.993 0.325 o
0 1 12 30494.100 29993.100 455.799 0.780 o
0 1 13 12988.700 12910.400 207.121 4.077 o
0 1 14 4444.640 4470.510 87.415 29.513 o
0 1 15 597.461 648.963 36.650 459.037 o
0 1 16 565.248 531.486 29.882 607.370 o
0 1 17 15608.100 15472.600 240.055 2.882 o
0 1 18 41500.000 41155.800 627.426 0.420 o
0 1 19 7127.270 7117.570 143.791 11.937 o
0 1 20 123.766 110.291 27.327 1283.650 o
0 1 21 274.876 267.304 35.687 689.676 o
0 1 22 831.974 840.928 66.375 184.122 o
0 1 23 2431.620 2418.080 110.246 50.705 o
0 1 24 14122.900 13220.300 392.145 2.704 o
0 1 25 7525.400 7371.970 199.204 9.374 o
0 1 26 475.547 433.972 54.737 303.756 o
0 1 27 62.695 -6.199 44.889 554.706 o
0 1 28 763.067 796.420 70.502 173.746 o
0 2 0 14651.600 15121.200 247.826 3.097 o
0 2 1 83091.800 74819.600 1430.410 0.107 o
0 2 2 11498.600 12473.200 219.107 4.634 o
0 2 3 24734.300 23834.600 455.614 1.111 o
0 2 4 48327.200 45631.200 675.084 0.326 o
0 2 5 50109.300 49040.100 725.243 0.295 o
0 2 6 19821.800 20371.600 322.056 1.737 o
0 2 7 82866.400 78269.800 1155.790 0.112 o
0 2 8 34084.000 33935.200 508.392 0.622 o
0 2 9 4748.440 5495.220 94.063 24.136 o
0 2 10 38372.900 37720.600 565.747 0.497 o
0 2 11 63920.200 63258.500 941.902 0.180 o
0 2 12 12169.400 12145.500 194.808 4.614 o
0 2 13 24150.800 23820.000 367.522 1.229 o
0 2 14 23372.200 23236.500 359.882 1.300 o
0 2 15 5083.720 5119.070 103.529 22.567 o
0 2 16 3251.110 3193.200 74.173 50.127 o
0 2 17 26162.900 26280.700 408.954 1.030 o
0 2 18 2034.180 2018.050 65.433 96.134 o
0 2 19 15294.200 15719.000 272.261 2.803 o
0 2 20 1058.880 971.933 59.300 190.261 o
0 2 21 3069.960 3119.160 100.592 43.892 o
0 2 22 5072.850 5139.720 142.327 18.993 o
0 2 23 9811.300 9688.220 236.962 5.905 o
0 2 24 1422.970 1582.510 93.144 87.100 o
0 2 25 10332.900 10193.100 277.812 4.993 o
0 2 26 2873.370 3041.970 127.868 37.051 o
0 2 27 700.119 576.883 62.772 219.464 o
0 3 0 13751.400 13311.700 229.116 3.648 o
0 3 1 18004.500 17198.500 299.059 2.168 o
0 3 2 13061.800 13470.400 199.942 3.998 o
0 3 3 86770.300 79471.500 1123.830 0.106 o
0 3 4 19306.600 18457.900 269.192 1.989 o
0 3 5 29199.000 27837.400 441.547 0.862 o
0 3 6 17055.300 16479.600 267.763 2.441 o
0 3 7 13022.600 13354.600 232.515 3.840 o
0 3 8 29943.900 29579.700 445.484 0.808 o
0 3 9 29544.000 29691.100 448.743 0.817 o
0 3 10 40129.300 39218.700 588.635 0.457 o
0 3 11 7909.320 7545.410 127.507 10.862 o
0 3 12 7103.900 7132.870 122.861 12.705 o
0 3 13 12602.300 12371.900 193.842 4.401 o
0 3 14 11619.500 11347.000 179.719 5.161 o
0 3 15 32681.500 32213.100 472.245 0.686 o
0 3 16 9020.920 8836.220 148.623 8.257 o
0 3 17 4567.090 4544.140 94.864 27.561 o
0 3 18 8140.970 8215.800 151.349 9.501 o
0 3 19 4634.830 4630.710 105.002 25.696 o
0 3 20 2613.480 2695.850 89.344 57.038 o
0 3 21 16819.200 17208.300 359.891 2.157 o
0 3 22 3794.710 3955.540 119.877 29.976 o
0 3 23 3282.300 3335.910 127.995 33.279 o
0 3 24 2605.600 2539.820 105.192 50.435 o
0 3 25 823.859 845.011 64.318 192.884 o
0 3 26 2292.970 2176.160 104.282 57.144 o
0 3 27 5008.090 4644.170 152.740 18.968 o
0 4 0 5535.770 5959.150 112.519 18.572 o
0 4 1 2336.300 2198.090 48.267 97.553 o
0 4 2 18281.300 19644.100 302.813 1.974 o
0 4 3 86366.000 82710.500 1226.090 0.102 o
0 4 4 9442.540 9390.130 147.061 7.627 o
0 4 5 803.842 786.575 28.077 462.240 o
0 4 6 38968.600 37481.800 594.599 0.483 o
0 4 7 9452.700 9249.790 162.723 7.438 o
0 4 8 12928.700 12207.300 209.152 4.209 o
0 4 9 40819.700 39803.600 632.112 0.435 o
0 4 10 14528.600 14291.600 254.351 3.193 o
0 4 11 4503.630 4626.780 101.606 26.830 o
0 4 12 28494.000 27958.700 477.107 0.862 o
0 4 13 2413.080 2368.770 73.470 73.399 o
0 4 14 10366.500 10529.100 192.862 5.929 o
0 4 15 32805.100 32920.500 506.528 0.661 o
0 4 16 6662.560 6759.010 127.894 13.757 o
0 4 17 1817.040 1752.240 55.706 123.192 o
0 4 18 2867.930 2924.930 68.854 60.577 o
0 4 19 34.508 93.934 23.073 1927.380 o
0 4 20 2794.670 2759.790 89.477 53.816 o
0 4 21 15801.000 15831.600 335.181 2.474 o
0 4 22 2355.590 2330.030 121.049 46.754 o
0 4 23 13.643 -12.683 35.592 895.717 o
0 4 24 3629.550 3689.900 165.121 23.409 o
0 4 25 961.804 857.981 79.634 135.164 o
0 4 26 2166.020 2320.250 124.589 46.859 o
0 5 0 2668.580 3090.600 65.496 64.407 o
0 5 1 39019.600 36754.000 533.744 0.502 o
0 5 2 25283.500 25075.400 370.261 1.131 o
0 5 3 35045.500 34838.100 529.417 0.587 o
0 5 4 12600.800 12430.900 192.932 4.396 o
0 5 5 7502.370 7401.590 127.816 11.606 o
0 5 6 16743.000 15980.400 268.972 2.530 o
0 5 7 13331.200 12759.100 220.056 3.911 o
0 5 8 19641.100 19562.500 325.082 1.789 o
0 5 9 27309.400 26790.500 437.166 0.952 o
0 5 10 14504.400 14545.600 250.203 3.187 o
0 5 11 8030.690 8147.290 154.041 9.610 o
0 5 12 13162.700 12526.400 232.175 3.929 o
0 5 13 4179.190 4200.190 118.126 27.420 o
0 5 14 8640.090 8359.620 170.043 8.455 o
0 5 15 18642.500 17885.200 326.351 1.983 o
0 5 16 8869.440 8323.220 164.735 8.356 o
0 5 17 10460.900 10273.600 208.044 5.766 o
0 5 18 828.615 750.103 54.623 244.166 o
0 5 19 7574.620 7396.140 186.720 9.688 o
0 5 20 6631.260 6598.110 175.793 11.878 o
0 5 21 8912.220 8989.150 219.483 6.971 o
0 5 22 2833.220 2844.620 179.848 24.831 o
0 5 23 3471.970 3151.740 149.314 27.945 o
0 5 24 2113.290 1903.990 180.634 28.346 o
0 5 25 2656.590 2723.820 217.739 19.125 o
0 6 0 2114.950 2248.720 61.361 93.382 o
0 6 1 24741.300 24525.300 368.297 1.176 o
0 6 2 24220.700 23278.200 349.364 1.258 o
0 6 3 1352.330 1365.460 50.036 179.251 o
0 6 4 10638.400 10716.300 173.267 5.931 o
0 6 5 9955.270 9634.680 158.379 6.943 o
0 6 6 472.919 477.078 34.288 579.659 o
0 6 7 12066.800 11532.300 206.193 4.698 o
0 6 8 12143.300 11814.100 210.985 4.571 o
0 6 9 998.915 912.150 43.909 272.331 o
0 6 10 8633.230 8613.660 185.998 8.005 o
0 6 11 6239.750 6355.230 131.453 14.966 o
0 6 12 210.255 240.792 30.730 921.980 o
0 6 13 4241.290 4473.230 117.417 26.485 o
0 6 14 7660.730 7779.500 161.961 10.088 o
0 6 15 834.786 810.626 56.549 229.818 o
0 6 16 10504.500 10680.100 243.816 5.215 o
0 6 17 8424.330 8522.150 217.746 7.542 o
0 6 18 646.807 536.306 71.867 181.484 o
0 6 19 7894.620 8036.310 235.861 7.724 o
0 6 20 6145.810 5813.320 194.059 12.357 o
0 6 21 188.720 230.497 66.919 240.946 o
0 6 22 5117.080 4705.940 218.594 13.286 o
0 6 23 3351.480 2983.930 185.159 22.173 o
0 6 24 138.361 124.756 80.368 172.630 o
0 7 0 4489.430 4522.390 106.325 26.580 o
0 7 1 12125.700 11682.100 192.997 4.744 o
0 7 2 17361.600 17021.200 266.251 2.355 o
0 7 3 3891.530 3898.020 94.829 34.356 o
0 7 4 16213.100 16045.000 251.212 2.672 o
0 7 5 15658.600 15287.800 250.244 2.854 o
0 7 6 687.961 656.365 56.055 256.147 o
0 7 7 13493.100 13050.100 234.004 3.735 o
0 7 8 8521.490 8104.760 171.895 8.663 o
0 7 9 20153.300 20089.700 342.040 1.686 o
0 7 10 7714.440 7510.430 144.531 10.702 o
0 7 11 8539.460 8631.870 176.442 8.285 o
0 7 12 465.174 498.750 36.822 529.947 o
0 7 13 8621.020 8577.830 170.730 8.352 o
0 7 14 5610.350 5508.150 165.085 15.339 o
0 7 15 5284.000 5169.930 174.515 15.741 o
0 7 16 7915.130 7949.590 249.061 7.420 o
0 7 17 6588.030 6344.940 225.140 10.035 o
0 7 18 872.835 987.549 86.189 120.486 o
0 7 19 4450.230 4614.190 176.346 18.187 o
0 7 20 3071.950 3191.570 158.203 27.754 o
0 7 21 1288.050 1275.500 107.704 75.507 o
0 7 22 4758.410 4432.810 225.299 13.539 o
0 8 0 2156.470 2157.600 74.675 81.454 o
0 8 1 3054.650 3058.350 84.828 50.049 o
0 8 2 10066.500 9861.030 188.307 6.381 o
0 8 3 9328.880 8952.370 175.801 7.451 o
0 8 4 6274.050 6228.870 125.474 15.344 o
0 8 5 2968.930 3162.060 93.691 47.207 o
0 8 6 3098.430 2831.600 89.480 49.215 o
0 8 7 5742.600 5667.410 170.705 14.527 o
0 8 8 4236.680 4116.470 118.226 27.321 o
0 8 9 10005.500 9975.520 301.608 4.873 o
0 8 10 3172.040 3306.540 107.868 39.701 o
0 8 11 6808.490 7084.050 188.147 10.777 o
0 8 12 1738.060 1751.620 82.325 90.379 o
0 8 13 3778.290 3933.020 146.339 25.420 o
0 8 14 3241.550 3275.530 151.601 28.235 o
0 8 15 5695.860 5919.530 307.378 7.890 o
0 8 16 5258.290 4983.360 273.566 9.871 o
0 8 17 1755.030 1793.790 174.186 31.446 o
0 8 18 836.382 752.399 86.333 124.663 o
0 8 19 766.464 709.712 94.056 110.205 o
0 8 20 3771.930 3386.150 186.233 20.347 o
0 9 0 2134.930 2142.880 88.214 70.964 o
0 9 1 527.464 551.717 48.008 351.990 o
0 9 2 13296.600 13056.800 402.802 2.796 o
0 9 3 1745.790 1689.790 76.592 98.126 o
0 9 4 13917.300 13760.500 308.717 3.123 o
0 9 5 213.631 166.827 43.592 529.319 o
0 9 6 3346.950 3179.170 112.617 37.405 o
0 9 7 1017.180 982.669 66.377 167.949 o
0 9 8 7667.670 7501.880 242.557 7.937 o
0 9 9 79.572 58.908 42.689 600.007 o
0 9 10 7703.630 7559.630 282.981 6.879 o
0 9 11 1380.720 1306.570 82.421 107.207 o
0 9 12 3060.490 3051.390 160.946 27.506 o
0 9 13 302.058 283.036 69.471 217.668 o
0 9 14 7441.220 7636.470 348.399 5.595 o
0 9 15 909.837 1024.850 95.730 100.682 o
0 9 16 5976.770 6172.980 332.096 6.918 o
0 9 17 455.479 371.618 89.429 131.583 o
0 10 0 424.966 347.953 49.201 374.671 o
0 10 1 2875.650 2754.900 111.497 43.776 o
0 10 2 3121.620 3125.910 109.469 40.464 o
0 10 3 489.843 447.566 51.202 334.135 o
0 10 4 5956.720 6111.080 208.386 11.687 o
0 10 5 4556.100 4525.660 164.983 19.207 o
0 10 6 333.948 261.386 52.274 358.969 o
0 10 7 2070.000 1831.250 99.315 66.360 o
0 10 8 5591.640 5366.950 193.196 13.665 o
0 10 9 1095.130 1033.690 85.097 115.410 o
0 10 10 4922.100 4457.950 218.254 13.788 o
0 10 11 1944.570 1863.520 127.407 49.404 o
0 10 12 283.720 221.203 72.325 204.224 o
0 10 13 2760.960 2458.710 148.793 33.276 o
0 11 0 123.275 189.240 66.721 246.835 o
0 11 1 2567.100 2350.580 105.700 51.775 o
0 11 2 1430.980 1245.050 86.174 100.661 o
0 11 3 3057.350 2995.160 130.464 35.188 o
0 11 4 1805.870 1557.070 101.643 71.046 o
0 11 5 2922.100 2722.210 161.668 28.586 o
0 11 6 203.292 253.337 61.009 284.617 o
0 11 7 2711.570 2485.980 203.507 21.394 o
1 1 0 1409.000 1503.880 35.617 206.224 o
1 1 1 40576.000 36985.700 664.852 0.448 o
1 1 2 1210.200 1705.010 51.477 172.941 o
1 1 3 31343.200 30292.900 572.111 0.697 o
1 1 4 52501.500 49645.000 861.576 0.264 o
1 1 5 11067.100 10680.000 235.183 5.054 o
1 1 6 30648.400 30043.800 536.886 0.735 o
1 1 7 82939.000 73851.900 1043.590 0.118 o
1 1 8 17061.500 17475.500 255.566 2.394 o
1 1 9 423.999 387.514 27.221 817.532 o
1 1 10 14433.700 14062.100 210.784 3.440 o
1 1 11 53077.700 49485.400 708.257 0.276 o
1 1 12 9364.520 9431.080 149.697 7.638 o
1 1 13 16075.400 15676.300 237.572 2.776 o
1 1 14 17472.800 16791.600 253.826 2.387 o
1 1 15 5959.310 5867.980 104.290 17.881 o
1 1 16 1375.550 1512.270 49.857 171.506 o
1 1 17 22658.800 21818.300 342.870 1.414 o
1 1 18 4176.390 4216.310 92.427 31.472 o
1 1 19 11770.400 11979.400 227.083 4.558 o
1 1 20 1144.460 1100.070 63.889 164.122 o
1 1 21 1812.800 1926.770 78.974 89.733 o
1 1 22 5113.590 5132.510 154.453 17.821 o
1 1 23 6509.130 6281.490 187.482 11.781 o
1 1 24 2522.970 2573.780 123.908 42.962 o
1 1 25 9914.710 9926.060 268.308 5.355 o
1 1 26 2296.560 2225.430 105.955 55.791 o
1 1 27 131.777 100.799 49.442 441.199 o
1 1 28 1617.990 1683.570 112.178 63.923 o
1 2 0 46752.600 41926.300 812.375 0.334 o
1 2 1 27767.900 26668.800 397.361 0.963 o
1 2 2 21475.400 20689.200 328.552 1.566 o
1 2 3 48181.400 42655.600 740.544 0.331 o
1 2 4 20003.200 19779.800 316.080 1.759 o
1 2 5 47128.000 46326.400 809.886 0.315 o
1 2 6 11713.600 12069.200 235.263 4.495 o
1 2 7 39008.500 38474.700 603.649 0.473 o
1 2 8 22494.400 22353.900 340.406 1.410 o
1 2 9 2684.060 2650.710 54.308 74.862 o
1 2 10 19156.700 18674.100 289.608 1.955 o
1 2 11 18881.300 18424.500 285.493 2.011 o
1 2 12 2251.020 2450.890 54.139 91.331 o
1 2 13 14975.900 14931.100 227.838 3.125 o
1 2 14 8932.120 8763.100 144.113 8.465 o
1 2 15 14658.600 14663.100 226.552 3.238 o
1 2 16 11325.200 11352.400 181.667 5.291 o
1 2 17 11067.200 11212.500 189.391 5.388 o
1 2 18 8683.990 8830.610 167.681 8.231 o
1 2 19 7618.920 7639.830 149.090 10.613 o
1 2 20 6569.730 6572.990 159.315 12.730 o
1 2 21 13893.100 13932.400 295.626 3.178 o
1 2 22 5695.010 5524.620 147.791 16.305 o
1 2 23 5647.210 5327.280 166.924 15.329 o
1 2 24 1080.180 1063.900 71.039 148.250 o
1 2 25 4180.750 4013.120 133.823 25.459 o
1 2 26 3372.050 3260.330 122.673 34.267 o
1 2 27 1775.490 1415.560 93.440 80.982 o
1 3 0 25603.000 25411.400 457.749 1.034 o
1 3 1 4091.410 4194.680 73.499 35.274 o
1 3 2 27657.300 25065.700 450.095 0.963 o
1 3 3 111445.000 99311.000 1402.850 0.066 o
1 3 4 3685.680 3763.190 66.833 42.796 o
1 3 5 2753.780 2536.860 50.080 76.729 o
1 3 6 16311.900 16388.700 267.732 2.572 o
1 3 7 1742.850 1727.000 47.843 140.572 o
1 3 8 4029.480 3847.710 80.716 36.103 o
1 3 9 32978.600 32733.900 522.759 0.653 o
1 3 10 3036.240 3155.730 84.380 49.809 o
1 3 11 2694.340 2527.390 56.356 75.117 o
1 3 12 8432.080 8458.930 143.369 9.193 o
1 3 13 2616.230 2683.250 62.336 71.774 o
1 3 14 1245.220 1325.600 46.626 201.887 o
1 3 15 44509.300 44010.800 666.636 0.367 o
1 3 16 7117.360 6929.590 122.066 12.901 o
1 3 17 326.760 362.707 27.337 910.912 o
1 3 18 11062.400 10873.600 198.074 5.393 o
1 3 19 618.000 532.836 33.634 516.799 o
1 3 20 3098.480 3178.030 103.907 42.210 o
1 3 21 23779.800 24148.800 483.145 1.121 o
1 3 22 1641.950 1566.890 75.666 104.853 o
1 3 23 464.445 445.667 58.013 277.148 o
1 3 24 2609.450 2466.930 103.133 51.808 o
1 3 25 88.707 97.591 41.777 617.169 o
1 3 26 978.327 964.619 99.930 93.181 o
1 4 0 36670.200 36856.900 534.571 0.539 o
1 4 1 8062.990 7366.220 122.724 10.889 o
1 4 2 3244.100 3443.300 75.961 47.947 o
1 4 3 46510.500 45358.400 715.710 0.337 o
1 4 4 20479.900 19527.400 302.842 1.746 o
1 4 5 7893.630 7640.040 124.431 10.895 o
1 4 6 18817.500 18581.500 276.860 2.026 o
1 4 7 1647.070 1563.110 46.608 155.289 o
1 4 8 8659.500 8289.230 151.039 8.872 o
1 4 9 53030.800 51926.700 819.942 0.258 o
1 4 10 6178.580 6187.410 120.687 15.886 o
1 4 11 751.971 752.377 37.500 387.806 o
1 4 12 19077.300 19222.500 340.840 1.833 o
1 4 13 1164.980 1158.510 44.998 226.613 o
1 4 14 8266.490 8225.500 155.866 9.241 o
1 4 15 23752.100 24098.300 421.810 1.188 o
1 4 16 2621.990 2663.180 83.192 60.361 o
1 4 17 3809.400 3878.910 100.201 33.994 o
1 4 18 10778.100 10742.100 243.816 5.077 o
1 4 19 1969.490 1880.120 139.727 43.030 o
1 4 20 1625.740 1530.050 103.335 72.667 o
1 4 21 12386.800 12437.200 299.225 3.717 o
1 4 22 1139.710 1072.750 114.457 71.749 o
1 4 23 992.003 916.262 72.964 150.789 o
1 4 24 3823.610 3748.120 188.015 19.524 o
1 4 25 201.626 201.666 78.514 177.817 o
1 5 0 6125.970 6545.340 115.350 15.836 o
1 5 1 7565.340 7360.010 126.391 11.579 o
1 5 2 35071.600 34995.300 533.732 0.584 o
1 5 3 6089.550 6217.280 114.664 16.406 o
1 5 4 12703.900 12972.900 212.358 4.133 o
1 5 5 936.544 922.072 38.108 318.878 o
1 5 6 3465.180 3471.280 70.907 46.320 o
1 5 7 496.512 501.454 27.103 720.303 o
1 5 8 37309.600 35970.600 524.002 0.538 o
1 5 9 5764.240 5880.760 118.187 17.608 o
1 5 10 34578.700 33787.100 617.210 0.576 o
1 5 11 111.741 115.713 37.656 736.000 o
1 5 12 1294.710 1333.720 74.608 124.063 o
1 5 13 560.641 493.122 47.542 356.179 o
1 5 14 8259.110 8286.110 189.689 8.422 o
1 5 15 4345.410 4276.990 127.421 25.035 o
1 5 16 19333.100 19312.600 379.473 1.727 o
1 5 17 1707.800 1843.090 95.739 75.728 o
1 5 18 2586.480 2440.000 117.987 45.437 o
1 5 19 543.508 393.355 66.193 218.899 o
1 5 20 9237.530 9658.990 346.018 4.633 o
1 5 21 1771.620 1710.610 157.848 37.075 o
1 5 22 4371.770 3674.920 197.019 17.325 o
1 5 23 725.226 776.520 115.217 77.320 o
1 5 24 699.308 594.382 93.028 115.041 o
1 6 0 14685.500 14564.100 231.285 3.223 o
1 6 1 948.400 1084.200 47.118 249.790 o
1 6 2 19138.600 19446.200 298.458 1.897 o
1 6 3 4036.200 4102.320 90.484 33.246 o
1 6 4 13715.900 13803.200 218.232 3.643 o
1 6 5 3414.750 3356.320 74.561 46.702 o
1 6 6 6073.640 6304.580 114.517 16.338 o
1 6 7 547.838 521.719 28.676 644.277 o
1 6 8 20964.900 20011.100 303.227 1.677 o
1 6 9 16475.700 16117.000 319.136 2.404 o
1 6 10 19582.200 19768.300 382.520 1.678 o
1 6 11 88.250 48.435 42.194 612.609 o
1 6 12 3122.210 3184.770 110.107 40.000 o
1 6 13 1135.360 1022.340 62.645 171.145 o
1 6 14 9193.550 9061.350 208.557 6.944 o
1 6 15 3601.550 3505.280 123.120 31.865 o
1 6 16 10986.100 11323.800 313.051 4.176 o
1 6 17 684.121 720.059 72.797 171.297 o
1 6 18 5891.310 5972.170 192.303 12.723 o
1 6 19 633.943 656.004 104.294 94.511 o
1 6 20 4980.130 4913.140 194.225 15.108 o
1 6 21 843.001 739.855 111.726 80.508 o
1 6 22 3418.060 3221.060 309.878 9.984 o
1 6 23 388.452 409.669 106.058 96.311 o
1 7 0 8058.890 8489.460 164.986 9.111 o
1 7 1 3356.460 3180.720 87.455 44.662 o
1 7 2 835.464 837.154 46.606 287.295 o
1 7 3 21523.300 21573.600 355.795 1.490 o
1 7 4 5528.380 5509.360 111.037 19.459 o
1 7 5 2614.340 2736.810 100.365 51.383 o
1 7 6 3519.230 3527.400 86.414 41.290 o
1 7 7 595.730 598.138 32.567 529.342 o
1 7 8 1977.900 2012.620 78.881 84.180 o
1 7 9 29367.100 28729.800 615.157 0.742 o
1 7 10 2926.330 2905.490 113.654 41.826 o
1 7 11 679.724 602.978 60.316 233.632 o
1 7 12 2783.970 2728.220 112.859 44.269 o
1 7 13 2504.320 2475.470 112.271 48.625 o
1 7 14 2436.600 2345.260 129.417 42.367 o
1 7 15 14692.800 14823.400 431.211 2.329 o
1 7 16 724.710 839.901 81.137 140.134 o
1 7 17 440.070 331.326 66.156 227.888 o
1 7 18 3029.830 3109.250 151.255 29.674 o
1 7 19 910.737 916.223 91.426 109.675 o
1 7 20 542.931 440.774 79.242 159.739 o
1 7 21 6031.130 5349.520 266.183 9.385 o
1 8 0 11294.700 11885.500 225.196 4.789 o
1 8 1 2101.390 2150.930 86.556 72.873 o
1 8 2 11055.500 11014.700 248.075 4.853 o
1 8 3 13568.100 13661.700 308.350 3.213 o
1 8 4 4643.720 4531.820 114.575 24.729 o
1 8 5 577.410 570.120 43.051 394.739 o
1 8 6 5281.160 5318.770 126.360 19.423 o
1 8 7 471.210 525.867 46.787 378.453 o
1 8 8 1830.780 1921.280 82.885 85.099 o
1 8 9 5810.300 5845.090 162.634 14.710 o
1 8 10 1046.350 1065.560 70.673 150.937 o
1 8 11 327.362 272.877 62.255 264.228 o
1 8 12 4455.420 4324.520 164.294 19.864 o
1 8 13 434.733 370.808 69.510 208.162 o
1 8 14 2788.010 2786.680 146.617 32.879 o
1 8 15 8118.260 7852.400 235.946 7.621 o
1 8 16 3728.440 3593.880 219.416 16.313 o
1 8 17 450.591 418.835 74.314 183.180 o
1 8 18 3735.650 3635.080 168.187 22.670 o
1 9 0 2449.620 2338.240 96.331 58.439 o
1 9 1 3975.270 3940.390 123.665 28.311 o
1 9 2 4507.530 4448.740 121.355 24.707 o
1 9 3 5029.370 4915.930 126.571 20.995 o
1 9 4 7401.320 7349.170 185.983 9.942 o
1 9 5 3113.750 2882.590 100.198 44.816 o
1 9 6 148.255 120.731 43.562 552.569 o
1 9 7 1991.000 1711.860 108.831 61.358 o
1 9 8 3803.660 3476.970 195.566 18.957 o
1 9 9 652.727 581.727 74.718 168.899 o
1 9 10 2999.830 2903.740 146.117 31.585 o
1 9 11 1680.660 1529.850 106.858 68.587 o
1 9 12 114.583 89.229 65.659 257.668 o
1 9 13 2095.920 2091.900 141.522 40.731 o
1 9 14 4221.700 3805.120 196.354 17.576 o
1 9 15 1474.820 1451.270 105.900 73.196 o
1 10 0 206.042 201.550 52.032 383.998 o
1 10 1 4179.670 4248.880 178.686 19.096 o
1 10 2 994.772 807.151 60.226 198.420 o
1 10 3 118.245 108.107 46.958 487.988 o
1 10 4 2600.290 2469.160 138.602 37.363 o
1 10 5 4199.450 3880.400 144.973 24.002 o
1 10 6 906.690 779.821 81.108 134.826 o
1 10 7 5700.200 5292.930 307.629 8.067 o
1 10 8 2803.720 2626.610 145.251 33.613 o
1 10 9 252.337 218.441 73.634 198.773 o
1 10 10 2061.410 1884.250 123.322 50.478 o
2 1 0 15269.300 15803.500 241.846 2.911 o
2 1 1 25096.600 23965.400 397.268 1.145 o
2 1 2 7666.080 7480.670 125.025 11.357 o
2 1 3 8576.970 8446.090 149.689 8.904 o
2 1 4 123774.000 107936.000 1757.820 0.052 o
2 1 5 10113.600 9969.910 210.005 6.027 o
2 1 6 2527.270 2419.200 54.871 82.296 o
2 1 7 12814.000 12892.500 224.181 4.034 o
2 1 8 57264.000 52670.700 880.551 0.230 o
2 1 9 3861.190 3605.400 74.854 40.029 o
2 1 10 40395.100 39151.800 562.558 0.459 o
2 1 11 7536.580 7694.610 124.025 11.422 o
2 1 12 578.760 680.120 28.451 585.922 o
2 1 13 6280.310 6349.910 108.476 16.029 o
2 1 14 44945.200 44087.100 636.989 0.368 o
2 1 15 2727.320 2679.860 62.415 69.142 o
2 1 16 12431.200 12515.000 198.258 4.410 o
2 1 17 7107.310 7113.300 125.260 12.633 o
2 1 18 2144.890 2157.460 65.451 90.088 o
2 1 19 7251.990 7215.150 157.177 11.193 o
2 1 20 11606.500 11454.300 221.857 4.778 o
2 1 21 983.295 1066.990 57.625 199.086 o
2 1 22 13214.900 13253.600 284.540 3.485 o
2 1 23 3791.180 3887.420 126.766 28.903 o
2 1 24 1099.820 1199.300 94.181 97.156 o
2 1 25 1827.090 1947.090 103.509 66.025 o
2 1 26 5070.980 5115.490 230.258 12.318 o
2 1 27 170.495 147.171 65.045 257.707 o
2 2 0 16021.800 15785.600 244.006 2.755 o
2 2 1 10502.400 10174.300 162.149 6.312 o
2 2 2 68198.200 65655.300 971.714 0.162 o
2 2 3 37950.000 36119.100 636.562 0.497 o
2 2 4 65111.500 60671.300 998.175 0.177 o
2 2 5 3179.480 3076.650 70.275 53.380 o
2 2 6 19067.300 18625.400 320.361 1.907 o
2 2 7 6519.110 6230.670 115.298 15.243 o
2 2 8 22604.700 22624.900 387.785 1.336 o
2 2 9 7677.230 7986.210 161.415 9.952 o
2 2 10 16056.200 16784.800 278.938 2.547 o
2 2 11 788.528 797.602 43.933 318.074 o
2 2 12 6861.610 7105.000 134.853 12.746 o
2 2 13 1195.150 1212.750 51.733 195.202 o
2 2 14 30632.400 31079.400 529.188 0.726 o
2 2 15 11115.900 11305.000 190.396 5.330 o
2 2 16 19728.500 20187.600 305.562 1.784 o
2 2 17 2723.760 2795.430 70.113 64.027 o
2 2 18 6297.760 6583.200 136.443 14.330 o
2 2 19 2016.510 1989.870 65.650 97.012 o
2 2 20 20275.000 20059.000 360.142 1.645 o
2 2 21 8602.090 8631.070 189.672 7.948 o
2 2 22 13025.300 12966.300 281.315 3.593 o
2 2 23 860.636 913.948 65.536 183.116 o
2 2 24 3584.200 3553.280 141.993 27.934 o
2 2 25 502.051 394.333 59.125 267.525 o
2 2 26 4796.360 4377.760 181.977 17.090 o
2 2 27 2144.370 2152.880 136.831 42.163 o
2 3 0 29061.700 28981.200 462.151 0.836 o
2 3 1 12235.300 12297.300 190.442 4.586 o
2 3 2 27924.000 28157.300 427.664 0.909 o
2 3 3 37036.700 36180.900 521.365 0.542 o
2 3 4 37083.300 34850.500 585.042 0.534 o
2 3 5 12363.100 12086.900 206.280 4.464 o
2 3 6 6609.090 6360.080 121.662 14.582 o
2 3 7 13961.800 13948.100 249.549 3.397 o
2 3 8 2759.060 3021.020 80.207 56.562 o
2 3 9 53926.400 51106.000 851.556 0.253 o
2 3 10 4552.790 4577.610 103.843 26.411 o
2 3 11 8397.200 8264.570 153.853 9.116 o
2 3 12 5122.400 5173.770 108.587 21.827 o
2 3 13 8849.840 8903.150 167.143 8.050 o
2 3 14 16198.700 16388.300 281.878 2.547 o
2 3 15 19892.000 19277.500 326.006 1.777 o
2 3 16 6781.580 6651.610 136.322 13.270 o
2 3 17 5733.860 5584.150 122.602 17.852 o
2 3 18 7315.770 7494.850 177.314 10.238 o
2 3 19 5323.610 5308.640 141.073 18.097 o
2 3 20 7075.600 6931.890 179.527 10.845 o
2 3 21 8853.720 8907.850 217.184 7.085 o
2 3 22 6195.050 5961.270 178.218 12.986 o
2 3 23 2413.120 2185.880 119.108 47.803 o
2 3 24 2793.200 2693.180 164.947 28.405 o
2 3 25 2021.180 1686.140 113.678 57.793 o
2 3 26 1485.000 1326.660 123.828 58.429 o
2 4 0 17231.300 17597.900 268.523 2.325 o
2 4 1 11517.600 11390.000 180.786 5.192 o
2 4 2 11833.200 12328.300 201.684 4.664 o
2 4 3 18848.600 19183.900 288.154 1.964 o
2 4 4 10863.600 10846.500 171.151 5.780 o
2 4 5 11773.500 11716.300 206.018 4.786 o
2 4 6 3077.530 3033.780 75.424 53.421 o
2 4 7 8157.560 8263.890 153.804 9.394 o
2 4 8 13971.200 13834.300 239.440 3.461 o
2 4 9 41678.800 39644.300 635.183 0.426 o
2 4 10 10886.200 10623.200 192.359 5.612 o
2 4 11 9941.150 9951.870 193.529 6.363 o
2 4 12 845.090 850.059 45.651 291.158 o
2 4 13 5829.560 5982.020 136.561 16.127 o
2 4 14 7625.990 7866.340 157.975 10.192 o
2 4 15 8528.560 8558.150 166.676 8.539 o
2 4 16 7362.510 7358.620 161.570 10.782 o
2 4 17 4370.910 4502.130 121.467 25.208 o
2 4 18 3992.970 4049.730 120.616 28.438 o
2 4 19 3851.640 3856.800 127.094 28.597 o
2 4 20 4840.030 4847.060 144.825 19.953 o
2 4 21 2734.100 2419.140 104.521 49.944 o
2 4 22 2680.750 2443.540 236.816 16.856 o
2 4 23 3416.300 3537.880 145.716 28.035 o
2 4 24 1284.630 1115.320 102.092 83.332 o
2 4 25 1993.790 1738.850 156.678 36.407 o
2 5 0 6264.900 5754.330 109.319 16.852 o
2 5 1 12206.000 12124.300 203.104 4.542 o
2 5 2 35924.200 35284.600 567.848 0.555 o
2 5 3 1404.860 1344.220 49.279 177.687 o
2 5 4 16503.500 16268.500 251.036 2.600 o
2 5 5 3761.950 3755.040 77.816 39.652 o
2 5 6 4597.020 4726.140 104.884 25.659 o
2 5 7 10761.800 10804.000 196.715 5.584 o
2 5 8 38525.900 37267.100 601.131 0.489 o
2 5 9 1552.370 1590.040 63.399 128.131 o
2 5 10 27097.400 27148.700 448.059 0.946 o
2 5 11 5865.350 6020.310 127.723 16.528 o
2 5 12 1039.220 986.631 73.196 146.218 o
2 5 13 2441.220 2464.140 75.105 70.579 o
2 5 14 9770.640 9795.460 217.892 6.174 o
2 5 15 1015.250 1100.990 49.775 227.598 o
2 5 16 17744.100 18123.500 422.579 1.835 o
2 5 17 4795.600 4738.400 259.375 11.134 o
2 5 18 2186.510 1979.810 123.183 48.924 o
2 5 19 4698.450 4606.870 208.300 14.787 o
2 5 20 8498.210 8465.540 246.585 6.900 o
2 5 21 784.033 725.061 83.356 134.070 o
2 5 22 5374.100 4882.530 220.335 12.677 o
2 5 23 1128.240 1112.520 108.972 77.607 o
2 6 0 2511.310 2513.570 71.993 70.464 o
2 6 1 9646.850 9486.720 164.940 7.149 o
2 6 2 7900.840 8125.840 150.969 9.862 o
2 6 3 17426.700 17702.200 276.080 2.270 o
2 6 4 4268.810 4550.630 94.923 29.354 o
2 6 5 450.421 458.303 29.690 701.542 o
2 6 6 10507.200 10378.700 195.136 5.864 o
2 6 7 3146.990 2937.640 94.396 46.185 o
2 6 8 9037.500 8731.370 170.810 7.888 o
2 6 9 19509.700 19471.100 334.037 1.790 o
2 6 10 6367.240 6221.550 136.172 14.588 o
2 6 11 1912.730 1798.260 65.035 105.112 o
2 6 12 5923.570 6050.300 170.988 13.788 o
2 6 13 429.943 472.601 58.337 276.732 o
2 6 14 3055.380 3161.870 127.291 35.535 o
2 6 15 9682.900 9711.420 433.257 3.539 o
2 6 16 4488.570 4698.700 168.326 18.802 o
2 6 17 2618.350 2843.900 161.245 29.703 o
2 6 18 2141.660 2197.030 155.052 35.154 o
2 6 19 1891.740 1912.520 138.539 43.996 o
2 6 20 1516.620 1231.640 94.817 86.791 o
2 6 21 4436.550 4399.590 208.868 15.378 o
2 7 0 8459.520 8369.900 182.314 8.359 o
2 7 1 113.299 143.722 38.038 716.126 o
2 7 2 2045.260 2037.680 80.174 80.917 o
2 7 3 29991.500 29497.200 469.241 0.796 o
2 7 4 925.565 871.551 48.677 258.780 o
2 7 5 348.248 335.566 34.259 675.773 o
2 7 6 9466.540 9174.560 211.848 6.659 o
2 7 7 1125.280 991.227 60.204 181.106 o
2 7 8 2307.930 2366.220 97.654 59.566 o
2 7 9 18765.000 18949.500 395.727 1.762 o
2 7 10 1308.370 1176.680 72.712 130.773 o
2 7 11 753.002 617.794 66.140 197.667 o
2 7 12 7046.820 6993.850 271.832 7.772 o
2 7 13 388.713 347.299 74.971 184.388 o
2 7 14 440.042 286.308 70.275 206.102 o
2 7 15 17509.900 17273.700 619.367 1.417 o
2 7 16 466.671 433.729 86.829 137.860 o
2 7 17 78.073 143.171 65.373 260.354 o
2 7 18 3528.040 3234.040 157.535 25.930 o
2 7 19 167.726 98.642 79.622 175.381 o
2 8 0 2220.770 2097.020 89.001 69.141 o
2 8 1 4691.070 4746.990 131.399 22.087 o
2 8 2 3920.050 3984.540 112.604 30.476 o
2 8 3 11391.400 11160.100 217.805 4.973 o
2 8 4 2658.650 2494.790 90.396 57.345 o
2 8 5 6111.720 6096.440 142.498 14.964 o
2 8 6 1148.790 1047.350 62.248 170.648 o
2 8 7 2401.160 2162.440 102.950 56.559 o
2 8 8 5000.260 4917.380 147.217 19.107 o
2 8 9 3588.100 3276.120 137.127 29.594 o
2 8 10 2894.150 2751.480 173.514 26.050 o
2 8 11 2860.500 2696.100 142.734 33.822 o
2 8 12 432.078 305.567 70.209 206.360 o
2 8 13 4449.440 4390.380 299.227 9.502 o
2 8 14 2796.650 2777.470 164.439 28.342 o
2 8 15 5224.930 4808.320 316.789 8.157 o
2 8 16 1361.530 1340.470 103.302 78.656 o
2 9 0 39.916 -0.318 45.984 533.439 o
2 9 1 5503.970 5551.740 151.148 16.513 o
2 9 2 1479.740 1383.210 76.876 111.879 o
2 9 3 2596.520 2386.610 96.384 55.922 o
2 9 4 2326.570 2169.220 108.058 54.569 o
2 9 5 5060.280 5067.900 141.578 19.212 o
2 9 6 566.623 479.998 59.464 254.935 o
2 9 7 6973.310 6862.400 360.678 5.675 o
2 9 8 2558.780 2342.240 141.307 37.104 o
2 9 9 434.716 274.356 75.475 181.781 o
2 9 10 2001.500 1925.650 189.280 26.526 o
2 9 11 4755.140 4530.100 313.776 8.626 o
2 9 12 869.434 876.371 90.325 113.373 o
2 10 0 12473.700 12678.400 339.168 3.384 o
2 10 1 1695.650 1776.260 99.146 73.341 o
2 10 2 65.934 56.323 50.464 436.791 o
2 10 3 35.087 48.956 55.838 361.631 o
2 10 4 157.034 139.024 68.392 234.958 o
2 10 5 1386.780 1224.230 101.361 81.450 o
3 1 0 6220.900 6233.670 105.803 16.482 o
3 1 1 3358.180 3286.080 68.461 49.717 o
3 1 2 42820.600 41269.800 617.948 0.407 o
3 1 3 5868.570 6261.350 127.204 16.231 o
3 1 4 72969.500 70148.000 1151.880 0.137 o
3 1 5 12900.800 12798.100 225.309 4.013 o
3 1 6 18122.400 18134.200 312.134 2.063 o
3 1 7 13407.400 12795.800 215.914 3.905 o
3 1 8 32974.600 32874.000 524.065 0.651 o
3 1 9 5674.140 5483.900 107.391 19.258 o
3 1 10 29533.800 28481.100 504.573 0.805 o
3 1 11 6596.070 6246.360 126.493 14.519 o
3 1 12 17325.200 16566.400 279.379 2.360 o
3 1 13 7984.960 7666.700 145.264 10.200 o
3 1 14 28985.400 28368.700 462.747 0.848 o
3 1 15 2021.210 2139.640 68.507 91.378 o
3 1 16 12240.400 12519.200 222.919 4.309 o
3 1 17 51.007 60.917 20.781 2320.590 o
3 1 18 1280.900 1350.690 60.017 158.018 o
3 1 19 159.432 171.678 30.558 1002.290 o
3 1 20 12142.100 12268.900 235.979 4.293 o
3 1 21 1452.350 1477.030 68.627 125.873 o
3 1 22 10933.400 10971.700 245.666 4.938 o
3 1 23 873.590 929.535 68.917 169.497 o
3 1 24 2947.710 3035.460 110.882 41.995 o
3 1 25 689.138 701.920 68.889 187.033 o
3 1 26 4879.790 4793.860 232.917 12.606 o
3 2 0 3583.680 4118.340 78.127 39.551 o
3 2 1 9596.020 10092.400 158.241 7.046 o
3 2 2 47583.000 46219.100 725.227 0.323 o
3 2 3 601.502 531.545 33.666 523.321 o
3 2 4 34864.100 33775.600 567.776 0.588 o
3 2 5 23642.900 22353.300 368.569 1.302 o
3 2 6 9762.020 9966.280 185.707 6.587 o
3 2 7 32595.700 31554.000 506.469 0.682 o
3 2 8 23312.300 23026.400 376.679 1.292 o
3 2 9 2066.470 2145.510 61.987 96.299 o
3 2 10 21453.100 20951.600 346.307 1.532 o
3 2 11 28482.700 27076.900 443.520 0.899 o
3 2 12 4009.830 4052.230 93.397 33.120 o
3 2 13 17924.700 17119.500 291.589 2.203 o
3 2 14 17227.000 17359.100 296.240 2.271 o
3 2 15 741.726 720.179 48.672 296.380 o
3 2 16 16183.600 16023.800 313.198 2.476 o
3 2 17 3843.750 3756.950 111.213 31.971 o
3 2 18 567.766 535.937 48.075 345.550 o
3 2 19 3427.130 3524.270 112.175 35.552 o
3 2 20 12072.500 12362.300 259.921 4.117 o
3 2 21 27.466 102.419 48.438 475.434 o
3 2 22 10421.400 10436.000 269.561 5.004 o
3 2 23 3025.640 2754.890 135.203 34.816 o
3 2 24 1029.310 955.534 78.831 132.754 o
3 2 25 3397.520 3294.270 148.028 28.223 o
3 2 26 5026.020 4860.010 190.544 15.358 o
3 3 0 208.578 270.761 23.172 1349.430 o
3 3 1 11965.800 12673.700 211.476 4.467 o
3 3 2 25774.600 26259.600 403.866 1.052 o
3 3 3 9725.680 9770.350 174.610 6.840 o
3 3 4 8867.130 8797.160 162.101 8.179 o
3 3 5 20569.700 20072.400 350.949 1.635 o
3 3 6 9626.460 9478.470 182.023 6.912 o
3 3 7 22560.600 22392.600 390.738 1.343 o
3 3 8 10077.300 10155.800 184.063 6.333 o
3 3 9 15521.900 14561.600 295.777 2.779 o
3 3 10 3698.270 3732.170 90.537 37.579 o
3 3 11 20656.900 20013.000 337.072 1.652 o
3 3 12 5771.360 5776.400 123.729 17.382 o
3 3 13 17908.800 17809.900 307.322 2.121 o
3 3 14 2828.290 2878.720 88.795 52.799 o
3 3 15 5516.860 5380.980 126.234 18.570 o
3 3 16 6678.350 6675.520 165.249 12.198 o
3 3 17 5779.430 5734.770 153.820 15.453 o
3 3 18 685.387 749.975 70.103 180.874 o
3 3 19 5716.780 5607.120 150.040 15.998 o
3 3 20 6358.370 6158.140 170.680 12.921 o
3 3 21 472.132 404.732 57.680 281.085 o
3 3 22 2406.250 2231.210 111.667 51.323 o
3 3 23 4092.810 3521.810 150.377 24.326 o
3 3 24 859.972 786.938 82.294 133.278 o
3 3 25 4651.750 4672.570 213.863 14.373 o
3 4 0 1113.050 1263.540 50.073 206.771 o
3 4 1 33247.100 33733.100 517.775 0.638 o
3 4 2 17677.300 17821.200 284.884 2.205 o
3 4 3 2211.720 2307.520 64.338 86.619 o
3 4 4 5586.780 5604.620 117.813 18.612 o
3 4 5 19111.900 18921.100 324.012 1.879 o
3 4 6 7454.580 7618.340 150.482 10.820 o
3 4 7 25670.000 25403.100 420.548 1.063 o
3 4 8 6521.310 6521.860 141.871 13.669 o
3 4 9 401.962 373.793 37.206 571.379 o
3 4 10 3114.800 3184.880 93.055 45.600 o
3 4 11 15264.300 15008.000 265.045 2.908 o
3 4 12 3895.460 3619.340 100.922 34.179 o
3 4 13 11763.800 11442.100 202.801 4.877 o
3 4 14 4187.000 4120.290 111.556 28.636 o
3 4 15 598.369 555.319 48.007 339.149 o
3 4 16 5949.490 6048.130 155.530 14.628 o
3 4 17 12919.300 12793.100 269.370 3.723 o
3 4 18 976.577 921.511 81.926 127.895 o
3 4 19 11467.100 11388.500 264.697 4.457 o
3 4 20 4093.460 4226.570 149.828 23.049 o
3 4 21 225.781 259.424 57.232 317.711 o
3 4 22 2179.400 2271.770 126.236 46.173 o
3 4 23 4184.690 4041.400 230.308 14.258 o
3 5 0 5017.210 5218.320 105.971 22.414 o
3 5 1 25197.700 26050.100 393.011 1.092 o
3 5 2 10368.800 10463.700 182.739 6.067 o
3 5 3 5834.630 6013.310 113.263 17.507 o
3 5 4 5100.900 5123.570 116.343 21.303 o
3 5 5 18153.300 18197.200 313.222 2.052 o
3 5 6 507.911 540.703 41.072 441.561 o
3 5 7 12005.000 11689.300 229.595 4.503 o
3 5 8 5197.230 5327.100 121.502 20.109 o
3 5 9 5649.780 5433.910 128.013 17.949 o
3 5 10 4239.050 4250.000 121.147 26.519 o
3 5 11 4426.320 4491.120 117.746 25.468 o
3 5 12 291.776 364.437 50.025 385.395 o
3 5 13 7903.640 8064.730 209.982 8.356 o
3 5 14 2900.070 2950.940 106.802 44.308 o
3 5 15 1699.660 1667.600 90.627 82.940 o
3 5 16 3296.050 3098.250 111.126 38.575 o
3 5 17 9791.020 9892.560 340.658 4.484 o
3 5 18 1882.980 1792.720 91.026 77.237 o
3 5 19 7588.860 7460.780 227.354 8.438 o
3 5 20 2283.400 2579.750 164.925 30.686 o
3 5 21 1777.270 1690.150 123.033 54.335 o
3 5 22 1962.290 1811.370 145.191 40.898 o
3 6 0 85.130 120.782 31.754 1018.530 o
3 6 1 6365.170 6630.230 157.263 13.141 o
3 6 2 4956.780 5135.440 119.895 21.503 o
3 6 3 10483.100 10724.600 192.670 5.806 o
3 6 4 6121.450 6407.920 151.489 14.119 o
3 6 5 3675.300 3834.070 113.582 32.359 o
3 6 6 5663.110 5406.300 137.631 17.258 o
3 6 7 6762.750 6539.580 163.293 12.255 o
3 6 8 3772.570 3874.140 130.575 28.336 o
3 6 9 8454.490 8131.120 184.555 8.428 o
3 6 10 3572.330 3602.260 120.055 32.416 o
3 6 11 5017.620 4867.730 143.346 19.496 o
3 6 12 6215.020 6001.660 185.485 12.543 o
3 6 13 2484.690 2348.990 99.314 56.181 o
3 6 14 2967.450 2934.840 152.864 29.996 o
3 6 15 5615.570 5468.740 366.604 6.298 o
3 6 16 3728.290 3465.470 162.885 23.814 o
3 6 17 2916.650 2598.880 165.568 27.963 o
3 6 18 222.377 173.134 67.588 236.202 o
3 6 19 1806.530 1842.320 144.120 42.215 o
3 6 20 1320.840 1255.020 111.698 71.077 o
3 7 0 1296.080 1388.280 72.670 126.791 o
3 7 1 190.275 160.458 44.247 522.046 o
3 7 2 6933.070 7306.140 160.976 11.469 o
3 7 3 4430.070 4656.730 121.304 24.592 o
3 7 4 10499.400 10503.700 221.430 5.523 o
3 7 5 630.387 651.425 60.974 232.045 o
3 7 6 2063.210 1946.840 94.784 69.011 o
3 7 7 1284.640 1207.970 69.047 139.439 o
3 7 8 10302.300 9834.110 224.580 5.766 o
3 7 9 2823.410 2760.480 112.002 44.062 o
3 7 10 9206.940 9171.670 259.945 6.021 o
3 7 11 1023.380 1036.040 77.768 134.007 o
3 7 12 2580.820 2601.440 161.021 30.437 o
3 7 13 396.747 339.865 75.439 182.147 o
3 7 14 7995.410 7899.500 346.144 5.376 o
3 7 15 1937.210 1869.340 120.038 53.675 o
3 7 16 3695.210 3640.190 206.691 17.701 o
3 7 17 27.890 40.133 82.665 166.466 o
3 8 0 742.868 812.444 61.974 210.728 o
3 8 1 4659.960 4537.260 130.473 22.730 o
3 8 2 1548.410 1294.340 67.902 127.040 o
3 8 3 307.436 325.185 58.164 297.571 o
3 8 4 6774.730 6460.610 185.553 11.352 o
3 8 5 4383.100 4282.030 193.396 17.021 o
3 8 6 150.841 122.871 50.620 417.688 o
3 8 7 4464.460 4446.530 144.597 21.956 o
3 8 8 3910.840 3939.680 209.206 16.725 o
3 8 9 330.843 265.959 55.331 325.466 o
3 8 10 3327.630 3293.620 158.707 26.392 o
3 8 11 4158.630 4020.430 184.691 18.755 o
3 8 12 154.899 103.866 72.577 210.282 o
3 8 13 2629.150 2319.280 162.398 30.470 o
3 8 14 4130.950 4101.030 270.374 11.427 o
3 9 0 3134.960 3198.950 132.003 33.618 o
3 9 1 3221.240 3050.770 134.151 32.989 o
3 9 2 1001.730 806.761 70.691 159.948 o
3 9 3 351.358 242.117 61.433 269.896 o
3 9 4 1902.870 1922.560 118.578 54.651 o
3 9 5 2704.780 2500.550 142.004 35.514 o
3 9 6 3087.570 2777.220 138.158 33.545 o
3 9 7 5046.530 4646.980 217.086 13.539 o
3 9 8 847.814 620.019 89.373 119.217 o
4 1 0 10040.400 8795.870 153.697 7.273 o
4 1 1 27031.900 26868.700 562.925 0.869 o
4 1 2 21737.200 21944.700 355.113 1.461 o
4 1 3 13436.900 13200.400 213.060 3.847 o
4 1 4 21784.800 20939.700 342.901 1.512 o
4 1 5 36457.500 33733.000 621.072 0.543 o
4 1 6 8244.790 7938.430 152.551 9.514 o
4 1 7 21769.900 21432.000 370.051 1.457 o
4 1 8 13824.500 13856.900 248.926 3.448 o
4 1 9 8294.860 7925.010 148.105 9.568 o
4 1 10 15918.700 15751.200 268.538 2.696 o
4 1 11 20501.400 19722.400 329.613 1.691 o
4 1 12 6469.650 6335.810 129.571 14.557 o
4 1 13 20851.500 20380.700 341.162 1.613 o
4 1 14 11018.700 11018.500 200.783 5.351 o
4 1 15 6343.080 6352.820 135.851 14.512 o
4 1 16 8171.280 8034.790 159.004 9.387 o
4 1 17 7591.910 7276.040 148.424 10.933 o
4 1 18 1541.880 1487.750 75.100 110.665 o
4 1 19 5315.730 5015.400 143.486 18.349 o
4 1 20 4767.590 4836.280 144.375 20.254 o
4 1 21 3364.650 3350.310 143.099 29.284 o
4 1 22 4864.500 5094.460 164.069 17.689 o
4 1 23 5468.820 5217.620 182.035 14.766 o
4 1 24 967.131 912.891 77.580 139.203 o
4 1 25 3276.070 3128.990 146.250 29.582 o
4 2 0 20372.400 20921.200 326.776 1.653 o
4 2 1 13477.300 14158.700 238.499 3.556 o
4 2 2 9887.440 10172.400 218.317 5.988 o
4 2 3 690.744 669.343 33.573 463.588 o
4 2 4 6415.960 6964.030 148.986 13.120 o
4 2 5 38625.600 36979.800 624.216 0.484 o
4 2 6 4355.670 4195.330 94.456 30.009 o
4 2 7 13803.300 13714.200 239.866 3.520 o
4 2 8 16559.700 16192.300 289.896 2.478 o
4 2 9 915.011 836.626 43.114 297.490 o
4 2 10 9998.790 9572.400 180.577 6.631 o
4 2 11 21640.900 21012.400 353.136 1.506 o
4 2 12 5329.440 5345.910 117.386 19.952 o
4 2 13 29506.000 29574.000 493.512 0.796 o
4 2 14 5372.520 5385.350 137.687 18.113 o
4 2 15 244.355 312.286 42.567 522.858 o
4 2 16 3781.010 3864.400 116.382 31.009 o
4 2 17 5453.430 5451.280 144.201 17.288 o
4 2 18 3276.150 3295.960 113.857 37.162 o
4 2 19 7352.550 7103.800 186.121 10.145 o
4 2 20 2227.210 2102.620 112.710 53.525 o
4 2 21 108.168 173.058 52.468 392.714 o
4 2 22 1301.680 1060.650 89.078 102.059 o
4 2 23 7178.900 6774.640 218.597 9.426 o
4 2 24 2291.250 1999.280 128.241 45.443 o
4 2 25 3533.510 3231.140 155.326 26.327 o
4 3 0 27582.800 28518.300 423.416 0.918 o
4 3 1 19459.500 20550.500 324.046 1.760 o
4 3 2 6677.670 6647.470 122.412 14.076 o
4 3 3 204.160 278.196 25.456 1194.010 o
4 3 4 2706.790 2515.090 82.765 60.402 o
4 3 5 19343.900 19152.200 341.471 1.808 o
4 3 6 37581.100 36736.500 593.506 0.509 o
4 3 7 16213.600 16264.100 282.827 2.552 o
4 3 8 1734.370 1634.050 64.660 116.438 o
4 3 9 292.146 309.912 34.671 700.247 o
4 3 10 641.686 624.908 40.774 398.618 o
4 3 11 12091.700 12009.000 234.193 4.373 o
4 3 12 27984.100 27508.200 483.229 0.883 o
4 3 13 15870.700 15687.100 315.375 2.546 o
4 3 14 56.692 70.928 40.209 678.053 o
4 3 15 116.028 88.589 42.669 586.973 o
4 3 16 3780.370 3766.040 126.471 29.353 o
4 3 17 6665.720 6442.940 165.238 12.412 o
4 3 18 11751.100 11645.700 259.023 4.359 o
4 3 19 7099.060 6856.370 186.204 10.618 o
4 3 20 2004.520 1916.280 108.378 60.129 o
4 3 21 52.836 33.538 54.322 380.812 o
4 3 22 693.212 687.227 70.847 179.199 o
4 3 23 3330.690 2842.240 145.611 30.169 o
4 4 0 26814.300 27644.500 454.548 0.942 o
4 4 1 18510.000 19964.100 319.741 1.896 o
4 4 2 2443.140 2281.710 72.869 74.135 o
4 4 3 1099.840 1091.220 53.833 202.319 o
4 4 4 5433.480 5576.280 122.997 18.770 o
4 4 5 20207.700 19778.900 337.521 1.703 o
4 4 6 14616.800 14841.400 277.793 3.007 o
4 4 7 4760.730 4695.600 124.688 22.665 o
4 4 8 613.343 609.665 50.851 306.811 o
4 4 9 316.697 291.900 41.093 534.623 o
4 4 10 1132.700 1236.760 65.868 154.963 o
4 4 11 4861.330 4638.280 125.015 22.337 o
4 4 12 11657.300 11256.300 299.412 4.102 o
4 4 13 11123.600 10822.400 235.715 4.991 o
4 4 14 2451.080 2371.410 103.825 54.047 o
4 4 15 183.020 168.428 48.716 439.365 o
4 4 16 640.167 625.516 57.258 255.093 o
4 4 17 5986.750 6222.780 166.943 13.732 o
4 4 18 8283.630 8096.200 212.489 7.948 o
4 4 19 6793.740 6695.610 206.035 10.351 o
4 4 20 905.677 914.577 102.571 90.933 o
4 4 21 63.176 92.202 61.564 295.167 o
4 4 22 961.302 1095.060 138.706 52.830 o
4 5 0 5660.800 6166.380 128.781 16.818 o
4 5 1 10068.200 10711.300 201.895 5.941 o
4 5 2 5719.820 5765.960 114.511 18.159 o
4 5 3 1664.760 1819.300 75.980 99.445 o
4 5 4 7863.570 7915.170 176.277 9.363 o
4 5 5 20077.900 19770.000 387.387 1.627 o
4 5 6 1074.920 1099.060 65.993 162.108 o
4 5 7 11556.400 11326.600 230.250 4.750 o
4 5 8 7558.320 7451.660 170.254 10.181 o
4 5 9 1050.260 979.892 74.405 142.611 o
4 5 10 5831.150 5883.440 179.062 13.647 o
4 5 11 9592.020 9248.180 304.118 5.147 o
4 5 12 622.948 489.808 58.164 257.773 o
4 5 13 10305.900 10082.600 270.327 5.120 o
4 5 14 3817.990 3611.000 125.687 29.729 o
4 5 15 1192.050 1048.920 75.840 131.477 o
4 5 16 3487.400 3148.180 127.127 32.786 o
4 5 17 4667.610 4541.110 156.368 19.776 o
4 5 18 2045.310 1947.280 103.401 62.823 o
4 5 19 4747.820 4647.630 247.119 11.956 o
4 5 20 2172.330 2032.160 138.419 41.714 o
4 6 0 148.440 221.233 44.761 514.041 o
4 6 1 1816.990 1983.770 90.696 76.933 o
4 6 2 12466.900 12779.300 224.805 4.168 o
4 6 3 41.773 50.072 42.139 626.477 o
4 6 4 11644.700 11789.900 241.434 4.523 o
4 6 5 904.979 931.782 62.260 192.250 o
4 6 6 2922.820 2942.070 111.239 42.535 o
4 6 7 4742.070 4793.300 184.497 16.519 o
4 6 8 9351.910 8913.290 332.569 4.903 o
4 6 9 117.242 129.240 52.076 399.972 o
4 6 10 9125.050 8882.620 343.797 4.830 o
4 6 11 5070.020 4704.690 182.093 16.109 o
4 6 12 2727.940 2560.750 122.697 41.771 o
4 6 13 1267.000 1170.800 82.871 112.156 o
4 6 14 7507.010 7284.480 223.101 8.715 o
4 6 15 65.919 97.099 49.438 451.579 o
4 6 16 5638.270 5607.700 199.277 13.018 o
4 6 17 666.192 675.097 83.772 137.492 o
4 6 18 208.145 164.465 70.983 216.075 o
4 7 0 4354.170 4219.940 127.123 25.168 o
4 7 1 1594.410 1534.750 84.503 94.532 o
4 7 2 7237.510 7248.570 170.751 10.722 o
4 7 3 819.263 725.846 62.535 205.481 o
4 7 4 9957.200 9872.580 229.826 5.875 o
4 7 5 773.369 789.222 111.349 81.535 o
4 7 6 2397.460 2373.490 114.033 49.459 o
4 7 7 200.086 170.198 52.103 385.984 o
4 7 8 5308.950 5159.880 155.775 17.156 o
4 7 9 41.079 84.496 50.256 441.785 o
4 7 10 6328.810 6106.450 172.532 12.925 o
4 7 11 114.989 8.386 64.356 270.081 o
4 7 12 1714.610 1605.570 146.093 42.573 o
4 7 13 435.007 430.990 73.298 188.120 o
4 7 14 6379.530 6506.520 324.046 6.859 o
4 7 15 245.547 169.341 99.498 112.147 o
4 8 0 30.396 -34.581 50.184 450.094 o
4 8 1 4957.280 4925.410 206.678 14.201 o
4 8 2 1822.150 1632.650 98.315 73.138 o
4 8 3 3450.370 3455.450 147.088 27.795 o
4 8 4 3572.200 3447.810 170.494 23.152 o
4 8 5 4502.530 4215.340 146.978 21.944 o
4 8 6 105.248 67.921 52.873 393.674 o
4 8 7 4558.120 4145.340 165.750 19.662 o
4 8 8 2441.510 2394.390 148.844 35.137 o
4 8 9 617.368 605.170 75.004 168.895 o
4 8 10 1946.550 1743.140 121.965 53.059 o
5 1 0 9694.840 9220.450 165.315 7.212 o
5 1 1 44743.500 42058.400 671.190 0.374 o
5 1 2 4827.590 4631.530 88.709 26.536 o
5 1 3 3890.890 4012.590 84.277 35.928 o
5 1 4 7028.540 7067.370 136.252 12.424 o
5 1 5 30690.200 29591.700 480.430 0.768 o
5 1 6 6516.690 6430.950 127.346 14.450 o
5 1 7 14244.700 14577.400 251.350 3.240 o
5 1 8 2552.480 2486.260 76.516 67.097 o
5 1 9 3910.120 3997.160 98.451 33.139 o
5 1 10 1485.390 1488.400 63.396 134.176 o
5 1 11 8868.420 9390.400 176.821 7.636 o
5 1 12 2192.770 2238.980 77.882 76.847 o
5 1 13 19981.200 20101.700 362.797 1.665 o
5 1 14 4104.850 4148.790 102.959 30.460 o
5 1 15 2214.230 2343.560 81.114 72.656 o
5 1 16 1612.880 1611.160 75.672 105.082 o
5 1 17 10673.800 10967.900 236.094 5.158 o
5 1 18 2695.680 2780.870 105.099 48.059 o
5 1 19 15611.000 15234.800 342.017 2.525 o
5 1 20 2115.480 2064.280 103.764 60.705 o
5 1 21 1009.410 851.455 72.457 153.007 o
5 1 22 1352.860 1227.730 83.037 108.268 o
5 1 23 7621.380 7602.300 246.548 7.828 o
5 1 24 1597.860 1510.180 99.752 76.871 o
5 2 0 34834.300 35204.500 565.591 0.576 o
5 2 1 16921.900 16931.200 273.273 2.411 o
5 2 2 407.858 433.757 28.684 767.158 o
5 2 3 2346.980 2291.160 65.298 82.082 o
5 2 4 5390.740 5361.540 115.640 19.848 o
5 2 5 19797.300 19308.200 343.649 1.752 o
5 2 6 38085.500 37789.400 642.127 0.481 o
5 2 7 7981.940 8237.860 159.778 9.471 o
5 2 8 2004.260 2068.390 72.610 88.882 o
5 2 9 2906.460 2913.060 83.769 53.575 o
5 2 10 1844.080 1781.750 69.796 101.967 o
5 2 11 6427.320 6240.860 146.029 13.944 o
5 2 12 30992.500 30459.400 533.757 0.722 o
5 2 13 10071.900 9766.440 217.221 6.014 o
5 2 14 1902.130 1720.880 107.514 63.484 o
5 2 15 1063.510 1036.510 67.507 160.038 o
5 2 16 346.292 341.385 48.496 398.195 o
5 2 17 5681.850 5858.710 160.983 15.072 o
5 2 18 13494.700 13411.600 284.233 3.396 o
5 2 19 7715.830 7948.350 207.539 8.649 o
5 2 20 402.222 385.883 58.971 278.654 o
5 2 21 186.790 150.374 53.912 365.267 o
5 2 22 484.570 455.585 64.974 227.768 o
5 2 23 3430.060 3318.160 157.482 26.165 o
5 3 0 43838.000 45946.700 699.125 0.360 o
5 3 1 711.548 739.288 40.109 374.076 o
5 3 2 364.695 377.553 29.285 801.953 o
5 3 3 2430.870 2464.500 88.852 62.131 o
5 3 4 1334.130 1422.150 73.412 122.996 o
5 3 5 2243.240 2225.830 78.282 75.494 o
5 3 6 49186.500 48255.700 774.961 0.298 o
5 3 7 220.429 229.394 36.652 695.475 o
5 3 8 20.668 37.025 33.024 1021.900 o
5 3 9 4424.170 4577.950 113.114 25.879 o
5 3 10 79.363 128.259 33.699 916.109 o
5 3 11 915.092 857.034 59.791 204.795 o
5 3 12 35104.500 34816.500 643.044 0.549 o
5 3 13 1177.120 1222.630 73.404 134.005 o
5 3 14 75.135 72.034 43.017 590.750 o
5 3 15 985.851 961.005 74.003 147.064 o
5 3 16 352.292 377.529 54.419 325.482 o
5 3 17 391.815 422.717 64.899 235.803 o
5 3 18 18264.900 18183.400 442.972 1.736 o
5 3 19 219.628 156.378 58.839 307.140 o
5 3 20 53.949 12.935 53.768 389.503 o
5 3 21 284.837 238.415 62.711 265.176 o
5 3 22 145.865 133.582 61.661 287.460 o
5 4 0 20255.400 20668.600 354.271 1.631 o
5 4 1 3079.790 3215.290 88.390 47.436 o
5 4 2 4901.890 4929.550 106.887 23.469 o
5 4 3 40.098 74.208 37.733 771.898 o
5 4 4 50.503 101.434 36.349 817.811 o
5 4 5 15621.300 15980.700 301.359 2.613 o
5 4 6 17343.100 17619.900 328.760 2.151 o
5 4 7 6069.480 6239.580 150.578 14.452 o
5 4 8 2077.240 2143.470 92.068 69.084 o
5 4 9 202.098 242.068 48.310 436.157 o
5 4 10 1497.070 1488.880 99.895 78.737 o
5 4 11 6075.060 6232.960 167.267 13.539 o
5 4 12 13129.500 12440.500 312.416 3.434 o
5 4 13 7535.260 7468.950 226.750 8.499 o
5 4 14 193.158 249.298 50.939 397.462 o
5 4 15 13.526 9.733 45.756 542.733 o
5 4 16 2556.620 2497.430 120.981 44.191 o
5 4 17 2699.220 2510.420 121.512 42.677 o
5 4 18 8596.720 8491.650 305.803 5.711 o
5 4 19 2507.200 2070.630 134.221 40.945 o
5 4 20 449.523 401.139 72.198 193.231 o
5 5 0 690.528 710.967 69.820 182.831 o
5 5 1 5951.920 6263.480 151.445 14.628 o
5 5 2 8000.480 8036.340 182.294 8.989 o
5 5 3 1766.010 1867.420 92.235 77.722 o
5 5 4 3801.170 3915.780 122.343 29.591 o
5 5 5 8741.930 8888.020 198.938 7.533 o
5 5 6 98.248 95.531 46.588 500.345 o
5 5 7 12944.200 13401.000 325.172 3.285 o
5 5 8 2803.690 2914.030 128.282 37.876 o
5 5 9 3808.410 3774.010 133.607 27.856 o
5 5 10 2312.820 2225.950 111.192 52.667 o
5 5 11 11469.500 11274.800 280.789 4.328 o
5 5 12 65.992 73.652 51.358 421.004 o
5 5 13 7147.760 6949.740 255.769 8.185 o
5 5 14 2110.010 1872.540 100.843 64.253 o
5 5 15 1062.190 1002.650 78.338 131.766 o
5 5 16 4562.420 4426.860 157.339 20.170 o
5 5 17 3573.910 3293.260 140.781 28.864 o
5 5 18 298.862 195.206 62.777 265.213 o
5 6 0 2378.470 2352.390 109.370 52.136 o
5 6 1 671.333 687.290 51.809 285.591 o
5 6 2 6208.510 6244.410 169.526 13.168 o
5 6 3 5434.370 5439.940 158.287 16.301 o
5 6 4 6349.830 6493.720 175.242 12.432 o
5 6 5 396.134 426.413 59.532 272.900 o
5 6 6 1526.800 1460.510 84.046 98.073 o
5 6 7 1255.290 1197.040 78.726 119.993 o
5 6 8 1390.730 1261.280 84.285 104.545 o
5 6 9 4686.680 4686.940 261.094 11.170 o
5 6 10 2254.540 2010.220 120.315 49.610 o
5 6 11 1176.310 1101.760 80.898 120.122 o
5 6 12 1235.140 1223.260 100.062 85.819 o
5 6 13 993.205 852.884 74.546 147.669 o
5 6 14 2633.030 2388.310 142.476 36.125 o
5 6 15 3300.890 3212.840 182.593 22.404 o
5 7 0 4527.250 4582.080 139.781 22.055 o
5 7 1 851.771 749.152 71.282 167.432 o
5 7 2 1793.800 1768.820 101.858 69.315 o
5 7 3 12144.200 12430.100 343.055 3.463 o
5 7 4 1217.450 1177.580 146.751 46.232 o
5 7 5 1360.640 1248.320 82.109 109.286 o
5 7 6 2034.870 2101.720 115.466 54.114 o
5 7 7 796.027 730.657 69.853 176.181 o
5 7 8 870.485 823.633 73.038 158.704 o
5 7 9 4865.070 4094.380 209.815 14.819 o
5 7 10 581.131 434.659 69.496 198.323 o
5 7 11 405.474 250.991 68.563 218.245 o
5 8 0 72.802 124.878 64.246 270.108 o
5 8 1 1121.220 713.182 196.857 27.833 o
6 1 0 8890.370 8684.150 156.098 8.325 o
6 1 1 19808.700 19248.900 297.927 1.837 o
6 1 2 11241.500 11200.100 183.180 5.359 o
6 1 3 55.814 60.016 24.435 1728.700 o
6 1 4 8533.780 7995.480 155.850 9.069 o
6 1 5 12579.000 12023.500 216.807 4.319 o
6 1 6 25231.000 24796.300 433.053 1.086 o
6 1 7 11711.500 11744.300 213.805 4.741 o
6 1 8 2315.020 2188.880 75.461 76.417 o
6 1 9 787.302 757.932 43.458 325.829 o
6 1 10 923.875 874.173 72.525 156.456 o
6 1 11 9981.050 9776.510 184.028 6.525 o
6 1 12 16636.600 16479.700 290.152 2.442 o
6 1 13 6908.440 6744.610 156.335 12.133 o
6 1 14 1928.190 1995.780 86.078 78.714 o
6 1 15 50.083 56.651 39.607 702.689 o
6 1 16 4876.970 4770.110 137.328 20.723 o
6 1 17 8124.870 8352.040 198.018 8.319 o
6 1 18 4639.710 4522.080 146.424 20.991 o
6 1 19 6278.710 6046.760 172.282 13.076 o
6 1 20 3339.330 3191.880 142.853 29.866 o
6 1 21 181.923 139.766 63.404 270.064 o
6 1 22 2115.090 2052.440 141.635 40.688 o
6 1 23 4344.080 4093.500 214.936 15.274 o
6 2 0 22556.200 23946.900 397.273 1.287 o
6 2 1 5925.010 6003.910 115.937 17.094 o
6 2 2 466.637 517.089 34.625 566.869 o
6 2 3 2955.100 2958.380 78.496 54.688 o
6 2 4 592.697 595.484 41.755 403.279 o
6 2 5 6491.950 6302.680 136.360 14.218 o
6 2 6 28563.600 27693.000 485.944 0.859 o
6 2 7 4194.540 4196.140 119.022 27.211 o
6 2 8 1433.260 1240.230 67.231 135.275 o
6 2 9 245.715 203.162 39.611 607.161 o
6 2 10 971.083 923.647 57.514 206.936 o
6 2 11 5787.740 5895.940 143.241 15.918 o
6 2 12 23354.400 23829.200 455.959 1.179 o
6 2 13 4900.070 4586.000 136.215 21.084 o
6 2 14 817.240 813.758 68.264 178.571 o
6 2 15 1374.110 1494.680 82.814 103.883 o
6 2 16 359.022 364.006 50.870 364.224 o
6 2 17 3021.140 2846.170 119.253 39.391 o
6 2 18 9665.830 9520.370 270.937 5.530 o
6 2 19 1833.730 1704.090 117.900 57.026 o
6 2 20 155.485 113.753 55.556 350.558 o
6 2 21 764.731 711.961 78.755 147.923 o
6 3 0 14874.800 15475.700 314.876 2.736 o
6 3 1 9702.130 10262.800 230.655 5.896 o
6 3 2 2206.380 2394.230 81.432 72.042 o
6 3 3 114.720 132.094 36.761 763.766 o
6 3 4 1843.350 2032.160 87.259 79.097 o
6 3 5 11126.600 11019.400 222.798 5.077 o
6 3 6 21582.900 21237.700 368.394 1.480 o
6 3 7 4705.610 4639.440 122.527 23.259 o
6 3 8 509.114 485.083 52.732 314.070 o
6 3 9 1027.480 908.797 61.123 188.297 o
6 3 10 245.406 222.187 47.891 436.741 o
6 3 11 4212.380 4134.790 133.029 25.160 o
6 3 12 15616.500 15294.000 324.242 2.587 o
6 3 13 6116.690 5721.950 160.851 14.312 o
6 3 14 374.754 343.119 54.047 328.590 o
6 3 15 217.156 195.048 54.157 356.017 o
6 3 16 885.171 844.596 66.537 179.964 o
6 3 17 4808.240 4556.830 227.143 13.249 o
6 3 18 8299.160 8088.690 260.025 6.867 o
6 3 19 3771.390 3332.250 150.612 25.987 o
6 3 20 410.087 399.791 67.993 216.969 o
6 4 0 1735.070 1671.980 72.160 104.713 o
6 4 1 10326.100 10583.800 195.588 5.904 o
6 4 2 4431.120 4587.280 117.179 25.286 o
6 4 3 1328.000 1305.890 81.204 110.979 o
6 4 4 3218.640 3242.490 136.489 31.860 o
6 4 5 7388.170 7145.370 199.487 9.639 o
6 4 6 2467.500 2353.450 110.002 50.786 o
6 4 7 8762.290 8538.570 207.605 7.483 o
6 4 8 1298.050 1264.240 74.680 125.199 o
6 4 9 3006.650 2969.420 119.327 38.988 o
6 4 10 536.878 525.473 59.612 254.593 o
6 4 11 9263.530 9223.580 221.405 6.618 o
6 4 12 2066.150 2046.430 108.487 58.390 o
6 4 13 5455.240 5373.070 161.184 16.118 o
6 4 14 890.861 697.059 67.460 180.720 o
6 4 15 882.242 739.607 66.266 184.576 o
6 4 16 2027.300 2092.810 116.508 53.633 o
6 4 17 4610.160 4404.380 173.241 18.363 o
6 4 18 378.239 211.345 67.942 224.499 o
6 5 0 2619.320 2977.890 108.640 46.345 o
6 5 1 3108.120 3039.010 120.275 37.629 o
6 5 2 2975.400 2993.370 122.574 38.117 o
6 5 3 3645.340 3502.340 132.872 29.562 o
6 5 4 5892.670 6080.700 169.083 13.926 o
6 5 5 3400.230 3911.980 149.107 26.608 o
6 5 6 1405.220 1338.510 117.523 64.196 o
6 5 7 3066.540 3022.590 137.420 33.144 o
6 5 8 1195.410 1118.680 76.079 129.371 o
6 5 9 7725.100 7622.510 198.749 9.046 o
6 5 10 2024.920 1863.070 103.164 63.925 o
6 5 11 2480.090 2406.250 121.131 45.224 o
6 5 12 730.576 653.907 67.631 191.351 o
6 5 13 2569.290 2504.000 124.220 42.742 o
6 5 14 2641.220 2441.580 142.104 36.037 o
6 5 15 2775.170 2578.050 149.900 32.580 o
6 6 0 6022.740 6402.570 162.427 13.738 o
6 6 1 352.237 357.786 60.451 272.718 o
6 6 2 49.001 59.668 56.065 357.063 o
6 6 3 13142.400 13328.100 316.557 3.300 o
6 6 4 523.967 528.536 64.414 225.610 o
6 6 5 421.941 432.166 63.669 241.182 o
6 6 6 3801.600 3770.020 143.653 26.125 o
6 6 7 35.974 -0.916 46.480 522.967 o
6 6 8 273.415 249.992 73.835 196.316 o
6 6 9 8539.690 8255.690 237.135 7.140 o
6 6 10 364.888 340.353 71.447 202.430 o
6 6 11 17.045 1.135 59.860 317.976 o
6 7 0 1116.800 905.164 86.110 114.676 o
6 7 1 87.766 142.975 63.763 272.747 o
6 7 2 702.735 644.518 73.893 168.174 o
6 7 3 5115.040 4822.680 170.139 16.873 o
7 1 0 1327.220 1413.840 58.310 157.225 o
7 1 1 8377.700 8417.970 156.685 8.989 o
7 1 2 10025.500 9675.560 173.822 6.668 o
7 1 3 328.995 374.884 33.410 699.311 o
7 1 4 1584.750 1580.270 75.346 107.085 o
7 1 5 22588.100 22591.000 403.458 1.319 o
7 1 6 2624.110 2672.870 91.657 55.883 o
7 1 7 16910.900 16443.800 327.066 2.293 o
7 1 8 8206.290 8323.320 168.074 8.967 o
7 1 9 1144.030 1072.760 86.475 110.741 o
7 1 10 7361.480 7338.160 196.032 9.672 o
7 1 11 14134.700 14110.400 307.289 3.047 o
7 1 12 2602.790 2474.980 107.939 49.560 o
7 1 13 10721.800 11141.300 249.009 4.957 o
7 1 14 993.046 987.052 68.976 160.918 o
7 1 15 259.928 190.009 48.209 431.986 o
7 1 16 4526.100 4280.850 226.497 13.895 o
7 1 17 5033.740 4973.870 186.491 15.548 o
7 1 18 860.525 930.943 79.488 137.982 o
7 1 19 4507.450 4562.320 179.948 17.747 o
7 1 20 2017.150 2005.920 142.761 40.990 o
7 1 21 63.898 54.342 77.022 190.526 o
7 2 0 10534.500 10846.000 194.467 5.722 o
7 2 1 12788.600 12853.200 214.778 4.109 o
7 2 2 1075.310 996.811 54.161 207.889 o
7 2 3 245.758 260.127 41.029 563.352 o
7 2 4 2200.090 2164.240 89.401 68.600 o
7 2 5 20580.100 20321.100 371.237 1.590 o
7 2 6 5380.200 5320.510 135.382 18.369 o
7 2 7 8282.240 7918.080 175.238 8.931 o
7 2 8 2120.970 2198.590 99.948 62.199 o
7 2 9 420.217 379.916 53.023 330.616 o
7 2 10 2724.770 2962.900 113.655 43.414 o
7 2 11 6263.200 6046.200 170.787 13.181 o
7 2 12 3819.770 3952.460 136.502 26.851 o
7 2 13 9388.280 9186.840 218.687 6.594 o
7 2 14 1474.260 1431.110 84.755 98.959 o
7 2 15 280.835 203.610 50.489 393.831 o
7 2 16 836.091 779.106 73.141 161.132 o
7 2 17 5728.330 5504.810 171.975 14.639 o
7 2 18 3802.260 3582.720 185.994 20.046 o
7 2 19 5774.580 5627.680 193.510 13.121 o
7 3 0 701.702 742.331 52.554 272.664 o
7 3 1 16509.400 16348.300 311.585 2.406 o
7 3 2 6110.330 5933.680 151.590 14.634 o
7 3 3 2063.710 1976.350 95.448 68.221 o
7 3 4 5941.660 5885.510 159.080 14.608 o
7 3 5 8440.980 8499.620 213.771 7.624 o
7 3 6 201.184 245.222 54.893 346.303 o
7 3 7 6564.190 6615.770 172.814 12.100 o
7 3 8 3300.260 3122.680 121.428 35.572 o
7 3 9 736.500 605.055 60.507 227.468 o
7 3 10 2485.090 2538.980 114.589 47.434 o
7 3 11 6028.680 5615.160 213.013 11.691 o
7 3 12 278.549 379.979 59.427 286.628 o
7 3 13 4179.760 4054.290 141.035 24.302 o
7 3 14 1709.050 1565.960 88.202 86.623 o
7 3 15 1124.030 1098.690 76.623 131.439 o
7 3 16 3398.160 3100.690 138.628 30.751 o
7 3 17 6447.440 6225.330 206.000 11.073 o
7 4 0 537.540 575.769 51.309 316.474 o
7 4 1 3440.370 3506.290 126.378 32.137 o
7 4 2 6520.250 6798.950 192.256 11.189 o
7 4 3 352.948 271.952 59.077 287.761 o
7 4 4 4677.580 4655.020 152.633 19.968 o
7 4 5 2259.380 2416.030 118.729 48.364 o
7 4 6 203.769 165.923 53.518 367.255 o
7 4 7 2520.190 2438.240 134.303 39.518 o
7 4 8 6491.080 6346.530 178.200 12.185 o
7 4 9 1236.340 1094.930 75.294 129.924 o
7 4 10 7461.670 7063.460 196.597 9.696 o
7 4 11 2067.860 1853.580 127.772 48.181 o
7 4 12 56.818 120.699 61.066 299.374 o
7 4 13 893.000 739.940 77.501 145.955 o
7 4 14 2877.640 2748.940 138.255 34.863 o
7 4 15 614.583 682.307 198.670 28.107 o
7 5 0 4166.800 4299.470 144.150 23.416 o
7 5 1 1043.250 1103.720 80.001 126.733 o
7 5 2 5355.490 5397.260 166.893 15.900 o
7 5 3 4112.260 4042.520 145.300 23.979 o
7 5 4 4716.880 4703.270 169.334 18.088 o
7 5 5 301.288 298.195 64.508 248.763 o
7 5 6 2580.730 2586.240 126.684 41.359 o
7 5 7 62.792 62.732 56.601 349.139 o
7 5 8 6413.670 6150.990 203.035 11.299 o
7 5 9 4605.810 4697.060 163.217 19.009 o
7 5 10 6201.780 5546.990 182.777 13.082 o
7 5 11 39.604 63.944 63.101 283.368 o
7 6 0 176.879 131.230 60.690 294.111 o
7 6 1 2055.260 1943.850 153.519 36.750 o
7 6 2 900.621 840.594 77.659 143.146 o
7 6 3 4940.460 4377.090 188.005 16.233 o
8 1 0 826.425 851.165 52.605 250.160 o
8 1 1 4521.240 4389.550 113.157 25.859 o
8 1 2 8341.640 8125.490 181.557 8.611 o
8 1 3 174.949 179.827 36.334 739.190 o
8 1 4 8630.670 8591.220 188.931 7.956 o
8 1 5 8281.200 8094.470 180.540 8.712 o
8 1 6 2259.830 2237.590 92.817 64.461 o
8 1 7 5069.040 5266.410 137.602 19.230 o
8 1 8 7449.200 7356.890 182.545 9.990 o
8 1 9 41.572 12.901 43.848 584.060 o
8 1 10 6384.010 6094.870 163.230 13.306 o
8 1 11 6915.380 6904.160 195.534 10.475 o
8 1 12 1076.960 1024.600 73.504 142.755 o
8 1 13 4635.760 4536.690 177.311 17.727 o
8 1 14 4234.120 4203.850 175.916 19.328 o
8 1 15 13.180 11.244 46.835 518.074 o
8 1 16 4328.420 4180.700 194.252 17.161 o
8 1 17 1555.790 1437.310 110.529 67.774 o
8 1 18 81.419 126.364 69.235 233.006 o
8 2 0 334.153 330.346 43.793 473.575 o
8 2 1 7627.970 7580.250 218.279 8.606 o
8 2 2 4965.880 4819.900 132.664 20.796 o
8 2 3 4137.100 4304.400 135.122 24.811 o
8 2 4 4911.180 4849.400 143.603 19.841 o
8 2 5 3147.910 3040.110 116.193 38.536 o
8 2 6 3154.450 3286.730 120.238 36.361 o
8 2 7 1956.620 1748.750 94.361 73.154 o
8 2 8 3500.260 3493.240 124.759 32.173 o
8 2 9 3513.330 3349.930 138.743 29.453 o
8 2 10 3151.760 3060.270 128.755 34.823 o
8 2 11 2439.880 2400.320 126.744 43.217 o
8 2 12 1901.160 1781.890 96.591 71.916 o
8 2 13 1537.800 1283.010 81.665 103.893 o
8 2 14 2190.250 2310.480 118.096 49.898 o
8 2 15 2292.740 2139.070 141.349 39.392 o
8 2 16 2925.640 3143.930 137.499 33.598 o
8 3 0 1683.520 1573.640 82.130 94.600 o
8 3 1 3080.400 3013.340 133.789 34.060 o
8 3 2 4132.660 4080.080 213.668 15.762 o
8 3 3 4495.110 4445.590 143.344 21.998 o
8 3 4 1672.660 1518.520 86.373 90.294 o
8 3 5 535.973 462.806 62.660 237.642 o
8 3 6 1934.890 1720.640 101.971 67.339 o
8 3 7 2486.640 2451.030 125.337 43.201 o
8 3 8 4172.440 4137.810 143.783 23.766 o
8 3 9 2564.160 2188.930 116.469 47.540 o
8 3 10 4511.580 4331.250 156.789 20.542 o
8 3 11 982.163 770.980 70.890 161.290 o
8 3 12 2158.330 1880.420 102.472 62.300 o
8 3 13 303.139 242.014 64.635 249.608 o
8 3 14 1187.440 1194.960 103.504 82.569 o
8 4 0 3280.110 3312.220 142.028 30.045 o
8 4 1 322.879 282.174 64.751 246.180 o
8 4 2 6600.270 6928.170 274.241 8.038 o
8 4 3 385.488 414.780 73.921 187.843 o
8 4 4 2917.340 2925.820 136.660 34.541 o
8 4 5 36.392 52.978 57.981 335.479 o
8 4 6 2228.220 2081.460 115.316 52.180 o
8 4 7 153.674 167.330 63.349 271.435 o
8 4 8 7051.080 6730.620 197.503 10.342 o
8 4 9 461.622 372.966 71.774 195.342 o
8 4 10 6198.580 5701.370 183.936 12.895 o
8 5 0 25.593 -11.786 77.981 187.456 o
8 5 1 3035.060 2059.470 360.905 8.002 o
8 5 2 1756.510 647.563 258.831 16.101 o
9 1 0 822.843 692.461 53.010 257.727 o
9 1 1 512.105 437.206 52.134 322.555 o
9 1 2 4987.590 4936.650 138.364 19.959 o
9 1 3 6552.200 6556.810 171.791 12.212 o
9 1 4 6459.440 6247.840 198.803 11.363 o
9 1 5 188.301 150.084 48.875 437.424 o
9 1 6 5442.180 5385.160 172.161 15.342 o
9 1 7 873.889 836.565 64.484 188.986 o
9 1 8 5006.460 4768.200 149.650 19.083 o
9 1 9 7955.540 7455.580 190.113 9.135 o
9 1 10 5348.020 5071.180 152.631 17.424 o
9 1 11 887.770 774.710 65.934 184.377 o
9 1 12 4259.790 4417.800 159.298 20.909 o
9 1 13 390.088 254.882 63.434 251.612 o
9 1 14 3501.860 3127.980 173.735 23.370 o
9 1 15 3415.510 3377.680 175.547 22.951 o
9 2 0 1717.280 1586.800 84.448 90.602 o
9 2 1 1687.000 1587.540 125.600 54.049 o
9 2 2 463.176 496.190 60.851 254.114 o
9 2 3 10859.500 10546.700 246.317 5.056 o
9 2 4 351.870 292.250 57.942 296.816 o
9 2 5 60.641 21.276 51.199 427.557 o
9 2 6 2139.900 1901.750 99.725 64.367 o
9 2 7 1088.710 1015.220 73.534 142.351 o
9 2 8 1027.980 951.701 72.592 149.267 o
9 2 9 9118.550 8803.190 325.731 5.108 o
9 2 10 1121.170 1160.040 84.167 114.486 o
9 2 11 524.164 305.198 65.496 227.136 o
9 2 12 2753.360 2810.740 140.329 34.813 o
9 3 0 3875.310 3737.990 147.353 25.255 o
9 3 1 1011.100 957.490 81.648 126.729 o
9 3 2 2300.920 2024.480 137.664 41.174 o
9 3 3 6026.980 5629.040 203.282 12.188 o
9 3 4 2289.760 1929.980 110.181 55.264 o
9 3 5 705.585 654.370 69.420 185.236 o
9 3 6 2094.770 2056.270 116.426 53.145 o
9 3 7 408.605 306.209 74.122 188.257 o
9 3 8 3081.660 3103.480 141.869 31.688 o
9 3 9 8509.270 7855.330 624.475 2.332 o
10 1 0 3132.700 3193.600 126.498 35.120 o
10 1 1 642.006 530.464 64.029 218.987 o
10 1 2 1523.530 1389.150 92.055 88.371 o
10 1 3 5959.600 5735.000 175.601 13.749 o
10 1 4 708.754 681.650 65.151 203.065 o
10 1 5 2101.770 2273.450 114.664 52.877 o
10 1 6 1488.350 1445.930 97.306 82.197 o
10 1 7 1341.790 1225.310 80.273 113.520 o
10 1 8 1923.230 1662.270 98.430 70.987 o
10 1 9 3837.790 3574.690 159.896 23.701 o
10 1 10 1318.160 1007.070 101.432 84.524 o
10 2 0 3830.390 3695.190 149.171 25.230 o
10 2 1 396.668 367.612 62.844 251.037 o
10 2 2 1188.950 1080.950 76.572 129.292 o
10 2 3 6594.480 6723.000 203.508 10.677 o
10 2 4 766.374 705.872 74.751 160.769 o
10 2 5 586.582 590.428 74.432 172.798 o
10 2 6 2006.950 1498.180 289.210 12.694 o
10 2 7 240.008 -223.591 184.705 33.316 o
;
_olex2_submission_special_instructions 'No special instructions were received'
loop_
_space_group_symop_id
_space_group_symop_operation_xyz
1 x,y,z
2 x-y,x,z+5/6
3 y,-x+y,z+1/6
4 -y,x-y,z+2/3
5 -x+y,-x,z+1/3
6 -x,-y,z+1/2
loop_
_atom_site_label
_atom_site_type_symbol
_atom_site_fract_x
_atom_site_fract_y
_atom_site_fract_z
_atom_site_U_iso_or_equiv
_atom_site_adp_type
_atom_site_occupancy
_atom_site_refinement_flags_posn
_atom_site_refinement_flags_adp
_atom_site_disorder_group
Pb1 Pb 1.163879(19) 1.05721(2) 0.578550(5) 0.02405(6) Uani 1.000000 . . .
S1 S 0.57694(15) 0.48846(14) 0.58222(6) 0.0343(3) Uani 1.000000 . . .
Br1 Br 1.20155(8) 1.23555(7) 0.69464(2) 0.04194(14) Uani 1.000000 . . .
C1 C 0.8167(7) 0.7355(7) 0.6424(3) 0.0331(12) Uani 1.000000 . . .
O1 O 0.9304(5) 0.8704(5) 0.6378(2) 0.0441(11) Uani 1.000000 . . .
C2 C 0.7139(6) 0.6785(6) 0.5886(3) 0.0295(11) Uani 1.000000 . . .
O2 O 0.7896(6) 0.6563(6) 0.6890(2) 0.0568(14) Uani 1.000000 . . .
C3 C 0.7140(7) 0.7601(7) 0.5386(3) 0.0408(14) Uani 1.000000 . . .
H3 H 0.7824(7) 0.8638(7) 0.5332(3) 0.0490(17) Uiso 1.000000 R . .
O3 O 0.3416(6) 0.4284(5) 0.4313(2) 0.0474(12) Uani 1.000000 . . .
O4 O 0.3382(5) 0.2580(5) 0.49717(19) 0.0354(9) Uani 1.000000 . . .
C4 C 0.5990(8) 0.6696(7) 0.4966(3) 0.0442(16) Uani 1.000000 . . .
H4 H 0.5806(8) 0.7081(7) 0.4609(3) 0.0530(19) Uiso 1.000000 R . .
C6 C 0.3905(6) 0.3937(6) 0.4783(3) 0.0303(11) Uani 1.000000 . . .
C5 C 0.5176(6) 0.5207(6) 0.5130(2) 0.0306(11) Uani 1.000000 . . .
N1 N 1.1253(18) 1.6024(16) 0.6340(5) 0.104(5) Uani 0.668(13) D U 1
H1a H 1.1424(18) 1.6537(16) 0.6695(5) 0.124(5) Uiso 0.668(13) R . 1
H1b H 1.1139(18) 1.6594(16) 0.6051(5) 0.124(5) Uiso 0.668(13) R . 1
C7 C 1.262(2) 1.603(3) 0.6198(7) 0.101(5) Uani 0.668(13) D U 1
H7a H 1.298(12) 1.65(2) 0.580(4) 0.151(8) Uiso 0.668(13) GR . 1
H7b H 1.338(7) 1.661(19) 0.650(5) 0.151(8) Uiso 0.668(13) GR . 1
H7c H 1.243(6) 1.500(3) 0.619(9) 0.151(8) Uiso 0.668(13) GR . 1
C8 C 0.983(2) 1.469(2) 0.6400(7) 0.107(6) Uani 0.668(13) D U 1
H8a H 0.925(9) 1.483(8) 0.672(6) 0.160(8) Uiso 0.668(13) GR . 1
H8b H 0.929(8) 1.448(11) 0.602(3) 0.160(8) Uiso 0.668(13) GR . 1
H8c H 0.998(2) 1.385(5) 0.651(8) 0.160(8) Uiso 0.668(13) GR . 1
N1' N 1.1175(15) 1.5500(16) 0.5868(5) 0.037(4) Uani 0.332(13) D U 2
H1'a H 1.1226(15) 1.6229(16) 0.5616(5) 0.045(4) Uiso 0.332(13) R . 2
H1'b H 1.0864(15) 1.4662(16) 0.5634(5) 0.045(4) Uiso 0.332(13) R . 2
C7' C 1.2687(19) 1.597(3) 0.6019(7) 0.037(4) Uani 0.332(13) D U 2
H7'a H 1.326(5) 1.706(3) 0.605(8) 0.056(6) Uiso 0.332(13) GR . 2
H7'b H 1.272(2) 1.552(17) 0.640(4) 0.056(6) Uiso 0.332(13) GR . 2
H7'c H 1.313(7) 1.565(18) 0.570(4) 0.056(6) Uiso 0.332(13) GR . 2
C8' C 0.995(2) 1.515(3) 0.6261(7) 0.048(5) Uani 0.332(13) D U 2
H8'a H 0.901(3) 1.46(2) 0.604(2) 0.072(7) Uiso 0.332(13) GR . 2
H8'b H 0.996(14) 1.45(2) 0.659(5) 0.072(7) Uiso 0.332(13) GR . 2
H8'c H 1.004(13) 1.608(3) 0.642(8) 0.072(7) Uiso 0.332(13) GR . 2
loop_
_atom_site_aniso_label
_atom_site_aniso_U_11
_atom_site_aniso_U_22
_atom_site_aniso_U_33
_atom_site_aniso_U_12
_atom_site_aniso_U_13
_atom_site_aniso_U_23
Pb1 0.02463(9) 0.02686(10) 0.02038(8) 0.01266(7) -0.00048(7) 0.00282(7)
S1 0.0322(6) 0.0214(6) 0.0367(7) 0.0039(5) -0.0097(6) 0.0036(6)
Br1 0.0441(3) 0.0356(3) 0.0388(3) 0.0145(3) -0.0032(3) -0.0068(3)
C1 0.026(3) 0.032(3) 0.034(3) 0.009(2) -0.004(2) -0.005(2)
O1 0.0238(19) 0.043(3) 0.043(3) -0.0004(18) -0.0083(19) -0.007(2)
C2 0.019(2) 0.023(2) 0.034(3) 0.0019(19) -0.006(2) -0.000(2)
O2 0.062(3) 0.038(3) 0.048(3) 0.008(2) -0.023(2) 0.004(2)
C3 0.033(3) 0.021(3) 0.050(4) 0.000(2) -0.013(3) 0.003(2)
O3 0.043(3) 0.036(2) 0.050(3) 0.009(2) -0.021(2) 0.0018(19)
O4 0.0303(19) 0.0228(19) 0.041(2) 0.0042(16) -0.0055(18) -0.0003(17)
C4 0.042(3) 0.028(3) 0.046(3) 0.004(3) -0.019(3) 0.006(3)
C6 0.023(2) 0.027(3) 0.035(3) 0.008(2) -0.005(2) 0.001(2)
C5 0.025(3) 0.024(3) 0.033(3) 0.004(2) -0.004(2) 0.001(2)
N1 0.139(12) 0.079(7) 0.103(9) 0.063(7) 0.014(8) -0.013(7)
C7 0.142(12) 0.064(8) 0.113(11) 0.064(8) 0.008(8) -0.012(7)
C8 0.151(13) 0.078(9) 0.106(11) 0.068(8) 0.021(9) -0.011(7)
N1' 0.049(7) 0.023(6) 0.046(7) 0.023(5) -0.002(5) -0.005(5)
C7' 0.051(8) 0.023(7) 0.050(9) 0.026(6) -0.003(6) -0.006(6)
C8' 0.061(9) 0.039(8) 0.053(9) 0.032(6) 0.009(6) -0.003(6)
loop_
_atom_type_symbol
_atom_type_scat_dispersion_real
_atom_type_scat_dispersion_imag
_atom_type_scat_Cromer_Mann_a1
_atom_type_scat_Cromer_Mann_a2
_atom_type_scat_Cromer_Mann_a3
_atom_type_scat_Cromer_Mann_a4
_atom_type_scat_Cromer_Mann_b1
_atom_type_scat_Cromer_Mann_b2
_atom_type_scat_Cromer_Mann_b3
_atom_type_scat_Cromer_Mann_b4
_atom_type_scat_Cromer_Mann_c
_atom_type_scat_source
_atom_type_scat_dispersion_source
C 0.00347 0.00161 2.31000 1.02000 1.58860 0.86500 20.84390 10.20750 0.56870
51.65120 0.215599998832
'International Tables Volume C Table 6.1.1.4 (pp. 500-502)'
'Henke, Gullikson and Davis, At. Data and Nucl. Data Tables, 1993, 54, 2'
H 0.00000 0.00000 0.49300 0.32291 0.14019 0.04081 10.51090 26.12570 3.14236
57.79970 0.0030380000826
'International Tables Volume C Table 6.1.1.4 (pp. 500-502)'
'Henke, Gullikson and Davis, At. Data and Nucl. Data Tables, 1993, 54, 2'
O 0.01158 0.00611 3.04850 2.28680 1.54630 0.86700 13.27710 5.70110 0.32390
32.90890 0.250800013542
'International Tables Volume C Table 6.1.1.4 (pp. 500-502)'
'Henke, Gullikson and Davis, At. Data and Nucl. Data Tables, 1993, 54, 2'
N 0.00653 0.00323 12.21260 3.13220 2.01250 1.16630 0.00570 9.89330 28.99750
0.58260 -11.5290002823
'International Tables Volume C Table 6.1.1.4 (pp. 500-502)'
'Henke, Gullikson and Davis, At. Data and Nucl. Data Tables, 1993, 54, 2'
Pb -3.20855 10.15388 31.06170 13.06370 18.44200 5.96960 0.69020 2.35760 8.61800
47.25790 13.4118003845
'International Tables Volume C Table 6.1.1.4 (pp. 500-502)'
'Henke, Gullikson and Davis, At. Data and Nucl. Data Tables, 1993, 54, 2'
S 0.12424 0.12443 6.90530 5.20340 1.43790 1.58630 1.46790 22.21510 0.25360
56.17200 0.866900026798
'International Tables Volume C Table 6.1.1.4 (pp. 500-502)'
'Henke, Gullikson and Davis, At. Data and Nucl. Data Tables, 1993, 54, 2'
Br -0.28346 2.55990 17.17890 5.23580 5.63770 3.98510 2.17230 16.57960 0.26090
41.43280 2.95569992065
'International Tables Volume C Table 6.1.1.4 (pp. 500-502)'
'Henke, Gullikson and Davis, At. Data and Nucl. Data Tables, 1993, 54, 2'
loop_
_geom_angle_atom_site_label_1
_geom_angle_atom_site_label_2
_geom_angle_atom_site_label_3
_geom_angle
_geom_angle_site_symmetry_1
_geom_angle_site_symmetry_3
_geom_angle_publ_flag
O1 Pb1 Br1 78.90(11) . . ?
O3 Pb1 Br1 88.79(12) 3_665 . ?
O3 Pb1 O1 122.14(15) 3_665 . ?
O4 Pb1 Br1 105.83(9) 1_665 . ?
O4 Pb1 O1 161.41(14) 1_665 . ?
O4 Pb1 O3 76.29(14) 1_665 3_665 ?
C5 S1 C2 91.2(3) . . ?
C2 C1 O1 115.9(5) . . ?
O2 C1 O1 123.1(5) . . ?
O2 C1 C2 121.0(5) . . ?
C1 O1 Pb1 147.9(4) . . ?
C1 C2 S1 120.9(4) . . ?
C3 C2 S1 111.5(4) . . ?
C3 C2 C1 127.5(5) . . ?
H3 C3 C2 123.9(3) . . ?
C4 C3 C2 112.2(5) . . ?
C4 C3 H3 123.9(3) . . ?
C6 O3 Pb1 97.5(3) . 2_544 ?
C6 O4 Pb1 144.9(4) . 1_445 ?
H4 C4 C3 123.3(3) . . ?
C5 C4 C3 113.4(6) . . ?
C5 C4 H4 123.3(4) . . ?
O4 C6 O3 123.8(5) . . ?
C5 C6 O3 117.5(5) . . ?
C5 C6 O4 118.7(5) . . ?
C4 C5 S1 111.6(4) . . ?
C6 C5 S1 121.1(4) . . ?
C6 C5 C4 127.3(5) . . ?
H1b N1 H1a 106.5 . . ?
C7 N1 H1a 106.4(9) . . ?
C7 N1 H1b 106.4(10) . . ?
C8 N1 H1a 106.4(8) . . ?
C8 N1 H1b 106.4(11) . . ?
C8 N1 C7 123.7(16) . . ?
H7a C7 N1 109.5 . . ?
H7b C7 N1 109.5 . . ?
H7b C7 H7a 109.5 . . ?
H7c C7 N1 109.5 . . ?
H7c C7 H7a 109.5 . . ?
H7c C7 H7b 109.5 . . ?
H8a C8 N1 109.5 . . ?
H8b C8 N1 109.5 . . ?
H8b C8 H8a 109.5 . . ?
H8c C8 N1 109.5 . . ?
H8c C8 H8a 109.5 . . ?
H8c C8 H8b 109.5 . . ?
H1'b N1' H1'a 105.9 . . ?
C7' N1' H1'a 105.2(11) . . ?
C7' N1' H1'b 105.2(10) . . ?
C8' N1' H1'a 105.2(11) . . ?
C8' N1' H1'b 105.2(11) . . ?
C8' N1' C7' 128.4(14) . . ?
H7'a C7' N1' 109.5 . . ?
H7'b C7' N1' 109.5 . . ?
H7'b C7' H7'a 109.5 . . ?
H7'c C7' N1' 109.5 . . ?
H7'c C7' H7'a 109.5 . . ?
H7'c C7' H7'b 109.5 . . ?
H8'a C8' N1' 109.5 . . ?
H8'b C8' N1' 109.5 . . ?
H8'b C8' H8'a 109.5 . . ?
H8'c C8' N1' 109.5 . . ?
H8'c C8' H8'a 109.5 . . ?
H8'c C8' H8'b 109.5 . . ?
loop_
_geom_bond_atom_site_label_1
_geom_bond_atom_site_label_2
_geom_bond_distance
_geom_bond_site_symmetry_2
_geom_bond_publ_flag
Pb1 Br1 3.0224(6) . ?
Pb1 O1 2.521(5) . ?
Pb1 O3 2.573(4) 3_665 ?
Pb1 O4 2.609(4) 1_665 ?
S1 C2 1.722(5) . ?
S1 C5 1.717(6) . ?
C1 O1 1.274(8) . ?
C1 C2 1.482(7) . ?
C1 O2 1.237(8) . ?
C2 C3 1.367(8) . ?
C3 H3 0.9300 . ?
C3 C4 1.403(8) . ?
O3 C6 1.263(7) . ?
O4 C6 1.268(7) . ?
C4 H4 0.9300 . ?
C4 C5 1.353(8) . ?
C6 C5 1.491(7) . ?
N1 H1a 0.9000 . ?
N1 H1b 0.9000 . ?
N1 C7 1.413(12) . ?
N1 C8 1.400(12) . ?
C7 H7a 0.9600 . ?
C7 H7b 0.9600 . ?
C7 H7c 0.9600 . ?
C8 H8a 0.9600 . ?
C8 H8b 0.9600 . ?
C8 H8c 0.9600 . ?
N1' H1'a 0.9000 . ?
N1' H1'b 0.9000 . ?
N1' C7' 1.395(12) . ?
N1' C8' 1.399(12) . ?
C7' H7'a 0.9600 . ?
C7' H7'b 0.9600 . ?
C7' H7'c 0.9600 . ?
C8' H8'a 0.9600 . ?
C8' H8'b 0.9600 . ?
C8' H8'c 0.9600 . ?
loop_
_refln_index_h
_refln_index_k
_refln_index_l
_refln_F_squared_meas
_refln_F_squared_sigma
-2 1 0 137.39 7.8
-1 -1 0 121.09 7.2
-1 -1 0 122.19 7.3
1 -2 0 109.79 8.7
1 1 0 117.19 7.5
2 -1 0 124.99 7.6
-2 1 0 138.29 8.7
1 1 0 115.89 7.5
2 0 0 1285.17 61.49
2 -2 0 1232.88 63.79
2 -2 0 1366.76 62.59
0 -2 0 1150.48 62.59
2 0 0 1140.49 62.99
-2 2 0 1319.77 62.59
0 -2 0 1165.28 62.39
0 2 0 1152.58 62.79
-2 0 0 1265.97 61.59
-2 2 0 1241.98 63.59
-2 0 0 1311.07 61.69
-2 3 0 3578.74 170.18
2 -3 0 3241.48 170.88
3 -1 0 3636.54 168.78
-1 -2 0 2975.9 169.08
1 2 0 3583.94 168.88
-2 3 0 3701.13 172.18
-3 1 0 3646.04 169.48
-1 -2 0 3136.29 168.88
-3 1 0 3632.34 169.08
1 2 0 3257.47 169.58
2 -3 0 3391.86 169.98
2 1 0 1344.07 64.69
-1 3 0 1283.37 67.19
1 -3 0 1161.48 66.39
-3 2 0 1313.77 65.59
2 1 0 1238.98 64.49
-3 2 0 1337.97 66.79
-2 -1 0 1382.46 64.59
3 -2 0 1326.07 67.39
3 -2 0 1418.36 65.59
1 -3 0 1178.78 66.19
-2 -1 0 1267.27 64.49
3 0 0 1137.49 55.69
-3 3 0 1162.48 56.59
0 3 0 1027.6 56.99
3 -3 0 1154.08 56.49
0 -3 0 978.3 56.49
3 0 0 1136.69 54.99
-3 0 0 1129.79 55.29
0 -3 0 1032.3 56.19
-3 3 0 1160.38 58.59
0 3 0 1021 56.09
-3 0 0 1070.39 54.99
1 3 0 1923.21 105.09
-3 4 0 2247.78 108.29
-1 -3 0 2020.5 104.39
-1 -3 0 1966.6 104.79
1 3 0 2049.7 104.09
-4 1 0 2226.18 104.39
-3 4 0 2191.58 105.69
3 -4 0 2085.19 105.39
3 -4 0 1960.5 106.59
4 -1 0 1817.02 108.69
4 -1 0 2288.17 103.69
-4 1 0 2185.88 103.99
2 -4 0 1324.47 67.39
4 -2 0 1372.96 65.89
-2 -2 0 1234.88 65.29
2 2 0 1369.26 65.19
-4 2 0 1328.37 67.09
2 2 0 1228.18 65.99
-2 4 0 1306.67 69.59
-2 -2 0 1290.47 65.19
2 -4 0 1191.68 67.89
-2 4 0 1305.57 67.29
-4 2 0 1308.87 66.19
3 1 0 495.75 26.9
-4 3 0 505.35 28.8
-1 4 0 543.45 31.1
1 -4 0 495.45 29.5
-3 -1 0 494.55 27.1
4 -3 0 540.25 28.7
-4 3 0 515.05 30.5
1 -4 0 452.45 29.5
-3 -1 0 508.85 27.2
4 -3 0 567.54 32.5
3 1 0 524.15 27.5
4 0 0 495.85 27.6
4 0 0 515.25 26.3
0 -4 0 453.45 28.3
0 -4 0 440.56 28.5
4 -4 0 495.25 28.6
-4 0 0 435.46 26.5
-4 4 0 521.75 29
-4 0 0 527.25 26.9
0 4 0 515.55 29.9
-4 4 0 482.85 31
-5 1 0 3139.59 150.98
-5 1 0 2998 150.78
4 -5 0 2940.81 154.38
5 -1 0 3131.19 150.38
1 4 0 2930.91 150.98
-1 -4 0 2928.91 151.58
4 -5 0 3078.39 152.78
5 -1 0 3048.5 152.58
-1 -4 0 3019.6 152.28
1 4 0 2881.41 153.68
-4 5 0 3079.29 155.48
-4 5 0 3184.18 153.08
5 -2 0 2437.76 118.69
3 -5 0 2436.56 121.09
-2 -3 0 2205.08 118.79
3 -5 0 2252.97 122.09
2 3 0 2512.85 118.59
-2 -3 0 2157.48 118.89
2 3 0 2541.45 120.19
-3 5 0 2437.86 123.79
-5 2 0 2404.96 119.89
-3 5 0 2402.76 120.99
3 2 0 338.47 19.6
-5 3 0 391.76 23.4
3 2 0 321.87 19.9
-2 5 0 339.07 22
5 -3 0 346.07 25.1
-3 -2 0 329.87 19.5
-5 3 0 330.87 21.2
2 -5 0 332.57 23.3
-3 -2 0 312.37 19.4
5 -3 0 348.27 20.9
2 -5 0 345.77 22.7
4 1 0 704.03 38.1
-4 -1 0 744.83 38.2
-1 5 0 745.83 42.9
1 -5 0 622.04 40.7
4 1 0 759.72 38.8
-4 -1 0 691.53 38
-5 4 0 681.93 40.1
1 -5 0 736.33 41.3
-5 4 0 771.02 42.8
5 -4 0 762.22 40.2
-5 5 0 267.87 22.7
0 -5 0 222.28 19.1
5 0 0 274.27 18.7
0 5 0 267.67 20.5
0 5 0 259.27 18.3
5 -5 0 233.18 21
-5 0 0 249.18 16.8
-5 0 0 237.18 16.6
5 -5 0 278.87 19.6
-5 5 0 252.07 19.4
0 -5 0 237.88 18.7
5 0 0 263.87 15.9
6 -1 0 556.04 30.1
-5 6 0 604.64 38.2
-6 1 0 531.65 31
-5 6 0 511.25 33.6
1 5 0 560.64 34.1
-1 -5 0 517.05 32.7
5 -6 0 537.65 33.4
6 -1 0 510.95 33.4
5 -6 0 519.25 35.5
-1 -5 0 528.15 32.4
1 5 0 539.25 31.5
-6 1 0 545.95 31
6 -2 0 1327.47 82.19
-4 6 0 1472.45 80.69
-2 -4 0 1462.35 74.99
-6 2 0 1461.85 75.19
6 -2 0 1470.75 73.99
2 4 0 1589.34 76.59
-4 6 0 1501.25 77.19
2 4 0 1480.75 74.19
4 -6 0 1420.86 76.79
4 -6 0 1352.26 78.39
-2 -4 0 1373.46 74.89
-6 2 0 1410.76 74.89
-6 3 0 19.8 7.5
3 3 0 23.4 5.3
6 -3 0 28.6 6
3 -6 0 26.8 8
-3 6 0 29.6 12.9
-3 -3 0 15.1 5
3 3 0 22.5 5.8
-6 3 0 18.5 6.4
-3 6 0 31 7.9
-3 -3 0 15.2 4.9
3 -6 0 16.6 7
6 -4 0 1553.74 89.89
4 2 0 1770.92 87.19
-6 4 0 1693.13 89.09
2 -6 0 1673.03 90.89
2 -6 0 1861.21 90.99
6 -4 0 1682.23 92.89
-4 -2 0 1791.52 86.99
-6 4 0 1795.82 90.89
4 2 0 1762.22 86.99
-2 6 0 1656.13 89.19
-4 -2 0 1651.53 86.79
-5 -1 0 768.62 40.8
5 1 0 781.62 41.6
-5 -1 0 822.22 41
-1 6 0 658.43 46.3
1 -6 0 772.52 44.4
1 -6 0 673.93 43.9
5 1 0 745.83 40.1
-6 5 0 735.73 46
-6 5 0 748.33 43.6
6 -5 0 823.12 44
6 -6 0 193.38 18.3
0 -6 0 188.38 18.8
6 0 0 186.38 17.2
-6 0 0 179.88 14.8
6 0 0 177.98 13.6
-6 6 0 157.48 24.7
6 -6 0 173.48 20.3
-6 0 0 176.88 14.8
0 -6 0 185.68 17.7
-6 6 0 193.68 22.2
0 6 0 204.28 19.9
0 6 0 196.88 16.5
1 6 0 1251.07 64.09
-1 -6 0 1152.78 65.39
6 -7 0 1191.18 66.49
-7 1 0 1194.68 63.49
7 -1 0 1176.28 62.29
-6 7 0 1178.88 66.89
7 -1 0 1202.68 66.69
-7 1 0 1137.69 63.69
1 6 0 1238.78 67.39
-6 7 0 1266.47 71.19
-1 -6 0 1226.08 65.79
6 -7 0 1163.58 69.39
2 5 0 520.95 31.5
7 -2 0 478.25 28
-2 -5 0 493.45 30
-7 2 0 474.95 29.6
-5 7 0 448.36 42.4
-5 7 0 490.15 32.3
-7 2 0 461.75 29.3
-2 -5 0 485.05 29.8
2 5 0 443.36 28.3
7 -2 0 477.45 33.3
5 -7 0 445.86 31.8
5 -7 0 437.86 33.8
7 -3 0 67.09 18.4
7 -3 0 106.19 12.2
-4 7 0 129.49 22.5
-3 -4 0 99.39 12.7
4 -7 0 89.69 15.3
-3 -4 0 79.99 12.3
3 4 0 114.39 11.6
4 -7 0 112.09 17.6
-7 3 0 98.69 14.2
-7 3 0 114.99 14.6
3 4 0 116.79 13.2
-4 7 0 95.09 15.5
-3 7 0 2370.86 126.19
-7 4 0 2416.56 121.29
4 3 0 2516.85 119.39
-4 -3 0 2306.57 117.89
7 -4 0 2205.78 123.99
3 -7 0 2468.45 122.29
-3 7 0 2257.87 120.69
7 -4 0 2319.67 118.99
4 3 0 2433.26 117.89
-4 -3 0 2271.07 117.99
-7 4 0 2223.48 119.99
3 -7 0 2323.27 122.79
-7 5 0 2675.83 146.99
7 -5 0 2956.7 146.59
2 -7 0 3044.9 149.19
2 -7 0 2906.91 149.29
-5 -2 0 2777.52 144.49
5 2 0 2779.62 144.49
5 2 0 2908.41 144.89
-7 5 0 2978 149.29
-5 -2 0 2855.31 144.49
-2 7 0 3069.09 152.88
6 1 0 696.23 38.6
6 1 0 721.93 41
7 -6 0 731.43 42.6
-7 6 0 688.63 43.1
1 -7 0 735.83 44.3
-1 7 0 650.33 45.4
-6 -1 0 737.63 39.8
1 -7 0 766.92 44.2
7 -6 0 674.63 46.1
-6 -1 0 695.53 39.6
-7 6 0 745.83 46.7
-7 7 0 413.36 33.3
-7 0 0 371.06 24.7
7 -7 0 338.47 27.5
0 7 0 396.46 26.1
7 0 0 372.16 22.8
7 0 0 372.26 27
0 -7 0 391.96 28.8
-7 7 0 322.77 28.2
7 -7 0 323.37 30.6
0 -7 0 331.87 27.4
-7 0 0 417.86 24.6
-8 1 0 652.73 40.9
7 -8 0 681.83 44.3
8 -1 0 731.73 44.9
1 7 0 554.14 54.89
-8 1 0 662.53 40.3
-7 8 0 706.73 44.8
-1 -7 0 721.83 43.2
-7 8 0 727.03 49.9
1 7 0 740.13 41.1
-1 -7 0 760.52 44
7 -8 0 665.83 47.7
-6 8 0 189.08 27.2
8 -2 0 215.88 24.1
6 -8 0 233.18 25.2
-8 2 0 200.58 19.6
8 -2 0 189.38 16.7
-8 2 0 207.08 18.5
2 6 0 230.18 21.2
-2 -6 0 215.48 19.4
-6 8 0 195.48 22.1
2 6 0 199.28 17.7
-2 -6 0 215.98 19.9
6 -8 0 191.88 21.9
5 -8 0 410.76 31.7
3 5 0 509.55 30.2
-3 -5 0 416.36 28.1
-8 3 0 431.66 29.2
3 5 0 409.16 26.5
8 -3 0 394.16 34.7
-5 8 0 413.86 37.3
8 -3 0 402.46 26.9
-3 -5 0 431.16 28.3
-5 8 0 467.25 31.7
5 -8 0 421.96 33.9
-8 3 0 420.86 29.5
-8 4 0 2333.37 118.49
-4 8 0 2348.67 124.69
4 -8 0 2252.47 121.09
8 -4 0 2204.58 115.99
-4 -4 0 2258.57 115.99
-4 8 0 2270.47 118.99
-4 -4 0 2204.68 115.69
-8 4 0 2192.98 117.69
4 -8 0 2357.76 120.29
4 4 0 2324.27 114.99
-8 5 0 3898.41 192.18
-3 8 0 3556.54 190.68
5 3 0 4066.99 189.28
5 3 0 3897.41 187.78
-5 -3 0 3602.74 187.88
-5 -3 0 3498.55 187.68
-3 8 0 3979.6 197.58
-8 5 0 3555.74 190.68
8 -5 0 3742.93 189.48
3 -8 0 3748.32 193.38
3 -8 0 3965.5 193.08
-6 -2 0 1883.41 100.49
2 -8 0 2000.6 105.99
6 2 0 1956.9 100.19
6 2 0 2089.69 101.29
-8 6 0 1900.01 104.09
8 -6 0 1972.3 102.99
8 -6 0 1806.42 107.19
-6 -2 0 1972.9 100.59
-8 6 0 2062.19 106.29
2 -8 0 2026.6 105.69
-8 7 0 102.09 15.6
-7 -1 0 133.19 14.6
1 -8 0 120.09 18.8
-8 7 0 153.28 23.4
8 -7 0 111.19 17.7
7 1 0 139.49 16.4
8 -7 0 114.49 18.8
-7 -1 0 96.09 14
1 -8 0 103.79 15.9
-1 8 0 93.49 20.8
-1 8 0 107.69 15.6
7 1 0 112.89 14.5
8 0 0 155.48 20.8
-8 0 0 181.68 17
8 -8 0 187.88 21.8
8 -8 0 171.38 26.2
-8 8 0 165.28 26.4
8 0 0 125.69 15.7
-8 0 0 205.48 19.5
-8 8 0 181.28 22.6
0 -8 0 189.08 21.7
0 -8 0 194.48 21.9
0 8 0 185.58 18.7
9 -1 0 991 59.19
-9 1 0 929.51 54.29
8 -9 0 968.2 63.69
-1 -8 0 1024.5 58.99
8 -9 0 954.8 59.49
-9 1 0 923.61 55.79
-8 9 0 981.3 64.49
-1 -8 0 1006.7 57.59
-8 9 0 876.11 59.49
1 8 0 1087.49 55.49
-9 2 0 673.13 41.3
7 -9 0 686.63 48.9
-2 -7 0 707.33 43.8
7 -9 0 656.43 45.7
-7 9 0 718.53 51.79
-7 9 0 653.03 45.6
9 -2 0 674.33 47
-2 -7 0 753.22 43.9
2 7 0 670.83 40.4
3 6 0 14.7 8.4
-6 9 0 6.9 8.8
6 -9 0 13.6 12.7
-3 -6 0 11.4 8.6
-9 3 0 17.4 10.1
6 -9 0 13.8 10.8
-9 3 0 5.1 8
9 -3 0 9.2 6.9
3 6 0 12.8 7.2
-3 -6 0 3.4 8.1
9 -3 0 3.7 13.6
-6 9 0 7.1 14.6
5 -9 0 537.45 37.6
4 5 0 602.94 33.9
-4 -5 0 516.75 32.9
4 5 0 480.55 30.6
-9 4 0 410.56 38.8
5 -9 0 480.65 38.5
-5 9 0 495.55 36.3
9 -4 0 500.35 33
-4 -5 0 506.85 32.3
-9 4 0 497.15 35
-5 9 0 489.35 42.9
4 -9 0 1737.13 94.79
-4 9 0 1595.94 91.49
-5 -4 0 1715.73 88.79
-5 -4 0 1704.93 88.49
-4 9 0 1833.02 99.59
4 -9 0 1842.42 94.39
-9 5 0 1739.63 92.09
9 -5 0 1621.44 89.49
5 4 0 1575.94 92.89
-9 5 0 1629.84 91.49
-6 -3 0 1180.38 67.39
-9 6 0 1201.18 71.59
6 3 0 1412.16 68.39
3 -9 0 1238.98 73.69
3 -9 0 1333.27 73.59
-6 -3 0 1237.48 67.39
-9 6 0 1358.46 73.39
9 -6 0 1133.99 74.59
9 -6 0 1269.27 69.79
-3 9 0 1209.88 70.49
6 3 0 1426.56 69.39
-3 9 0 1122.19 93.69
-2 9 0 867.21 53.09
-9 7 0 910.81 56.79
7 2 0 908.11 49
-7 -2 0 878.71 49.99
-9 7 0 853.11 54.59
-7 -2 0 888.11 49.7
9 -7 0 867.91 52.79
9 -7 0 834.22 57.99
7 2 0 929.61 50.59
2 -9 0 927.31 56.49
2 -9 0 935.91 55.69
-8 -1 0 81.09 14.4
-8 -1 0 52.09 10.8
1 -9 0 66.49 13.1
-1 9 0 70.29 11.7
-1 9 0 63.99 23.9
-9 8 0 66.79 18.2
8 1 0 100.79 13.8
-9 8 0 71.59 15.6
9 -8 0 56.49 17.3
1 -9 0 58.09 15.6
9 -8 0 51.89 13.8
-9 0 0 149.79 19.7
0 -9 0 183.48 24
0 -9 0 177.48 23.5
-9 0 0 172.98 18.5
-9 9 0 151.28 25.6
9 0 0 170.28 23.1
-9 9 0 184.48 30
9 -9 0 202.18 29.2
0 9 0 207.38 20.2
9 -9 0 152.48 23.6
-10 1 0 168.48 19.7
-9 10 0 226.08 32.8
10 -1 0 246.58 36.7
1 9 0 180.48 20.4
9 -10 0 170.38 26.6
-9 10 0 186.58 27.9
-10 1 0 181.08 22.6
9 -10 0 180.28 26.4
-1 -9 0 209.38 25.9
-1 -9 0 212.48 24.4
-10 2 0 167.68 22.3
8 -10 0 154.78 24.9
10 -2 0 161.48 22.6
-10 2 0 165.58 20
2 8 0 179.98 18.9
8 -10 0 175.38 30.2
-2 -8 0 175.68 23
-8 10 0 190.88 28.3
-2 -8 0 189.78 22.3
-8 10 0 156.78 25.7
-7 10 0 114.69 18.7
7 -10 0 131.09 19.5
7 -10 0 109.79 19.9
10 -3 0 105.89 21.7
-10 3 0 100.89 15.7
-3 -7 0 122.99 19.4
-10 3 0 110.19 18
-7 10 0 134.89 25.4
3 7 0 89.69 16.5
-3 -7 0 127.99 18.9
-10 4 0 13.6 9.9
4 6 0 19.2 8.3
-6 10 0 17.8 11.6
-4 -6 0 20 9.4
-6 10 0 -6 21.7
-4 -6 0 21.8 9.9
6 -10 0 21.3 14.3
6 -10 0 19.3 12.6
-10 4 0 26 12.2
10 -5 0 27.3 9.8
-10 5 0 73.59 14.3
5 -10 0 18.7 14
-5 10 0 94.19 22.3
-10 5 0 68.49 19
-5 -5 0 49.1 10.7
-5 10 0 50.79 12.8
-5 -5 0 66.59 12
5 5 0 73.59 12.8
5 -10 0 58.19 15.1
-4 10 0 160.68 26.2
10 -6 0 118.69 20.6
-6 -4 0 133.59 17.2
6 4 0 149.59 14.9
-4 10 0 140.29 21.2
-10 6 0 127.69 18.9
-10 6 0 148.59 22.8
4 -10 0 154.38 24
-6 -4 0 104.39 17
4 -10 0 146.19 25.3
10 -6 0 134.29 18.4
-10 7 0 54.19 15.2
3 -10 0 61.79 16.8
-7 -3 0 54.89 10.9
-7 -3 0 49.1 10.6
10 -7 0 92.49 19.2
-10 7 0 60.19 14.8
10 -7 0 38 11.1
7 3 0 72.19 10.5
3 -10 0 67.99 16.2
-2 10 0 29.2 10.4
2 -10 0 29.1 13
10 -8 0 14.8 10.1
8 2 0 37.5 10
10 -8 0 30.7 14.9
2 -10 0 22.5 13.7
-10 8 0 28.8 14.6
-10 8 0 40.5 14.7
-8 -2 0 22.8 9.4
-8 -2 0 19.3 9.3
1 -10 0 80.79 16.2
-1 10 0 55.29 11.9
-10 9 0 67.89 16.9
10 -9 0 55.39 21.5
-10 9 0 20.7 15.9
9 1 0 60.29 12.2
10 -9 0 56.29 13.4
-9 -1 0 48.1 11.6
-9 -1 0 53.89 10.8
1 -10 0 62.49 16.3
-10 0 0 23.5 11.3
10 -10 0 31.5 12.8
0 -10 0 49.2 14.5
10 -10 0 16.6 16.2
10 0 0 10.7 11
-10 0 0 32.5 10.7
0 -10 0 25.4 13.3
-10 10 0 32.9 19
-10 10 0 41.4 15.8
0 10 0 27 10.5
-11 1 0 21.1 10.8
-1 -10 0 8 12
-10 11 0 27.5 14.6
-10 11 0 7 17
1 10 0 16.7 9.8
10 -11 0 18 14.1
-11 1 0 13.2 12.5
10 -11 0 36.5 18.8
-1 -10 0 6.6 12.7
2 9 0 2.9 8.7
9 -11 0 17.6 13.8
-9 11 0 8.3 11.8
-2 -9 0 -2.7 10.8
-2 -9 0 15.6 12
9 -11 0 -5.7 15.5
-11 2 0 -6.2 8.8
-11 2 0 -6 11.3
-9 11 0 -29 16.3
-3 -8 0 59.89 13.6
8 -11 0 51.49 16.9
-8 11 0 75.09 17.4
3 8 0 54.09 11.1
-8 11 0 52.39 22.1
-11 3 0 87.99 16.7
-3 -8 0 79.59 15.2
8 -11 0 50.89 18.8
-11 3 0 72.19 13.7
-4 -7 0 354.16 29.1
-11 4 0 331.27 28.6
7 -11 0 372.76 38.2
-4 -7 0 381.66 29.8
-7 11 0 367.16 41.6
-7 11 0 341.27 33.5
4 7 0 328.77 24.8
7 -11 0 323.77 34.4
-11 4 0 335.87 31.9
-5 -6 0 188.18 21.5
6 -11 0 165.38 29.7
6 -11 0 195.08 31.3
-11 5 0 196.78 23.9
-11 5 0 206.98 26.9
5 6 0 204.78 17.2
-6 11 0 172.58 25.7
6 5 0 244.18 18.5
-11 6 0 230.28 26.2
-6 -5 0 294.67 25.3
-5 11 0 231.78 27.4
-6 -5 0 207.48 22.5
-11 6 0 228.18 28.4
5 -11 0 241.78 30.4
5 -11 0 275.47 32.6
-11 7 0 41 15.4
-7 -4 0 51.09 11.5
11 -7 0 75.49 18.5
-4 11 0 36.4 12.9
7 4 0 48.5 8.6
-11 7 0 40.9 14.6
-7 -4 0 53.09 11.3
4 -11 0 30.7 13.9
4 -11 0 37 15.5
8 3 0 116.19 15.3
-8 -3 0 125.89 18.6
3 -11 0 160.58 26.4
-11 8 0 142.99 25.6
3 -11 0 138.69 21.3
-8 -3 0 130.49 18.6
-11 8 0 114.99 19
-3 11 0 129.29 22.2
11 -8 0 126.59 23.1
-11 9 0 155.78 27.4
-9 -2 0 142.59 20
11 -9 0 110.49 21.7
9 2 0 126.49 19.2
-9 -2 0 139.49 18.9
-11 9 0 95.99 19
-2 11 0 136.49 20.1
2 -11 0 105.99 19
2 -11 0 167.48 28.6
-10 -1 0 269.27 26.2
-10 -1 0 275.87 24.4
1 -11 0 290.37 32.4
1 -11 0 256.57 30.6
-1 11 0 263.27 25.6
-11 10 0 244.28 34.3
-11 10 0 240.78 32.4
11 -10 0 228.78 36.7
11 -11 0 5.1 17.2
0 11 0 23.3 18.2
-11 0 0 11.4 10.7
-11 11 0 39.4 23.7
0 -11 0 21.6 15
-11 11 0 21.7 18.2
-11 0 0 9.6 12.4
0 -11 0 1.2 20.9
-2 -10 0 1035.6 63.39
-12 2 0 942.71 60.29
-12 2 0 1079.89 65.29
10 -12 0 1028.9 73.39
-2 -10 0 1230.78 67.69
2 10 0 1023.6 58.79
-10 12 0 931.31 67.49
9 -12 0 229.58 34.1
-3 -9 0 333.37 31.2
-9 12 0 230.08 33.4
-3 -9 0 279.67 41.5
3 9 0 272.17 23.1
-12 3 0 242.38 30.4
9 -12 0 242.68 38.5
-12 3 0 237.98 26
-4 -8 0 2.1 11.3
-12 4 0 -9.2 10.2
-8 12 0 -12.7 13.6
8 -12 0 -1.1 15.9
12 -4 0 -18.2 11.3
8 -12 0 3.7 15.4
-4 -8 0 13.5 11.8
-12 4 0 -0.2 12.6
4 8 0 -1.1 12.6
-12 5 0 364.06 32.2
-7 12 0 320.07 46.3
7 -12 0 415.86 38.8
-5 -7 0 367.36 31.2
12 -5 0 315.67 36.1
-5 -7 0 405.56 32.3
-12 5 0 359.76 35.6
7 -12 0 373.16 40.9
5 7 0 406.16 27.5
6 -12 0 521.75 46.5
-12 6 0 492.55 39.6
-12 6 0 532.75 43.4
6 -12 0 622.24 50.09
-6 12 0 506.55 42
-6 -6 0 581.64 38.3
6 6 0 496.55 30.4
-6 -6 0 506.45 36.8
12 -6 0 506.25 44.8
-12 7 0 354.26 33.2
-7 -5 0 312.17 28.5
5 -12 0 381.16 39.8
-7 -5 0 430.06 31.4
12 -7 0 281.77 33.3
-12 7 0 341.07 35.9
-5 12 0 356.46 33.6
5 -12 0 341.77 36.3
4 -12 0 259.07 33
-12 8 0 265.47 33.4
-8 -4 0 266.17 26.2
-12 8 0 265.47 30.2
-8 -4 0 276.27 25.7
12 -8 0 272.87 36.8
4 -12 0 308.87 37.8
-9 -3 0 282.97 40.3
-12 9 0 296.17 35.8
12 -9 0 314.97 40
-12 9 0 247.88 34.2
-9 -3 0 293.77 27
3 -12 0 402.96 36.9
-3 12 0 308.37 29.8
3 -12 0 283.37 38
-2 12 0 326.57 29.2
-12 10 0 255.57 36.3
-12 10 0 312.67 36.3
2 -12 0 261.77 42.6
2 -12 0 404.16 50.39
-10 -2 0 296.47 26.7
12 -10 0 287.77 41.4
-10 -2 0 290.17 28
8 -13 0 -5 16.1
13 -5 0 15.4 14.7
-13 5 0 8.5 12.3
-13 5 0 4.3 14.8
8 -13 0 10.5 16.2
-5 -8 0 20.3 12.7
-5 -8 0 14.7 12.8
-6 -7 0 99.79 16.4
-13 6 0 51.29 27.4
13 -6 0 52.39 18
-6 -7 0 91.49 15.7
7 -13 0 83.39 23.1
7 -13 0 72.39 20.4
-13 6 0 36.5 14.1
-7 13 0 61.09 18.4
-7 -6 0 1 11.6
-13 7 0 1 12.2
-7 -6 0 14.4 12.1
-6 13 0 15.8 13.9
-13 7 0 24.6 17.2
6 -13 0 29 16
13 -7 0 -2.1 17.6
6 -13 0 7.1 17.1
-13 8 0 10.1 16.1
-13 8 0 -11.2 14.1
13 -8 0 -7 16.2
5 -13 0 12.1 19.3
-8 -5 0 -3.8 10.6
0 -1 1 1904.91 97.49
-1 -1 -1 2997.9 144.69
-2 1 -1 2920.91 146.09
2 -1 -1 2883.61 146.09
1 1 -1 2937.31 145.49
1 -2 -1 3072.19 146.79
-1 2 -1 2948.7 146.99
-2 1 -1 3039.8 145.49
2 -1 -1 3136.39 145.49
-1 2 -1 2958.5 146.19
-1 -1 -1 2664.23 144.89
1 -2 -1 3021.9 145.89
1 -2 1 3051.99 149.49
2 -1 1 3353.96 148.59
-2 1 1 3157.28 148.79
-1 2 1 3099.49 149.88
-1 -1 1 3007.3 148.49
1 1 1 2574.74 148.19
1 -2 1 2704.13 149.69
-1 -1 1 2987.1 148.59
1 1 1 3206.08 147.89
-2 1 1 3133.19 149.29
0 -2 -1 5816.92 299.77
0 2 -1 5525.75 300.57
2 -2 -1 6666.63 300.17
2 -2 -1 6369.16 301.07
-2 0 -1 6082.99 298.87
-2 2 -1 6176.78 300.17
-2 0 -1 6484.85 299.07
0 -2 -1 5545.15 299.77
2 0 -1 6465.15 299.47
-2 2 1 6732.13 299.97
0 2 1 5395.56 300.07
-2 0 1 6537.85 299.47
-2 0 1 6184.08 299.27
2 -2 1 5638.64 300.67
-2 2 1 6288.47 300.77
2 -2 1 6503.65 299.97
0 -2 1 5675.73 300.57
2 0 1 6393.06 299.27
0 -2 1 5365.46 299.87
0 2 1 6195.08 300.07
2 0 1 6554.54 298.67
2 -3 -1 2194.98 106.39
-2 3 -1 2139.59 106.69
-1 -2 -1 2015.3 105.49
1 2 -1 2052.99 105.49
-3 1 -1 2330.77 106.09
-3 1 -1 2191.88 105.29
2 -3 -1 2171.48 107.69
-1 -2 -1 1971.1 105.09
3 -1 -1 2214.58 105.29
1 2 -1 1964.5 106.19
-2 3 1 2341.57 109.39
-1 -2 1 1969.5 108.79
3 -1 1 2343.67 107.99
2 -3 1 2036.1 110.39
-2 3 1 2185.68 110.69
1 2 1 2231.18 107.89
2 -3 1 2166.88 109.49
-1 -2 1 2033.1 108.49
1 2 1 2082.39 108.59
-3 1 1 2305.67 109.09
-3 1 1 2354.26 108.59
3 -1 1 2190.58 109.89
2 1 -1 2171.98 109.79
1 -3 -1 2045.8 110.69
-1 3 -1 2062.49 110.39
-2 -1 -1 2165.08 108.59
3 -2 -1 2383.66 109.89
-3 2 -1 2266.27 110.09
-2 -1 -1 2286.57 108.69
-1 3 -1 2243.08 111.99
2 1 -1 2160.38 109.19
1 -3 -1 2139.69 110.29
3 -2 -1 2286.17 111.39
-3 2 -1 2298.17 111.59
2 1 1 1855.41 96.89
-2 -1 1 1962.2 97.49
2 1 1 2079.49 96.99
1 -3 1 1983 99.19
1 -3 1 1801.12 99.39
-3 2 1 2067.29 98.29
3 -2 1 2076.19 98.09
-2 -1 1 1894.61 97.39
-3 2 1 1987.7 99.09
0 -3 -1 1677.23 84.89
-3 0 -1 1825.72 83.69
-3 3 -1 1642.84 87.09
3 0 -1 1579.34 84.99
-3 3 -1 1722.53 85.29
3 -3 -1 1812.52 85.19
0 -3 -1 1494.55 84.69
-3 0 -1 1697.43 83.39
3 -3 -1 1704.43 86.89
0 3 -1 1543.65 85.69
3 0 -1 1779.42 83.89
-3 3 1 1521.75 71.89
3 -3 1 1456.05 71.89
3 0 1 1528.75 70.09
0 3 1 1363.86 72.09
0 -3 1 1371.36 72.69
-3 3 1 1490.85 73.39
3 0 1 1485.55 71.09
-3 0 1 1418.46 70.69
0 -3 1 1261.07 71.79
0 3 1 1250.97 71.09
3 -3 1 1298.37 72.99
-3 0 1 1454.35 70.89
3 -4 -1 452.45 26.1
-3 4 -1 450.35 26.5
-1 -3 -1 422.06 25.1
1 3 -1 387.46 24.7
4 -1 -1 376.66 28.6
4 -1 -1 470.95 24.3
1 3 -1 450.55 26
-4 1 -1 465.95 24.3
-1 -3 -1 412.86 24.6
-3 4 -1 472.55 29.3
-4 1 -1 458.45 24.6
3 -4 1 308.57 22.6
-1 -3 1 358.06 20.8
-4 1 1 353.66 20.1
1 3 1 322.17 19.4
4 -1 1 360.46 19.2
-4 1 1 360.56 20.5
1 3 1 349.77 20.8
-3 4 1 360.26 21.4
-3 4 1 363.46 24.2
3 -4 1 333.97 21.4
4 -1 1 343.87 21.6
-1 -3 1 314.87 20.8
-2 4 -1 872.01 47.8
4 -2 -1 895.41 44.5
4 -2 -1 884.41 46.7
-4 2 -1 850.91 44.7
-2 -2 -1 826.22 43.4
2 2 -1 830.12 44.6
-2 4 -1 834.82 45.8
2 -4 -1 802.82 45.5
-4 2 -1 913.21 46
-2 -2 -1 816.02 43.5
2 2 -1 862.21 44.1
2 -4 -1 868.21 46.7
2 -4 1 779.52 45.9
-4 2 1 834.72 45.1
2 2 1 869.81 42.4
2 -4 1 827.32 45.2
-2 4 1 879.51 47.2
-4 2 1 848.82 43.9
-2 4 1 840.92 44.7
-2 -2 1 772.82 43
4 -2 1 893.81 43.4
2 2 1 819.12 43.3
-2 -2 1 826.92 43.4
-3 -1 -1 258.67 14.5
-4 3 -1 248.68 16.6
-4 3 -1 252.17 18.5
-1 4 -1 239.08 16.6
4 -3 -1 262.87 16.4
-3 -1 -1 246.78 14.3
1 -4 -1 248.28 16.9
4 -3 -1 256.27 19.5
3 1 -1 251.97 15.5
-1 4 -1 245.48 18.6
3 1 -1 247.48 14.9
1 -4 -1 235.78 17
-3 -1 1 262.17 15.9
4 -3 1 290.97 17.4
1 -4 1 263.27 18.7
-4 3 1 270.27 17.3
1 -4 1 260.57 18.4
3 1 1 287.77 15.7
-4 3 1 280.27 19.3
3 1 1 263.07 15
-3 -1 1 253.07 16
-4 4 -1 99.29 11.1
-4 0 -1 85.79 8.2
0 -4 -1 88.69 9.9
4 0 -1 86.49 9.5
0 -4 -1 95.69 9.9
0 4 -1 65.69 12.1
-4 4 -1 92.99 14.7
4 0 -1 97.39 8.3
4 -4 -1 86.69 15
-4 0 -1 86.09 8.4
0 4 -1 124.09 12
4 -4 -1 101.89 10.9
0 4 1 204.28 15.1
4 0 1 197.28 13.4
4 -4 1 188.58 14.2
0 4 1 183.18 13.2
-4 0 1 170.38 12.4
4 -4 1 159.88 15.6
-4 0 1 176.08 12.6
0 -4 1 158.98 14.9
4 0 1 196.68 11.5
-4 4 1 176.58 16.8
-4 4 1 177.18 14.2
0 -4 1 157.08 13.8
-1 -4 -1 602.24 35.1
1 4 -1 662.93 36.7
1 4 -1 600.54 34.5
4 -5 -1 615.04 35.8
-5 1 -1 659.93 34
5 -1 -1 635.64 33.5
-4 5 -1 604.14 39.2
4 -5 -1 575.64 37.2
-5 1 -1 639.04 33.8
-1 -4 -1 558.84 34.3
-4 5 -1 629.54 36.4
5 -1 -1 621.74 38.9
-5 1 1 629.34 33.7
5 -1 1 582.74 35.1
5 -1 1 650.43 33.8
-1 -4 1 616.44 34.4
-4 5 1 611.64 35.1
4 -5 1 610.44 35.2
-4 5 1 634.14 38.2
1 4 1 600.14 33.1
-1 -4 1 571.94 34.7
1 4 1 587.04 37.4
-5 1 1 612.24 33.5
4 -5 1 544.25 36.8
-5 2 -1 1035.6 53.69
-3 5 -1 1001 54.79
2 3 -1 1062.99 54.09
-5 2 -1 1020.3 53.19
3 -5 -1 1005.3 55.79
-2 -3 -1 974.5 52.39
5 -2 -1 1066.69 52.59
3 -5 -1 1002.1 54.49
2 3 -1 1029.2 52.59
-3 5 -1 1020.3 58.09
-2 -3 -1 910.91 52.19
5 -2 1 1078.79 52.29
-3 5 1 1045.9 54.39
-2 -3 1 986.9 52.59
5 -2 1 989.4 55.79
3 -5 1 928.51 55.69
-5 2 1 926.41 54.99
3 -5 1 1036.1 54.79
-2 -3 1 997.1 52.99
-5 2 1 1015.1 53.59
-3 5 1 1083.19 57.49
2 3 1 1099.59 51.69
2 3 1 906.61 52.59
-5 3 -1 761.22 42.6
-3 -2 -1 750.42 40.4
5 -3 -1 826.42 42.3
-5 3 -1 799.92 44.3
3 2 -1 791.72 41.4
-3 -2 -1 783.82 40.5
3 2 -1 754.02 41.4
-2 5 -1 786.02 46
2 -5 -1 776.72 44.4
-2 5 -1 788.12 43.5
2 -5 -1 818.72 43.8
5 -3 -1 761.22 45.3
5 -3 1 870.31 44.3
-3 -2 1 805.52 43.4
3 2 1 812.12 43.4
3 2 1 843.22 42.6
-5 3 1 795.82 44.6
-5 3 1 877.11 46.1
-2 5 1 847.22 48.7
-3 -2 1 839.92 43.5
2 -5 1 864.81 46.5
2 -5 1 735.43 46.4
5 -3 1 862.91 48.2
-2 5 1 795.92 45
1 -5 -1 1773.52 98.09
-4 -1 -1 1861.81 95.19
-4 -1 -1 2067.49 95.59
5 -4 -1 2018 97.59
4 1 -1 1892.71 96.39
-5 4 -1 1851.51 97.79
-1 5 -1 1977.7 100.49
5 -4 -1 1904.71 100.99
-5 4 -1 1970.9 99.89
4 1 -1 1739.43 96.89
1 -5 -1 1935.81 98.39
5 -4 1 2447.66 111.79
4 1 1 2300.07 109.99
-1 5 1 1994.7 111.39
5 -4 1 2042 113.59
-4 -1 1 2213.08 109.99
1 -5 1 2110.19 114.09
-5 4 1 2398.76 113.99
-4 -1 1 2402.66 110.29
1 -5 1 1875.21 113.59
-5 4 1 2226.48 111.69
4 1 1 2144.09 108.99
0 -5 -1 2926.41 152.88
5 -5 -1 3161.68 153.08
-5 5 -1 2976 153.18
5 0 -1 3013.9 151.98
-5 0 -1 3184.18 150.58
0 5 -1 2979.1 154.68
5 0 -1 3181.58 150.58
-5 5 -1 3138.79 156.08
0 5 -1 3036.1 152.58
-5 0 -1 2943.21 150.38
0 -5 -1 2784.42 152.58
5 -5 1 3175.58 152.38
0 -5 1 2814.92 152.28
-5 0 1 3084.59 150.58
-5 0 1 2937.31 150.28
5 -5 1 2841.92 154.38
0 5 1 2964.3 151.38
0 -5 1 2874.51 153.38
5 0 1 3163.18 151.48
0 5 1 3139.29 153.68
5 0 1 3177.28 149.39
-5 5 1 3124.89 154.88
-5 5 1 2919.81 152.08
-6 1 -1 670.93 36.1
-5 6 -1 678.33 43.5
-1 -5 -1 648.24 37.5
-1 -5 -1 601.84 37.5
-5 6 -1 654.03 39.3
5 -6 -1 623.44 40.8
6 -1 -1 664.73 35.6
6 -1 -1 608.44 38.4
-6 1 -1 623.14 36
1 5 -1 726.43 40.1
5 -6 -1 643.74 38.7
1 5 -1 628.24 36.9
-5 6 1 616.44 40.3
-1 -5 1 609.84 36.4
-1 -5 1 627.74 36
5 -6 1 622.64 36.8
1 5 1 590.24 34.1
1 5 1 638.64 36.8
-5 6 1 597.74 36.7
5 -6 1 529.25 38.6
-6 1 1 576.64 34.2
-6 1 1 630.44 34.6
6 -1 1 613.74 33
6 -1 1 594.84 36.7
-2 -4 -1 861.71 49.5
-4 6 -1 926.21 52.29
-2 -4 -1 948.81 49.8
2 4 -1 976.4 49.8
6 -2 -1 942.51 49.2
-6 2 -1 935.11 50.09
4 -6 -1 866.81 53.29
4 -6 -1 879.91 51.69
2 4 -1 1028.5 51.99
-4 6 -1 975.8 56.79
6 -2 -1 888.81 53.29
-6 2 -1 914.91 49.9
4 -6 1 903.91 52.29
4 -6 1 932.61 54.29
-6 2 1 957.1 50.79
-6 2 1 944.71 50.49
2 4 1 945.31 49
2 4 1 905.01 50.69
-2 -4 1 903.21 50.59
6 -2 1 887.11 53.29
-4 6 1 1039.9 56.49
-4 6 1 947.41 52.19
-2 -4 1 925.91 50.69
6 -2 1 951.5 49.1
3 3 -1 1127.09 57.39
-3 6 -1 1090.49 60.19
3 3 -1 1111.59 58.89
6 -3 -1 1114.69 57.89
-6 3 -1 1121.49 59.59
-6 3 -1 1085.69 58.69
3 -6 -1 1092.79 61.39
-3 -3 -1 1071.09 56.89
-3 -3 -1 1068.29 56.79
3 -6 -1 1139.29 60.39
6 -3 -1 1070.09 61.79
-3 6 -1 1108.69 64.49
3 -6 1 1065.49 57.79
-3 6 1 1133.59 64.79
-3 -3 1 971 54.49
6 -3 1 1052.09 54.69
-3 -3 1 980.2 54.39
-6 3 1 1007.8 55.69
-6 3 1 1049.09 56.69
3 3 1 1150.88 55.29
3 -6 1 940.71 66.59
3 3 1 1086.49 53.49
-3 6 1 989.6 56.39
6 -4 -1 1231.98 69.79
-4 -2 -1 1167.28 62.99
-2 6 -1 1193.38 66.09
4 2 -1 1266.07 64.09
-6 4 -1 1280.47 67.69
2 -6 -1 1250.37 67.49
4 2 -1 1192.08 63.79
6 -4 -1 1306.87 67.09
2 -6 -1 1301.47 67.09
-4 -2 -1 1248.08 63.09
-6 4 -1 1166.48 65.59
4 2 1 1196.78 59.69
6 -4 1 1220.28 61.59
2 -6 1 1019.8 63.59
-4 -2 1 1143.79 60.19
2 -6 1 1170.08 63.89
-4 -2 1 1104.89 60.19
-6 4 1 1208.78 63.79
-6 4 1 1116.39 61.99
-2 6 1 1247.68 66.89
4 2 1 1195.98 59.99
6 -5 -1 4503.75 216.48
-6 5 -1 4239.38 213.68
-5 -1 -1 4283.97 208.58
-5 -1 -1 4117.39 208.48
1 -6 -1 3962 211.78
-1 6 -1 4507.15 215.08
5 1 -1 4206.08 209.88
5 1 -1 3992.8 208.58
6 -5 -1 4366.96 211.18
-6 5 -1 4031 211.48
1 -6 -1 4288.47 212.18
-6 5 1 3290.37 175.88
5 1 1 3426.06 170.58
1 -6 1 3218.88 174.98
6 -5 1 3413.06 176.58
-5 -1 1 3742.23 172.08
6 -5 1 3210.68 176.28
-5 -1 1 3486.55 171.68
1 -6 1 3339.77 180.78
5 1 1 3671.73 172.18
-6 5 1 3686.23 176.38
-6 6 -1 2027.1 107.09
-6 0 -1 1998.8 103.59
0 6 -1 2102.79 109.09
6 0 -1 2068.49 103.29
6 -6 -1 1992.2 109.19
6 -6 -1 2156.28 106.79
0 -6 -1 1932.81 106.29
0 -6 -1 2016.3 106.49
-6 0 -1 2092.09 103.49
6 0 -1 1995.7 105.59
-6 6 -1 2186.98 110.39
0 6 -1 2006.6 105.39
6 -6 1 1963.2 107.79
-6 6 1 2184.58 108.49
0 6 1 2066.59 103.49
6 -6 1 1830.62 108.79
-6 6 1 1970.3 104.89
0 -6 1 1976.2 105.09
-6 0 1 2000.8 102.49
0 -6 1 2019.9 106.09
-6 0 1 2063.19 102.49
6 0 1 2131.39 103.99
6 0 1 2043.8 100.99
0 6 1 1905.91 106.29
6 -7 -1 115.79 17.4
-7 1 -1 128.59 13.8
-1 -6 -1 139.79 15.4
1 6 -1 138.39 18
-1 -6 -1 118.59 15.3
-6 7 -1 126.59 21.5
-6 7 -1 128.49 23.1
7 -1 -1 121.69 17.3
1 6 -1 146.69 15.1
7 -1 -1 99.39 12.3
-7 1 -1 119.49 13.4
6 -7 -1 108.49 22.4
7 -1 1 90.19 16.2
-7 1 1 94.99 13
7 -1 1 83.19 10.3
1 6 1 101.99 14.4
-6 7 1 102.89 18.3
6 -7 1 70.89 12.9
1 6 1 74.39 12.2
6 -7 1 109.09 15.8
-6 7 1 57.49 11.2
-7 1 1 111.89 13.4
-1 -6 1 86.69 14.3
-1 -6 1 85.79 15.1
-7 2 -1 1069.79 58.49
-7 2 -1 1057.89 57.99
7 -2 -1 1064.79 57.09
2 5 -1 1073.09 57.89
-2 -5 -1 1046 58.19
-5 7 -1 1135.69 61.69
7 -2 -1 1080.59 61.69
5 -7 -1 1039.3 60.39
5 -7 -1 1024.2 62.59
-2 -5 -1 1138.29 58.79
-5 7 -1 1181.58 68.79
7 -2 1 926.51 57.29
-5 7 1 1015 56.69
-7 2 1 991.7 54.39
5 -7 1 949.71 56.49
-7 2 1 988.1 54.49
2 5 1 982.1 52.79
-2 -5 1 999.4 55.09
7 -2 1 989.6 52.49
2 5 1 1031.9 55.49
-2 -5 1 1067.39 55.29
-5 7 1 1020.5 60.59
4 -7 -1 2920.31 159.98
3 4 -1 3624.74 158.38
3 4 -1 3118.99 155.58
-7 3 -1 3005.9 156.88
-4 7 -1 3209.18 163.88
-4 7 -1 3030.8 158.68
-7 3 -1 3186.18 157.28
-3 -4 -1 3055.59 155.88
7 -3 -1 3054.09 155.68
4 -7 -1 3075.79 158.88
-3 -4 -1 2947.31 155.48
-4 7 1 2889.51 146.29
-7 3 1 2670.53 140.49
-3 -4 1 2697.23 139.89
4 -7 1 2853.91 142.99
-7 3 1 2775.52 141.79
3 4 1 2881.71 140.39
-3 -4 1 2690.93 139.89
7 -3 1 2749.43 139.09
4 -7 1 2652.73 144.09
3 4 1 2915.31 138.29
-4 7 1 2728.23 141.89
7 -4 -1 1671.03 84.29
7 -4 -1 1607.34 89.79
-3 7 -1 1556.04 85.89
-7 4 -1 1543.25 85.19
4 3 -1 1629.04 84.39
4 3 -1 1655.33 83.19
3 -7 -1 1698.83 87.09
3 -7 -1 1584.74 87.49
-4 -3 -1 1606.44 82.49
-4 -3 -1 1551.44 82.39
-7 4 -1 1716.13 86.49
3 -7 1 1592.64 90.99
-3 7 1 1740.53 93.69
3 -7 1 1728.03 90.49
4 3 1 1699.73 85.29
-7 4 1 1723.33 89.59
-3 7 1 1591.24 88.59
-4 -3 1 1615.74 86.29
4 3 1 1897.71 87.09
7 -4 1 1720.93 87.19
-4 -3 1 1655.83 86.59
-7 4 1 1585.94 88.09
2 -7 -1 1572.94 83.99
-7 5 -1 1442.46 82.19
5 2 -1 1522.25 79.49
7 -5 -1 1623.84 81.79
5 2 -1 1688.53 80.49
7 -5 -1 1541.75 87.39
-5 -2 -1 1515.25 78.99
-7 5 -1 1514.65 84.29
-2 7 -1 1451.95 81.99
-5 -2 -1 1511.85 78.89
2 -7 -1 1649.83 83.99
5 2 1 1421.16 71.59
2 -7 1 1432.56 76.59
-7 5 1 1338.27 74.49
7 -5 1 1212.48 76.79
-5 -2 1 1420.96 72.19
2 -7 1 1341.77 76.49
-7 5 1 1459.85 76.69
-2 7 1 1452.05 79.59
7 -5 1 1438.16 73.89
5 2 1 1441.46 71.59
-5 -2 1 1323.27 71.99
1 -7 -1 1711.63 92.99
-1 7 -1 1889.31 96.79
-7 6 -1 1753.42 95.59
6 1 -1 1671.83 88.59
1 -7 -1 1859.51 93.69
7 -6 -1 1793.52 92.09
-6 -1 -1 1755.82 88.89
6 1 -1 1714.63 90.49
-6 -1 -1 1649.83 88.69
-7 6 -1 1656.13 92.49
1 -7 1 1554.94 86.39
-1 7 1 1506.35 83.19
-6 -1 1 1568.34 81.69
-7 6 1 1626.94 87.29
-7 6 1 1541.45 84.49
-6 -1 1 1568.54 81.69
7 -6 1 1616.64 83.99
6 1 1 1699.83 82.59
6 1 1 1586.74 80.29
7 -6 1 1574.84 88.09
1 -7 1 1398.06 93.29
-1 7 1 1700.53 88.79
7 -7 -1 798.32 55.09
0 -7 -1 908.91 52.99
-7 0 -1 851.81 49
0 -7 -1 908.81 52.69
7 0 -1 853.81 48
-7 0 -1 933.41 48.8
7 0 -1 910.01 51.89
0 7 -1 968.8 55.99
7 -7 -1 915.71 52.69
0 7 -1 941.81 51.09
-7 7 -1 817.02 52.89
-7 7 -1 966.8 57.09
-7 7 1 990.4 59.79
7 -7 1 959.9 59.39
7 0 1 953.8 50.49
0 -7 1 998.2 56.19
0 7 1 942.91 57.49
7 -7 1 941.61 55.29
0 -7 1 961.2 56.19
7 0 1 962.2 54.29
-7 0 1 954.6 52.59
-7 7 1 892.71 55.19
0 7 1 1019.8 53.39
-7 0 1 950.4 52.29
8 -1 -1 317.87 27.1
1 7 -1 340.17 24
-8 1 -1 280.17 23.2
-1 -7 -1 323.07 25.8
-7 8 -1 349.87 33.4
-1 -7 -1 310.67 25
7 -8 -1 287.87 26.5
-8 1 -1 298.37 22.3
-7 8 -1 305.67 28
7 -8 -1 295.27 30.3
8 -1 1 285.27 25.9
7 -8 1 249.58 28.1
-8 1 1 237.38 21.3
1 7 1 273.17 20.5
8 -1 1 208.68 23.6
-1 -7 1 277.57 23.8
-7 8 1 245.38 24.9
-8 1 1 252.27 20.7
-7 8 1 240.58 29.5
-1 -7 1 293.57 24.1
7 -8 1 290.27 25.1
-8 2 -1 676.53 41.1
-6 8 -1 758.02 50.49
6 -8 -1 641.44 46.2
8 -2 -1 633.84 39
2 6 -1 705.93 40.4
-8 2 -1 703.83 40.3
2 6 -1 837.62 45.1
6 -8 -1 631.84 43.3
8 -2 -1 685.03 45.4
-2 -6 -1 726.13 41.8
-2 -6 -1 664.33 40.7
-6 8 -1 631.64 46
-8 2 1 766.82 44.7
-2 -6 1 779.02 46.1
-6 8 1 771.32 47.9
-2 -6 1 843.42 46.6
-8 2 1 760.02 45.5
8 -2 1 776.52 42.9
-6 8 1 850.31 53.29
2 6 1 796.42 43.4
6 -8 1 718.53 50.59
8 -2 1 762.32 49.2
2 6 1 821.42 46.5
6 -8 1 683.03 50.99
-5 8 -1 1787.82 100.99
5 -8 -1 1878.01 101.59
8 -3 -1 1904.71 103.69
-3 -5 -1 1861.11 97.89
8 -3 -1 1868.41 97.39
-3 -5 -1 1975.2 98.49
5 -8 -1 1839.52 103.09
-5 8 -1 2011.6 107.69
3 5 -1 1886.61 97.29
-8 3 -1 1934.91 99.09
-8 3 -1 1910.61 99.39
-5 8 1 2186.68 117.49
-5 8 1 2185.78 112.99
-8 3 1 2103.09 110.89
3 5 1 2100.19 110.59
3 5 1 2229.48 108.29
-3 -5 1 1988.3 110.29
5 -8 1 2181.78 113.69
-3 -5 1 2243.68 110.89
5 -8 1 2162.48 115.69
8 -3 1 2217.68 109.09
-8 3 1 1990.7 110.79
8 -3 1 2099.09 114.89
-8 4 -1 1507.95 93.39
-8 4 -1 1638.74 88.49
8 -4 -1 1666.43 93.49
8 -4 -1 1641.34 86.69
-4 -4 -1 1636.44 85.79
4 4 -1 1658.63 85.89
-4 8 -1 1789.42 96.59
4 -8 -1 1711.33 90.59
-4 -4 -1 1701.53 86.39
-4 8 -1 1623.54 89.59
4 -8 -1 1743.03 92.09
8 -4 1 1571.84 85.09
-8 4 1 1598.44 87.09
-4 8 1 1621.24 87.99
-8 4 1 1608.04 87.49
4 -8 1 1657.83 89.49
-4 -4 1 1553.34 85.29
-4 -4 1 1571.54 85.29
4 -8 1 1623.44 90.99
4 4 1 1707.03 83.59
4 4 1 1887.71 85.99
-4 8 1 1609.44 92.99
5 3 -1 43.6 8.5
3 -8 -1 44.5 12.1
-3 8 -1 38.5 10.2
-8 5 -1 17.2 10
-3 8 -1 55.49 20.9
8 -5 -1 26.1 8.1
5 3 -1 38.1 8.3
3 -8 -1 39.3 10.9
-5 -3 -1 31.3 7
8 -5 -1 29.3 16.4
-5 -3 -1 24.6 6.8
-8 5 -1 64.89 12.2
-8 5 1 48.2 11.3
-8 5 1 68.49 13.4
3 -8 1 52.99 12
-3 8 1 55.39 10.3
8 -5 1 46 8.8
5 3 1 68.59 10.5
8 -5 1 49.7 12.9
-3 8 1 87.79 18.9
-5 -3 1 52.59 8.8
-5 -3 1 72.69 12.1
5 3 1 75.69 11.3
3 -8 1 58.69 12.5
-6 -2 -1 520.45 30.7
2 -8 -1 530.15 36.4
8 -6 -1 548.85 34.3
6 2 -1 497.25 30.6
-8 6 -1 484.25 37.4
-6 -2 -1 521.05 30.8
6 2 -1 574.64 32.5
-8 6 -1 464.65 35.1
2 -8 -1 527.65 40.2
2 -8 1 506.25 35.4
8 -6 1 449.95 36.5
8 -6 1 495.45 32.6
2 -8 1 484.95 36
-8 6 1 516.25 36
-8 6 1 440.06 33.4
-6 -2 1 496.35 30.3
6 2 1 546.15 30.2
6 2 1 523.75 29.2
-2 8 1 468.75 39
-2 8 1 415.46 32.3
-6 -2 1 518.55 30.4
1 -8 -1 747.13 46.6
-7 -1 -1 752.82 41.7
7 1 -1 759.82 44.2
8 -7 -1 705.13 49.5
8 -7 -1 724.13 45.2
-8 7 -1 718.33 46.6
-7 -1 -1 712.13 41.8
-8 7 -1 742.23 49.3
1 -8 -1 794.52 47.3
-7 -1 1 674.23 40.1
-8 7 1 697.03 44.1
7 1 1 727.33 41.1
8 -7 1 689.33 47.9
-1 8 1 690.73 41.4
8 -7 1 697.03 42.9
1 -8 1 622.94 45.6
1 -8 1 725.03 46.2
7 1 1 685.13 37.9
-8 7 1 702.63 46.8
-7 -1 1 697.23 40.1
0 8 -1 201.28 19.7
-8 0 -1 196.28 17.5
-8 8 -1 174.18 23.7
-8 0 -1 196.88 22.3
0 -8 -1 207.38 22.1
8 -8 -1 186.38 22.5
0 -8 -1 196.78 22.4
8 0 -1 197.68 21.8
8 -8 -1 190.48 26.6
0 -8 1 241.58 25.2
0 -8 1 284.87 25.4
8 0 1 249.78 23.1
0 8 1 273.57 21.5
-8 0 1 254.87 20.5
8 -8 1 252.87 24.8
8 -8 1 237.68 29.2
-8 0 1 227.88 21.3
-8 8 1 264.97 25.3
8 0 1 225.68 17.4
-8 8 1 266.67 30
-9 1 -1 127.19 16.9
8 -9 -1 154.08 22.9
-8 9 -1 205.58 27.7
-8 9 -1 154.98 24.5
8 -9 -1 157.38 27.3
9 -1 -1 148.09 22.9
-1 -8 -1 167.48 21.8
1 8 -1 163.58 18.8
-9 1 -1 145.99 19
-1 -8 -1 149.99 20.3
8 -9 1 124.49 22.3
-1 -8 1 166.28 22.1
8 -9 1 199.98 28.9
-8 9 1 167.68 23.7
-9 1 1 155.08 20.1
1 8 1 198.78 18.7
-1 -8 1 216.28 23.3
-8 9 1 177.08 28.6
9 -1 1 190.28 23.5
-9 1 1 155.18 18.3
-2 -7 -1 6.7 8.2
9 -2 -1 6.8 5.3
7 -9 -1 26.6 12.7
-9 2 -1 17.6 11.8
2 7 -1 14.6 8.3
7 -9 -1 11.3 11.1
-7 9 -1 10.8 10
-2 -7 -1 26.2 10
9 -2 -1 35.2 13.8
-9 2 -1 18.6 8.6
-7 9 -1 13 17.5
2 7 1 22 12.6
-2 -7 1 8.2 10.3
-9 2 1 19 8.7
2 7 1 0.6 6.5
-7 9 1 21.9 11.5
7 -9 1 12.4 11.1
-9 2 1 10 11.5
9 -2 1 -7.2 15.1
-7 9 1 21.5 15
-2 -7 1 11.1 9.5
7 -9 1 16.5 12.6
-3 -6 -1 628.34 38.2
9 -3 -1 589.34 36.2
9 -3 -1 652.63 44.9
3 6 -1 588.34 36
6 -9 -1 594.84 41.8
-3 -6 -1 613.54 37.7
-9 3 -1 617.64 39.3
-6 9 -1 622.84 48.5
6 -9 -1 572.94 43.8
-6 9 -1 586.14 41.4
-9 3 -1 595.44 37.8
-9 3 1 497.75 35.8
6 -9 1 568.64 41.9
-6 9 1 573.14 44.1
3 6 1 570.74 32.8
-3 -6 1 629.24 36.3
-9 3 1 499.85 35
-3 -6 1 555.84 35.8
-6 9 1 536.85 38
3 6 1 497.45 34.4
6 -9 1 477.45 51.09
-9 4 -1 1013.7 59.19
-5 9 -1 1136.59 69.09
-9 4 -1 1052.09 58.69
5 -9 -1 1049.2 61.59
-5 9 -1 1050.99 60.79
-4 -5 -1 1055.39 56.79
9 -4 -1 899.31 60.49
5 -9 -1 973.7 62.49
4 5 -1 1020.2 55.89
-4 -5 -1 1007.1 56.29
-4 -5 1 854.61 50.49
-9 4 1 917.01 52.19
-9 4 1 845.52 51.89
-5 9 1 851.61 52.89
5 -9 1 863.11 56.59
9 -4 1 788.42 48.8
5 -9 1 972.8 55.39
4 5 1 948.31 50.19
-4 -5 1 843.42 50.09
-5 9 1 926.91 59.69
5 4 -1 374.36 25.7
-9 5 -1 371.06 30.1
-4 9 -1 358.96 38.9
-9 5 -1 414.26 30.8
4 -9 -1 438.76 32.7
9 -5 -1 372.86 36.8
4 -9 -1 396.76 33.4
-5 -4 -1 356.46 25.6
-5 -4 -1 400.26 26.4
5 4 -1 442.96 27.8
9 -5 -1 365.66 27.7
-4 9 -1 370.76 30.1
4 -9 1 298.87 27.1
5 4 1 266.37 18.4
-5 -4 1 252.87 21.3
-5 -4 1 255.57 21.3
-9 5 1 300.17 25.5
4 -9 1 248.38 28.1
5 4 1 296.67 23.7
-9 5 1 259.57 25.1
9 -5 1 232.18 28.7
-4 9 1 241.98 31.7
-4 9 1 226.98 23.6
-6 -3 -1 893.01 49.4
-6 -3 -1 892.71 49.4
6 3 -1 917.41 50.79
3 -9 -1 954.2 56.49
-9 6 -1 907.41 54.99
9 -6 -1 871.71 51.99
3 -9 -1 949.31 55.99
-3 9 -1 835.82 53.09
6 3 -1 914.51 49.99
-9 6 -1 845.42 53.99
3 -9 1 885.71 54.59
-9 6 1 882.51 52.79
-9 6 1 795.52 50.99
9 -6 1 793.72 48.8
-6 -3 1 785.72 47.2
9 -6 1 671.03 52.99
-3 9 1 887.51 61.19
6 3 1 869.71 45.7
6 3 1 986.1 47
-6 -3 1 807.62 47.5
3 -9 1 842.22 52.89
2 -9 -1 1055.79 75.89
-9 7 -1 1071.69 64.59
-9 7 -1 1133.29 66.79
-7 -2 -1 1080.19 59.49
9 -7 -1 1081.89 62.79
2 -9 -1 1194.08 66.09
7 2 -1 1174.28 60.99
7 2 -1 1068.09 58.89
9 -7 -1 992.2 67.59
-7 -2 -1 1109.09 59.19
-2 9 1 997.1 60.09
-9 7 1 1039.1 61.99
9 -7 1 983.7 65.49
2 -9 1 1135.39 63.79
-7 -2 1 1026.7 58.19
7 2 1 1049.59 57.09
-2 9 1 1039.2 66.69
-9 7 1 1043.1 63.99
9 -7 1 1046.8 60.39
2 -9 1 1118.69 65.49
-7 -2 1 1090.29 58.09
7 2 1 1098.49 56.79
-8 -1 -1 470.15 29.7
-9 8 -1 432.66 35.9
-9 8 -1 469.35 39.1
1 -9 -1 492.05 37.2
8 1 -1 497.15 32.7
-8 -1 -1 443.36 30.1
9 -8 -1 395.96 33.8
9 -8 -1 417.36 38.9
-1 9 -1 458.35 32.1
1 -9 -1 482.05 35.2
-9 8 1 367.86 33.9
1 -9 1 427.86 34.3
-8 -1 1 363.26 26
-8 -1 1 355.16 26.5
1 -9 1 386.86 31.8
9 -8 1 337.27 35
-1 9 1 379.26 27.1
-9 8 1 318.77 30.4
9 -8 1 308.37 28.7
8 1 1 356.46 26.3
0 9 -1 70.79 12.2
0 -9 -1 53.69 13.9
0 -9 -1 49.99 14
-9 9 -1 78.29 20.3
-9 0 -1 67.29 12
9 0 -1 81.39 15.4
-9 0 -1 43.6 10
9 -9 -1 53.39 18.4
-9 9 -1 51.49 14.9
9 -9 -1 54.29 13.3
-9 9 1 60.69 17.5
-9 0 1 51.49 11.4
9 -9 1 24.9 16.1
-9 0 1 46.9 10.4
0 9 1 50.99 10.5
0 -9 1 36.6 12.4
9 -9 1 36.9 12.6
9 0 1 27 11.4
-9 9 1 33.4 13.6
0 -9 1 65.89 14.1
9 -10 -1 284.27 35.6
-10 1 -1 302.07 24.7
10 -1 -1 348.27 31.2
9 -10 -1 277.37 31.2
-10 1 -1 299.77 27.4
-9 10 -1 347.87 38.8
-9 10 -1 261.37 32
1 9 -1 345.57 26.3
-1 -9 -1 286.97 27.8
-1 -9 -1 340.17 30.3
-1 -9 1 346.87 31.6
-9 10 1 347.67 38
-10 1 1 284.57 25.3
-9 10 1 294.77 32.2
-1 -9 1 367.26 29.8
9 -10 1 296.47 36
9 -10 1 314.97 37.2
-10 1 1 317.47 28.4
1 9 1 335.47 25.2
8 -10 -1 342.27 34.1
-2 -8 -1 426.96 32.4
-8 10 -1 422.56 41.3
8 -10 -1 354.26 37.6
-8 10 -1 394.46 35
-10 2 -1 376.16 31.1
2 8 -1 402.86 28.6
10 -2 -1 400.76 35.5
-10 2 -1 396.36 28.8
-2 -8 -1 413.96 30.7
2 8 1 404.96 27.2
-10 2 1 349.87 28.6
8 -10 1 378.76 34.4
-2 -8 1 430.16 31.8
-2 -8 1 439.56 32.8
8 -10 1 396.46 39.3
-8 10 1 373.26 33.7
-8 10 1 387.06 40.2
-10 2 1 340.27 30.6
10 -3 -1 24.1 16.2
-7 10 -1 23.9 19.3
-7 10 -1 22.1 14.2
-10 3 -1 20.1 11.1
-3 -7 -1 42.3 11.6
3 7 -1 19.2 8.6
-10 3 -1 34.4 10.7
7 -10 -1 30.8 14.5
7 -10 -1 49.99 14.1
-3 -7 -1 23.4 10.2
3 7 1 20.1 8.2
7 -10 1 0.6 13.6
-7 10 1 24.4 17.4
-3 -7 1 16.7 10.2
-10 3 1 1.7 8.9
7 -10 1 9.4 12.8
-3 -7 1 11.5 10.2
-10 3 1 13.5 11.2
-7 10 1 24 13
10 -4 -1 112.49 21.6
6 -10 -1 110.09 17.9
-10 4 -1 80.09 14.5
-4 -6 -1 115.39 16.7
-6 10 -1 183.68 31.4
6 -10 -1 103.99 18.6
-6 10 -1 81.89 15.4
-4 -6 -1 83.49 13
-10 4 -1 98.69 15.3
-6 10 1 204.88 33.7
-4 -6 1 145.19 19.6
6 -10 1 163.78 27.2
-4 -6 1 183.28 20.4
4 6 1 164.88 16.1
-6 10 1 142.99 23.1
-10 4 1 148.19 24.5
-10 4 1 161.28 22.4
6 -10 1 159.08 27.5
5 -10 -1 471.45 37
-10 5 -1 450.45 33
-5 -5 -1 425.36 29.4
-10 5 -1 448.36 34.7
5 -10 -1 462.25 38.3
-5 10 -1 455.45 35.1
-5 10 -1 383.46 41.8
5 5 -1 424.96 28.5
-5 -5 -1 487.25 33.1
10 -5 -1 385.56 30.2
-5 -5 1 492.95 34
5 -10 1 533.45 42.2
5 -10 1 540.95 40.2
5 5 1 520.85 29.9
-5 10 1 485.85 37.4
-10 5 1 490.45 43.3
-5 -5 1 534.45 35.1
-10 5 1 512.15 37.2
-5 10 1 524.35 45.1
-4 10 -1 775.82 50.09
10 -6 -1 742.33 47.4
4 -10 -1 810.72 52.49
4 -10 -1 810.52 53.29
-10 6 -1 793.72 53.89
-6 -4 -1 815.62 49.1
-6 -4 -1 747.43 45.1
-10 6 -1 839.32 50.79
-4 10 -1 761.12 60.19
6 4 -1 785.42 44.7
6 4 1 923.91 46.6
4 -10 1 950.5 56.89
4 -10 1 871.11 58.09
10 -6 1 772.12 55.99
-4 10 1 880.01 60.49
-10 6 1 856.51 54.49
-6 -4 1 869.51 50.39
-4 10 1 865.91 53.29
-10 6 1 839.72 54.19
10 -6 1 849.91 51.19
-6 -4 1 865.91 50.19
-10 7 -1 1417.66 81.79
-7 -3 -1 1404.96 75.29
3 -10 -1 1543.15 82.79
10 -7 -1 1364.86 85.29
7 3 -1 1481.95 75.89
-7 -3 -1 1359.26 75.19
-3 10 -1 1421.66 79.59
10 -7 -1 1350.06 78.09
-10 7 -1 1343.97 80.79
3 -10 -1 1492.75 83.09
-7 -3 1 1295.27 72.39
3 -10 1 1389.96 94.59
10 -7 1 1210.58 80.29
-7 -3 1 1309.77 72.49
-10 7 1 1324.17 77.09
-10 7 1 1422.76 78.99
7 3 1 1405.46 69.89
10 -7 1 1309.37 74.49
3 -10 1 1424.16 79.19
-8 -2 -1 655.83 40.6
-10 8 -1 658.23 48.1
-8 -2 -1 686.63 40.7
10 -8 -1 621.74 50.29
10 -8 -1 624.24 44.1
8 2 -1 735.73 42.1
2 -10 -1 741.93 48.9
-2 10 -1 613.24 46.9
2 -10 -1 714.23 47.7
-10 8 -1 677.33 47.7
-10 8 1 574.34 43.6
10 -8 1 595.54 48.6
-2 10 1 642.94 40.6
-10 8 1 492.05 53.99
10 -8 1 581.84 41.2
2 -10 1 682.73 45.6
8 2 1 585.24 36.8
2 -10 1 747.23 47.8
-8 -2 1 609.04 38.8
-8 -2 1 656.43 38.9
10 -9 -1 35.9 12.6
-10 9 -1 44.6 15.9
-9 -1 -1 31.6 10.7
1 -10 -1 44.7 13.7
-1 10 -1 47.6 11.5
-10 9 -1 33.8 18.4
9 1 -1 47 12.6
1 -10 -1 66.89 16
10 -9 -1 46.2 18.2
-1 10 1 41.8 11
-10 9 1 25.3 14.9
1 -10 1 51.09 15.3
-10 9 1 36.3 16.8
10 -9 1 27.7 15.6
1 -10 1 54.99 15.1
-9 -1 1 38.7 10.4
10 -9 1 20 11.6
-9 -1 1 25 10.8
-10 10 -1 259.87 35.2
10 0 -1 244.98 26.2
0 10 -1 241.38 24.4
-10 0 -1 304.17 30.3
-10 10 -1 225.88 31.6
0 -10 -1 254.17 28.8
-10 0 -1 262.57 25.2
0 -10 -1 246.88 28
10 -10 -1 269.97 36
10 -10 -1 247.28 29.5
0 -10 1 225.38 27.5
10 -10 1 199.88 28
10 -10 1 213.68 34.2
-10 0 1 207.18 22.1
-10 10 1 191.68 28.7
0 10 1 245.58 22.5
0 -10 1 265.77 28.7
-10 0 1 199.28 23.9
-10 10 1 279.17 32.5
-10 11 -1 333.37 56.69
-10 11 -1 326.87 36.1
-11 1 -1 326.57 27.2
10 -11 -1 298.97 33.7
11 -1 -1 275.77 31.2
-1 -10 -1 400.66 34.6
-1 -10 -1 360.56 31.4
10 -11 -1 372.96 42.2
1 10 -1 369.36 30.8
-11 1 -1 359.66 31.2
-10 11 1 289.67 34.8
-10 11 1 293.67 39.4
-11 1 1 332.17 31.5
-11 1 1 301.97 28.1
10 -11 1 346.47 41.7
1 10 1 378.56 27
-1 -10 1 386.16 34.7
-1 -10 1 411.16 33.2
2 9 -1 434.86 30.6
-2 -9 -1 457.65 34
-9 11 -1 396.56 44.9
-9 11 -1 400.96 38.3
11 -2 -1 357.66 36.6
9 -11 -1 451.95 43.7
-11 2 -1 443.26 34.9
9 -11 -1 391.56 38.2
-2 -9 -1 485.15 36.5
-11 2 -1 408.16 31.1
2 9 1 463.05 30.7
-9 11 1 424.16 38.3
-2 -9 1 501.75 36.8
9 -11 1 460.25 42.2
9 -11 1 465.55 44.5
-11 2 1 432.26 36.1
-2 -9 1 512.15 38.1
-11 2 1 389.96 32
-9 11 1 461.45 45.5
-11 3 -1 303.27 27.2
3 8 -1 316.87 25.5
-3 -8 -1 343.47 28.6
-11 3 -1 305.87 30.6
8 -11 -1 338.17 37.6
8 -11 -1 327.37 33.6
-3 -8 -1 338.07 29.7
11 -3 -1 265.37 33.6
-8 11 -1 331.97 34.3
-8 11 -1 356.16 41.6
-3 -8 1 392.26 32.1
11 -3 1 396.96 33.3
8 -11 1 354.26 39.3
-11 3 1 339.37 29.6
-8 11 1 392.56 41.3
-8 11 1 297.97 33.5
8 -11 1 347.67 35.7
-11 3 1 371.36 32.8
-3 -8 1 459.25 33.4
3 8 1 355.06 25.4
-11 4 -1 127.29 19.1
7 -11 -1 154.18 27.6
4 7 -1 117.29 17.8
-11 4 -1 136.09 20.2
7 -11 -1 171.68 30
-4 -7 -1 130.89 20.7
-4 -7 -1 149.29 20.2
-7 11 -1 135.19 21.2
-7 11 -1 163.18 27.5
-7 11 1 121.19 24
7 -11 1 164.98 27.1
-11 4 1 124.39 20.4
-4 -7 1 141.69 21.4
7 -11 1 78.79 18.3
-7 11 1 99.09 19.1
11 -4 1 128.49 20
-11 4 1 144.49 20
-4 -7 1 124.49 21
-5 -6 -1 79.49 13.4
-5 -6 -1 75.79 12.5
-11 5 -1 77.79 16.1
-6 11 -1 47.4 32.4
6 -11 -1 93.89 18.5
-11 5 -1 65.29 15.6
-6 11 -1 78.49 15.9
5 6 -1 67.29 11
-6 11 1 33.5 12.8
-11 5 1 63.29 15.7
-11 5 1 60.09 14.1
-5 -6 1 72.29 13
11 -5 1 39.1 14.5
-5 -6 1 46.4 12.2
6 -11 1 64.59 16.7
5 6 1 61.39 8.3
6 -11 1 38.8 15.2
-11 6 -1 263.07 27.5
6 5 -1 267.87 21.1
-6 -5 -1 306.17 24.8
-6 -5 -1 246.88 23.2
5 -11 -1 222.78 31.9
-5 11 -1 255.67 29
5 -11 -1 287.77 31.4
-11 6 -1 239.68 29.6
-6 -5 1 254.27 24
5 -11 1 273.47 33.5
-6 -5 1 246.98 24.9
-11 6 1 264.77 27.9
5 -11 1 280.47 31
-5 11 1 248.28 27.1
11 -6 1 196.08 30.5
-11 6 1 219.18 28.8
4 -11 -1 335.27 32.9
-7 -4 -1 313.57 25.3
-11 7 -1 304.77 30.9
7 4 -1 304.37 22.9
4 -11 -1 311.47 34.5
-11 7 -1 279.77 32
11 -7 -1 354.56 36
-7 -4 -1 260.67 24
-4 11 -1 275.57 29.3
4 -11 1 308.77 34.6
-7 -4 1 304.37 26
-11 7 1 265.47 30.1
-7 -4 1 292.27 25.2
4 -11 1 313.77 32.5
-11 7 1 274.77 31.2
11 -7 1 245.38 33.4
-4 11 1 284.97 26.9
-11 8 -1 241.68 31.3
3 -11 -1 322.97 34.6
-8 -3 -1 288.87 24.3
-11 8 -1 290.77 32.3
3 -11 -1 333.47 32.7
8 3 -1 292.67 23.3
-8 -3 -1 284.67 24.4
11 -8 -1 253.97 35.3
11 -8 1 274.67 34.7
-11 8 1 218.58 29.7
3 -11 1 251.57 34.5
-8 -3 1 253.97 23.6
3 -11 1 254.27 30.3
-3 11 1 250.57 26.2
-11 8 1 228.18 30.1
-9 -2 -1 116.79 18
-11 9 -1 110.39 20.4
-11 9 -1 126.19 21.7
2 -11 -1 125.09 21.9
11 -9 -1 118.39 23.3
9 2 -1 117.89 18.8
2 -11 -1 93.79 17.2
-9 -2 -1 117.99 19.1
-2 11 -1 116.99 20.7
-9 -2 1 108.59 19.7
-11 9 1 172.18 27.2
2 -11 1 162.08 26
2 -11 1 143.99 22.6
11 -9 1 86.39 20.2
-2 11 1 133.79 19.9
-11 9 1 109.19 19
1 -11 -1 23.5 14.6
10 1 -1 30.3 11.1
-10 -1 -1 37.6 12.4
1 -11 -1 48.8 15.2
-11 10 -1 45.4 19.2
-10 -1 -1 59.69 12
-1 11 -1 56.59 13
-11 10 -1 35.2 17.5
11 -10 -1 94.99 23.3
-10 -1 1 36.3 12.7
1 -11 1 72.79 17.5
-1 11 1 42.1 11.4
11 -10 1 38.1 21
1 -11 1 45.8 16.7
-11 10 1 28.3 16.4
-11 10 1 48.1 18
-10 -1 1 34.3 12.7
0 -11 -1 196.28 29.5
-11 0 -1 211.88 25.4
0 -11 -1 155.08 26.1
-11 11 -1 154.48 27.7
-11 11 -1 202.68 32.2
11 -11 -1 260.97 38.1
0 11 -1 216.08 23.7
-11 0 -1 218.68 22.7
-11 0 1 182.78 25.3
11 -11 1 167.78 29.8
-11 0 1 175.98 22.2
11 0 1 220.38 19.7
-11 11 1 176.78 31.6
0 -11 1 175.28 34.1
0 -11 1 223.48 30
0 11 1 172.68 21.9
-11 11 1 217.48 34
2 10 -1 141.09 16.9
-2 -10 -1 144.79 24.7
-12 2 -1 153.18 25.7
10 -12 -1 85.99 24.3
-2 -10 -1 182.58 27.4
10 -12 -1 101.49 33.1
-12 2 -1 109.09 16.5
-10 12 -1 114.19 21
-12 2 1 136.89 21.9
-2 -10 1 174.38 27.7
2 10 1 137.59 18.6
10 -12 1 142.19 26.3
12 -2 1 128.49 22.5
-12 2 1 148.09 26.6
-10 12 1 102.99 19.7
-2 -10 1 204.88 27.4
9 -12 -1 265.97 43.2
9 -12 -1 267.07 41.6
3 9 -1 227.88 23.5
-3 -9 -1 314.57 30.9
-9 12 -1 202.68 33
-12 3 -1 274.47 26.6
-12 3 -1 239.08 32.6
12 -3 1 268.97 28.4
-9 12 1 238.78 31.6
9 -12 1 236.28 32.8
-12 3 1 203.68 25.5
-12 3 1 218.58 30.2
-3 -9 1 297.17 38.4
9 -12 1 260.37 38.9
-3 -9 1 289.87 30.7
8 -12 -1 363.16 39.7
-4 -8 -1 453.25 34.4
8 -12 -1 425.16 43.3
-12 4 -1 438.06 34.6
-12 4 -1 476.85 39.2
-8 12 -1 422.96 39.8
-4 -8 -1 537.15 36.9
4 8 -1 378.56 29.9
12 -4 1 344.07 35.8
-8 12 1 346.47 37.4
8 -12 1 426.56 40.6
-4 -8 1 443.76 34.1
-12 4 1 402.56 33.5
-12 4 1 339.07 36.2
-4 -8 1 488.95 35.8
8 -12 1 377.76 59.89
-5 -7 -1 74.19 14
-5 -7 -1 81.39 15.3
7 -12 -1 47.5 16.7
-12 5 -1 64.79 17.9
5 7 -1 65.19 11
7 -12 -1 67.29 17.7
-7 12 -1 85.69 18.9
-12 5 -1 49 14.1
-12 5 1 50.29 16.6
-7 12 1 62.89 16.9
12 -5 1 79.49 17.6
-5 -7 1 59.19 14.5
-12 5 1 69.19 14.9
-5 -7 1 60.29 17.8
7 -12 1 38.9 16.2
7 -12 1 61.89 20.1
-6 -6 -1 18.5 11
-12 6 -1 37.5 13.7
-12 6 -1 7.3 14.7
-6 12 -1 36.5 15.2
6 6 -1 27.2 10.8
6 -12 -1 15.7 13.4
6 -12 -1 41.5 17.3
-6 -6 -1 24 11
12 -6 -1 13.8 14.2
6 -12 1 62.39 20.9
-6 12 1 12.2 13.3
12 -6 1 32.3 14.5
-6 -6 1 40.9 12.7
-6 -6 1 28.9 12.5
-12 6 1 14.3 13
6 -12 1 18.5 14.1
-12 6 1 37.8 15.5
-12 7 -1 89.89 17.7
-5 12 -1 64.09 15.9
-7 -5 -1 88.59 14.2
-7 -5 -1 134.29 20.5
7 5 -1 129.09 16.2
5 -12 -1 122.99 22.3
12 -7 -1 108.19 22.8
-12 7 -1 69.89 18.2
5 -12 -1 106.69 22.5
-7 -5 1 91.99 15.4
-7 -5 1 125.89 17.3
-12 7 1 88.59 17.3
5 -12 1 56.89 16.6
5 -12 1 84.79 22.3
-12 7 1 76.19 18.7
-5 12 1 79.49 16.5
-4 12 -1 15.3 11.7
-12 8 -1 22.7 16
-8 -4 -1 8 10.7
4 -12 -1 16.9 15.4
12 -8 -1 25.7 17.8
-12 8 -1 16.5 13.4
8 4 -1 32.9 8.1
-8 -4 -1 21.2 10.9
4 -12 -1 5.8 15.3
-12 8 1 27.4 14
-8 -4 1 23.6 11.9
4 -12 1 11 13.7
-8 -4 1 24.2 11.7
4 -12 1 38.3 20.2
-12 8 1 20 15.1
12 -8 1 22.3 16.7
-9 -3 -1 110.59 20.6
-3 12 -1 87.39 23.3
3 -12 -1 93.19 21.1
3 -12 -1 63.59 17.8
12 -9 -1 47.2 19.3
-12 9 -1 89.29 19.6
-12 9 -1 56.89 18.7
-9 -3 -1 89.69 14.1
-9 -3 1 71.99 14.5
-12 9 1 75.79 18.2
3 -12 1 110.29 23.4
12 -9 1 94.09 23.1
3 -12 1 73.79 17
-12 9 1 73.59 19
-3 12 1 66.29 15
-12 10 -1 15.2 15.7
-10 -2 -1 24.2 11
2 -12 -1 24.8 14.7
-2 12 -1 40.8 12.9
-10 -2 -1 24.4 12.3
-12 10 -1 29.4 18.9
2 -12 -1 8.8 27.9
12 -10 -1 30.9 20
12 -10 1 37 20.4
2 -12 1 18.3 14
-10 -2 1 47.9 13.4
-12 10 1 16.5 15.6
-2 12 1 25.2 12.3
-12 10 1 30.9 17
2 -12 1 34 18.4
-10 -2 1 30.3 11.8
-13 5 -1 39.4 14
-13 5 1 58.69 16.2
-6 -7 -1 18.7 12.5
7 -13 -1 10.3 17.2
13 -6 -1 7.6 15.3
-13 6 -1 -9.1 12.6
-6 -7 -1 10.8 11.2
-13 6 -1 2.7 14.8
7 -13 -1 5 16.3
-7 13 -1 8.9 18.7
-13 6 1 1.6 26.3
13 -6 1 8.8 15.4
-7 13 1 2.5 12.9
7 -13 1 17.2 15.6
-6 -7 1 22.7 13
-13 6 1 6.2 12.9
7 -13 1 -0.2 19.6
-6 -7 1 26.6 12.9
6 -13 -1 119.79 37.3
-13 7 -1 148.69 28.2
6 -13 -1 142.09 24.9
-7 -6 -1 141.99 22.1
-7 -6 -1 136.89 21.7
-13 7 -1 99.09 18.8
-6 13 -1 144.49 21.9
-7 -6 1 156.38 24.2
13 -7 1 127.59 23.4
-7 -6 1 215.58 25.4
6 -13 1 142.99 24.6
6 -13 1 230.48 33.1
-6 13 1 137.79 21
-13 7 1 157.48 25.8
-13 7 1 96.29 21.4
-13 8 -1 120.59 25.6
-13 8 1 169.48 29.7
-1 0 -2 316.37 15.2
1 0 -2 316.57 16
0 -1 -2 316.37 15.6
1 -1 -2 294.17 15.9
-1 1 -2 249.08 16.4
1 -1 -2 342.87 16.4
0 1 -2 321.07 16.5
-1 0 -2 264.57 15.3
-1 1 -2 328.27 16.4
0 1 -2 281.07 16.4
0 -1 -2 309.77 15.5
0 1 2 405.46 18.3
-1 0 2 390.76 18.8
1 -1 2 375.36 19
-1 0 2 308.77 18.8
0 -1 2 308.77 19.7
0 -1 2 361.16 19.2
1 0 2 383.76 18
-1 1 2 357.86 18.9
-1 1 2 325.07 18.4
-2 1 -2 306.87 16.4
-1 2 -2 285.37 17.3
1 1 -2 295.27 16.5
-1 -1 -2 281.77 15.3
-1 2 -2 300.37 18
1 -2 -2 325.87 16.8
2 -1 -2 308.67 16.5
1 -2 -2 319.07 17.5
-1 -1 -2 300.97 15.2
-1 -1 2 131.69 8.7
-1 -1 2 120.69 8.5
2 -1 2 140.09 8.4
-2 1 2 139.99 9.4
2 -1 2 136.79 9.3
-1 2 2 165.28 10.1
1 -2 2 128.79 9.6
1 -2 2 161.18 10.6
2 -2 -2 807.02 41.3
0 -2 -2 752.42 39.9
0 -2 -2 770.42 40.1
-2 0 -2 826.82 39.5
0 2 -2 722.03 41.2
2 -2 -2 824.92 40.5
-2 2 -2 758.42 40.8
-2 0 -2 802.22 39
2 0 -2 796.72 40
2 -2 2 945.61 52.89
-2 2 2 1065.69 52.69
0 2 2 958.9 51.09
-2 2 2 1100.19 51.89
0 -2 2 887.71 52.59
0 2 2 1039 51.69
-2 0 2 1066.79 51.69
2 -2 2 1046.1 52.09
2 0 2 1086.99 50.39
-2 0 2 1018.7 51.49
1 2 -2 1672.53 86.79
2 -3 -2 1830.52 88.29
2 -3 -2 1858.31 86.89
-2 3 -2 1644.94 87.19
-1 -2 -2 1620.04 85.49
3 -1 -2 1588.74 86.59
3 -1 -2 1857.81 86.09
-1 -2 -2 1526.55 85.29
-3 1 -2 1871.01 86.59
-2 3 -2 1762.72 88.59
-3 1 -2 1728.83 85.69
-2 3 2 1784.92 85.49
-3 1 2 1758.22 84.99
-1 -2 2 1581.24 85.19
2 -3 2 1664.73 85.99
1 2 2 1785.92 83.79
-3 1 2 1698.43 87.19
-2 3 2 1720.53 86.69
2 -3 2 1547.95 86.69
3 -1 2 1826.82 84.19
-1 -2 2 1597.44 84.99
-1 3 -2 1073.39 59.79
3 -2 -2 1201.98 60.29
-3 2 -2 1040.2 60.29
3 -2 -2 1241.18 58.99
1 -3 -2 1136.69 59.09
-3 2 -2 1195.48 59.19
-2 -1 -2 1250.87 57.29
-2 -1 -2 1134.29 57.19
2 1 -2 1177.18 58.59
-1 3 -2 1118.29 60.79
1 -3 2 606.24 33.7
2 1 2 551.34 30.8
-2 -1 2 590.24 32
2 1 2 659.43 30.7
-2 -1 2 614.44 32.1
3 -2 2 654.43 32.5
-1 3 2 618.04 33.9
-3 2 2 634.84 33.5
-3 2 2 625.34 32.6
1 -3 2 585.74 34.2
-3 0 -2 748.23 36.8
0 -3 -2 633.54 37.8
3 -3 -2 733.03 40.2
3 0 -2 737.03 37.5
0 -3 -2 709.23 38.1
0 3 -2 689.23 39.6
-3 0 -2 761.12 36.7
3 -3 -2 773.52 38.7
-3 3 -2 740.63 39.2
-3 3 -2 677.63 40.9
-3 3 2 1148.49 57.09
3 -3 2 1004.5 58.39
0 -3 2 1073.19 58.39
3 -3 2 1124.29 57.19
3 0 2 1174.88 56.29
0 3 2 1098.09 57.29
-3 3 2 1108.09 58.29
0 3 2 1053.19 56.09
3 0 2 1183.78 55.09
0 -3 2 1013.2 57.39
-3 0 2 1125.29 56.29
-3 0 2 1146.99 56.49
1 3 -2 2288.17 114.19
4 -1 -2 2256.77 112.29
-4 1 -2 2295.17 112.39
3 -4 -2 2316.27 113.79
-1 -3 -2 2042.8 112.09
-4 1 -2 2227.18 111.99
-3 4 -2 2369.36 114.59
3 -4 -2 2455.95 116.49
-1 -3 -2 2044.2 112.29
-1 -3 2 1854.31 103.69
-4 1 2 2233.88 103.49
1 3 2 1977.8 101.99
-1 -3 2 1919.11 103.59
4 -1 2 2223.78 101.89
1 3 2 2113.49 103.09
3 -4 2 1863.61 105.39
3 -4 2 2030.9 104.19
-3 4 2 2111.79 105.69
-4 1 2 2034.7 102.89
-3 4 2 2223.18 103.99
4 -2 -2 6223.48 283.17
-2 4 -2 5815.62 284.67
4 -2 -2 5888.81 284.77
-2 -2 -2 5671.83 281.67
2 -4 -2 5497.25 283.77
-2 -2 -2 5512.25 281.77
-2 4 -2 5840.92 286.27
2 2 -2 5688.93 283.17
-4 2 -2 5847.52 284.17
-4 2 -2 5609.64 283.17
2 -4 -2 5774.42 284.87
2 2 2 5903.41 263.17
4 -2 2 5686.53 264.47
-2 4 2 5703.33 267.47
-2 -2 2 5282.87 264.47
-4 2 2 5358.76 264.97
2 -4 2 5418.26 266.47
-4 2 2 5418.66 265.67
2 -4 2 4776.72 266.97
2 2 2 5007.5 263.67
-2 4 2 5494.05 265.47
-2 -2 2 5183.88 264.67
-4 3 -2 3594.24 187.88
1 -4 -2 3820.42 186.38
-1 4 -2 3666.63 186.68
-4 3 -2 3800.82 186.38
4 -3 -2 4068.19 186.08
4 -3 -2 3865.51 187.98
-3 -1 -2 3960.9 184.08
1 -4 -2 3750.42 186.78
-1 4 -2 3738.83 188.38
-3 -1 -2 3680.03 183.88
3 1 -2 3810.62 185.08
3 1 -2 3248.88 185.88
3 1 2 3583.54 166.38
-4 3 2 3509.85 169.58
-3 -1 2 3292.07 167.38
1 -4 2 3243.08 169.38
-1 4 2 3636.34 170.08
-3 -1 2 3241.58 167.28
1 -4 2 3221.18 170.08
-1 4 2 3256.97 167.88
4 -3 2 3097.99 169.68
3 1 2 3348.86 165.98
4 -3 2 3670.43 168.28
-4 3 2 3533.05 168.38
-4 0 -2 1729.73 83.09
4 0 -2 1503.35 85.19
-4 4 -2 1728.93 86.09
4 -4 -2 1813.72 85.59
0 -4 -2 1646.04 84.99
-4 0 -2 1524.75 85.39
4 -4 -2 1664.83 87.69
4 0 -2 1770.72 83.89
-4 4 -2 1711.83 88.59
0 4 -2 1518.75 86.39
4 -4 2 1661.93 82.89
4 -4 2 1450.35 84.49
4 0 2 1692.53 80.19
0 -4 2 1532.75 83.09
-4 0 2 1723.63 81.99
-4 0 2 1585.04 81.59
-4 4 2 1639.94 82.69
4 0 2 1686.83 81.89
0 4 2 1564.04 81.69
-4 4 2 1606.64 84.69
0 -4 2 1584.04 84.29
1 4 -2 290.57 23.6
4 -5 -2 356.46 22.8
1 4 -2 370.36 23.7
-5 1 -2 338.27 20.2
5 -1 -2 273.67 22.9
-1 -4 -2 315.47 21.1
-4 5 -2 328.87 27.3
-4 5 -2 375.86 23.8
-5 1 -2 353.66 20.4
-1 -4 -2 318.07 20.8
5 -1 -2 339.77 20.4
4 -5 -2 349.17 26.7
-5 1 2 267.87 18.6
-1 -4 2 261.87 19.1
-4 5 2 289.67 22.9
5 -1 2 297.37 20.7
4 -5 2 286.67 22.2
-1 -4 2 259.07 19.7
4 -5 2 271.07 20
1 4 2 292.57 17.6
-4 5 2 288.67 19.9
-5 1 2 310.67 18.7
-3 5 -2 2132.69 107.79
3 -5 -2 2042.7 108.19
5 -2 -2 2102.69 107.79
-2 -3 -2 2056.99 104.79
2 3 -2 2131.19 107.09
-5 2 -2 2187.78 106.39
-5 2 -2 2121.79 105.79
3 -5 -2 2046.1 106.99
-2 -3 -2 1943.91 104.69
5 -2 -2 2172.88 105.49
2 3 -2 2124.29 105.59
-5 2 2 2223.38 116.19
-3 5 2 2382.36 117.39
5 -2 2 2404.06 115.19
3 -5 2 2433.16 118.29
2 3 2 2502.55 114.39
-5 2 2 2327.37 116.89
2 3 2 2280.27 115.59
-3 5 2 2372.56 119.59
3 -5 2 2036.7 118.59
-2 -3 2 2217.68 116.29
-2 -3 2 2227.18 115.89
-3 -2 -2 3515.65 175.28
5 -3 -2 3536.65 179.88
3 2 -2 3371.76 176.68
-3 -2 -2 3613.14 175.28
5 -3 -2 3668.13 177.28
-2 5 -2 3815.12 181.58
2 -5 -2 3293.47 180.18
3 2 -2 3710.33 176.78
2 -5 -2 3510.25 181.18
-5 3 -2 3641.54 179.28
-2 5 -2 3541.15 178.68
5 -3 2 3942.31 188.08
-3 -2 2 3648.44 187.68
-3 -2 2 3671.03 187.68
-2 5 2 3883.81 191.38
-5 3 2 3771.72 188.58
3 2 2 3892.51 186.98
-5 3 2 3971.2 189.98
3 2 2 3946.41 186.18
2 -5 2 3326.07 190.48
2 -5 2 3882.01 190.48
5 -4 -2 2044.9 96.29
-5 4 -2 1854.91 98.39
4 1 -2 1586.34 97.29
-1 5 -2 1820.42 96.59
-4 -1 -2 2034 93.69
-1 5 -2 1895.81 99.09
-4 -1 -2 1816.02 93.39
1 -5 -2 1820.42 96.49
5 -4 -2 1901.71 99.09
-5 4 -2 1858.51 96.59
4 1 -2 1872.91 95.09
1 -5 -2 1991.4 96.69
-5 4 2 1838.32 94.09
4 1 2 1841.32 90.19
5 -4 2 1634.54 94.19
-4 -1 2 1749.72 90.89
5 -4 2 1917.81 92.29
-1 5 2 2016.4 97.19
-5 4 2 1784.72 92.19
1 -5 2 1742.33 93.49
-4 -1 2 1753.52 91.09
4 1 2 1745.53 89.29
5 0 -2 2202.48 107.89
-5 0 -2 2154.18 107.29
-5 5 -2 2156.88 113.29
5 -5 -2 2168.78 109.99
-5 5 -2 2219.68 110.99
5 0 -2 2116.59 109.19
0 -5 -2 2148.39 109.79
5 -5 -2 2085.29 112.99
-5 0 -2 2290.47 107.39
0 5 -2 2122.89 111.79
0 -5 -2 1912.51 108.99
5 -5 2 2114.29 105.69
-5 0 2 2003.4 103.99
0 -5 2 2053.39 107.29
0 5 2 2229.08 107.09
5 0 2 2132.49 104.69
5 -5 2 1855.41 107.79
-5 0 2 2110.89 104.19
0 -5 2 1991.6 105.99
0 5 2 2025.4 104.49
5 0 2 2131.19 102.39
-5 5 2 2036.1 107.99
-5 5 2 2023.1 105.49
6 -1 -2 2604.54 131.19
-6 1 -2 2671.23 131.59
5 -6 -2 2566.84 133.89
6 -1 -2 2442.46 133.69
-1 -5 -2 2398.76 132.59
1 5 -2 2984 135.89
1 5 -2 2591.34 132.59
-5 6 -2 2793.22 138.69
-5 6 -2 2654.23 134.89
-1 -5 -2 2407.26 132.39
-6 1 -2 2721.83 131.29
-5 6 2 2771.72 145.69
1 5 2 2881.01 143.59
-1 -5 2 2882.61 146.29
-5 6 2 3020.9 149.29
-6 1 2 2797.82 144.29
6 -1 2 3033.8 146.39
5 -6 2 2515.15 147.99
-6 1 2 2926.41 144.59
6 -1 2 2991 142.69
5 -6 2 2927.81 146.39
-1 -5 2 2851.71 145.59
-4 6 -2 934.41 51.39
6 -2 -2 910.91 48
-4 6 -2 936.21 55.79
2 4 -2 1020.6 50.99
4 -6 -2 754.52 58.49
-6 2 -2 908.41 48.7
-2 -4 -2 866.61 48
2 4 -2 908.61 48.7
-6 2 -2 933.01 48.8
-2 -4 -2 879.61 48
4 -6 -2 806.72 49.99
4 -6 2 901.01 57.49
2 4 2 1029.9 53.89
-2 -4 2 940.21 54.49
-4 6 2 1044.9 55.69
-4 6 2 1046.8 58.99
-6 2 2 938.61 55.59
6 -2 2 1071.49 52.69
4 -6 2 1056.29 56.49
-2 -4 2 1020.4 54.79
-6 2 2 1004.8 54.29
2 4 2 1059.99 52.19
3 -6 -2 1891.21 100.79
-6 3 -2 1958.3 99.39
6 -3 -2 1916.71 97.79
3 3 -2 1876.21 97.29
-3 -3 -2 1903.81 96.29
-3 -3 -2 1935.91 96.49
-3 6 -2 1963.4 100.09
3 3 -2 1956.5 98.69
-6 3 -2 1885.11 98.49
3 -6 -2 1914.41 99.79
6 -3 -2 1912.01 101.19
3 3 2 2005.6 107.99
-3 -3 2 2048 108.99
3 -6 2 1987.6 112.69
-6 3 2 2136.39 109.89
3 3 2 2360.86 107.19
-3 6 2 2149.69 110.59
6 -3 2 2225.38 108.69
-6 3 2 2211.58 110.79
3 -6 2 2173.18 111.89
-3 6 2 2265.87 115.59
-3 -3 2 2146.89 108.99
-2 6 -2 716.33 51.89
6 -4 -2 711.73 45.7
2 -6 -2 714.03 44.4
6 -4 -2 786.22 41.7
-6 4 -2 698.53 42.1
4 2 -2 740.13 40.1
-4 -2 -2 751.22 38.7
-2 6 -2 732.83 42.7
4 2 -2 766.72 40.7
-4 -2 -2 715.63 38.7
2 -6 -2 752.02 43.5
-6 4 -2 761.72 44.2
-6 4 2 897.71 48.2
-4 -2 2 802.82 44.5
2 -6 2 844.22 48.4
-4 -2 2 776.32 44.5
6 -4 2 761.22 48.3
-2 6 2 920.31 50.19
4 2 2 836.32 43
4 2 2 879.01 43.8
-6 4 2 815.72 46.2
2 -6 2 689.43 47.7
6 -4 2 928.41 45.9
5 1 -2 547.65 33
6 -5 -2 621.44 34.7
1 -6 -2 593.04 34.9
-5 -1 -2 546.45 30.9
5 1 -2 546.45 31.8
6 -5 -2 608.74 40.2
1 -6 -2 547.15 34.7
-6 5 -2 527.45 34.8
-5 -1 -2 590.64 31.1
-1 6 -2 566.04 37.7
-6 5 -2 549.45 38
5 1 2 377.96 21.3
-5 -1 2 376.56 23.5
1 -6 2 364.76 26.7
-6 5 2 358.16 26.6
-5 -1 2 406.66 24
-1 6 2 341.17 23.9
6 -5 2 350.36 27.8
-1 6 2 417.26 28.9
6 -5 2 390.16 25.4
-6 5 2 416.26 28.4
1 -6 2 371.36 28
5 1 2 392.76 23
0 6 -2 2046.3 102.09
-6 6 -2 1831.12 99.59
0 -6 -2 1749.43 97.99
0 6 -2 1827.92 97.99
-6 0 -2 1836.32 95.69
-6 6 -2 1986.2 103.09
6 0 -2 1883.91 95.89
0 -6 -2 1938.01 98.79
6 0 -2 1857.11 97.89
6 -6 -2 1887.71 98.79
-6 0 -2 1949.51 95.59
-6 0 2 1863.71 97.69
-6 0 2 1877.31 97.69
6 -6 2 1913.81 99.79
-6 6 2 1951.5 102.89
-6 6 2 1851.61 99.59
0 -6 2 1876.11 100.19
6 0 2 2034.2 98.79
6 0 2 1972 95.79
6 -6 2 1760.82 102.59
0 6 2 1968.4 98.29
0 -6 2 1929.21 101.39
0 6 2 1950.01 101.19
6 -7 -2 1481.45 87.49
1 6 -2 1629.94 83.59
-1 -6 -2 1589.14 83.99
-7 1 -2 1587.74 82.49
6 -7 -2 1558.84 85.29
7 -1 -2 1635.04 81.89
7 -1 -2 1548.15 85.29
-6 7 -2 1621.64 86.59
-1 -6 -2 1561.64 84.19
-7 1 -2 1584.04 81.79
-6 7 -2 1652.13 90.59
-7 1 2 1583.04 83.19
1 6 2 1644.74 82.59
-6 7 2 1460.15 84.99
-7 1 2 1511.35 83.19
7 -1 2 1720.03 85.79
-1 -6 2 1627.84 85.39
1 6 2 1644.24 85.49
6 -7 2 1584.94 85.89
-6 7 2 1600.94 89.79
-1 -6 2 1661.03 85.79
6 -7 2 1555.84 88.99
7 -1 2 1580.14 81.09
5 -7 -2 2736.03 144.19
5 -7 -2 2540.55 141.79
7 -2 -2 2737.93 143.09
-5 7 -2 2828.42 143.19
2 5 -2 2638.14 139.89
-5 7 -2 2987.6 148.19
-2 -5 -2 2768.12 139.89
-7 2 -2 2830.12 140.29
-7 2 -2 2885.31 139.89
-2 -5 -2 2770.52 140.09
7 -2 -2 2755.42 139.19
-7 2 2 2779.62 146.49
5 -7 2 2932.51 148.99
5 -7 2 2710.03 150.98
-5 7 2 2915.41 148.39
-2 -5 2 2921.31 147.29
-7 2 2 2858.31 146.69
7 -2 2 2952.2 144.69
2 5 2 2946.31 144.69
-5 7 2 3034.5 152.28
-2 -5 2 2958.5 147.79
7 -3 -2 1467.15 85.79
3 4 -2 1549.94 81.89
-3 -4 -2 1551.64 81.49
4 -7 -2 1627.64 85.19
-4 7 -2 1566.24 85.19
-7 3 -2 1706.83 83.69
4 -7 -2 1556.84 86.29
-7 3 -2 1532.45 83.09
-3 -4 -2 1560.14 81.19
7 -3 -2 1527.25 81.89
3 4 -2 1785.22 84.49
-7 3 2 1522.55 78.09
-4 7 2 1481.85 78.59
-3 -4 2 1442.26 76.79
-4 7 2 1478.05 82.29
-7 3 2 1409.76 77.19
3 4 2 1514.05 74.19
3 4 2 1383.16 75.59
4 -7 2 1424.56 81.29
4 -7 2 1531.85 79.89
-3 -4 2 1455.35 77.09
7 -3 2 1476.15 75.49
7 -4 -2 453.45 33.7
3 -7 -2 432.46 30.6
-4 -3 -2 419.26 24.8
-7 4 -2 408.56 28.5
4 3 -2 452.85 27.4
4 3 -2 439.26 26.7
-7 4 -2 412.86 29.6
7 -4 -2 458.25 27.7
3 -7 -2 426.26 29.7
-4 -3 -2 417.06 24.9
-3 7 -2 404.06 29.1
7 -4 2 542.45 32.3
3 -7 2 594.54 36.4
-7 4 2 506.95 33.5
-3 7 2 550.84 38.8
-7 4 2 568.14 35.2
4 3 2 563.64 30.6
3 -7 2 547.05 37
-4 -3 2 509.65 32
4 3 2 559.14 29.6
-4 -3 2 545.45 32
-3 7 2 525.25 33.6
7 -5 -2 41.5 14.8
-5 -2 -2 43.8 6.5
2 -7 -2 43.7 10.4
-2 7 -2 37.9 8.9
-7 5 -2 38.1 12
5 2 -2 37.6 6.8
-2 7 -2 53.19 12.3
5 2 -2 47.8 8.4
-7 5 -2 38.1 10
-5 -2 -2 40.8 6.4
2 -7 -2 52.79 10.5
7 -5 -2 40.8 8.5
-5 -2 2 29.3 6.8
-2 7 2 45 13.4
-5 -2 2 37.4 7.5
2 -7 2 32.3 9.5
-7 5 2 26.7 7.9
-2 7 2 35.2 9
5 2 2 37.4 6.3
7 -5 2 41.9 8.7
5 2 2 44.1 6.4
2 -7 2 27.5 9.5
7 -5 2 24.4 9.1
-7 5 2 29 10.5
1 -7 -2 1041.1 58.59
-6 -1 -2 987.5 54.39
6 1 -2 998.8 54.79
7 -6 -2 1081.69 64.29
-7 6 -2 1038.8 61.39
6 1 -2 1013.5 56.59
-7 6 -2 974 58.79
-1 7 -2 1065.19 62.39
-6 -1 -2 1031.8 54.19
7 -6 -2 1057.69 58.19
1 -7 -2 1117.19 59.19
-6 -1 2 888.11 49.99
1 -7 2 862.71 53.49
6 1 2 969.2 49.8
7 -6 2 871.21 55.69
-6 -1 2 888.11 49.99
1 -7 2 941.91 55.39
-7 6 2 968.9 55.39
6 1 2 900.21 47.7
7 -6 2 941.01 52.09
-1 7 2 898.51 50.89
-7 6 2 861.61 52.29
-1 7 2 1057.29 56.49
7 -7 -2 1295.87 77.79
7 0 -2 1347.37 74.19
-7 0 -2 1324.17 70.79
0 -7 -2 1360.46 74.79
0 7 -2 1374.16 73.79
0 7 -2 1612.54 79.69
0 -7 -2 1393.86 74.89
7 0 -2 1354.76 71.09
-7 7 -2 1342.07 76.09
-7 7 -2 1365.76 79.39
-7 0 -2 1324.47 71.49
7 -7 -2 1311.47 74.59
0 7 2 1502.15 74.09
-7 0 2 1306.07 73.39
0 7 2 1391.86 77.79
-7 7 2 1444.86 80.09
-7 0 2 1398.66 73.99
-7 7 2 1308.77 75.99
7 0 2 1467.35 75.09
7 -7 2 1441.56 76.59
7 -7 2 1299.97 79.69
7 0 2 1395.36 71.29
0 -7 2 1404.86 77.49
0 -7 2 1410.86 76.79
-8 1 -2 103.39 13.9
7 -8 -2 56.79 14.3
8 -1 -2 105.99 18.4
-1 -7 -2 75.09 12.6
8 -1 -2 90.19 14.2
-7 8 -2 71.99 13.3
1 7 -2 103.89 15.5
-1 -7 -2 91.69 16
-7 8 -2 98.99 20.7
-8 1 -2 98.99 14.8
7 -8 -2 95.89 15.1
-8 1 2 53.79 9.6
-8 1 2 75.59 11.7
1 7 2 56.39 18.4
7 -8 2 74.29 17.4
-7 8 2 43.5 11
-7 8 2 117.39 19.8
8 -1 2 70.49 11.7
1 7 2 74.69 12.8
7 -8 2 65.79 12.7
-1 -7 2 70.99 12
-1 -7 2 61.69 12.7
-8 2 -2 539.35 33.4
-8 2 -2 578.54 32.3
-6 8 -2 588.24 43.9
8 -2 -2 482.05 36.4
-2 -6 -2 492.85 32.3
2 6 -2 506.65 32.7
-2 -6 -2 520.15 33.3
-6 8 -2 485.95 36.3
6 -8 -2 464.15 35.5
6 -8 -2 523.15 38.5
8 -2 -2 509.35 31.5
-2 -6 2 676.43 41.6
-8 2 2 662.43 39.8
6 -8 2 651.63 42.9
-8 2 2 616.34 40
6 -8 2 668.43 46.3
-6 8 2 651.03 42.3
2 6 2 671.93 37.4
-6 8 2 692.93 47.3
-2 -6 2 711.43 41.4
8 -2 2 684.83 37.4
2 6 2 662.93 40.3
5 -8 -2 887.11 55.29
-3 -5 -2 845.82 49.1
-5 8 -2 1024.8 61.49
3 5 -2 873.21 49.7
8 -3 -2 858.81 49.4
-8 3 -2 876.71 51.19
5 -8 -2 821.62 52.79
-8 3 -2 917.01 50.79
-5 8 -2 914.81 53.89
-3 -5 -2 971.7 50.19
-8 3 2 825.12 49.5
-3 -5 2 838.52 49.2
-5 8 2 842.72 50.79
3 5 2 872.91 47.7
5 -8 2 904.21 52.59
3 5 2 876.51 45.6
-5 8 2 907.71 56.19
5 -8 2 882.61 54.49
-8 3 2 806.42 49.4
-3 -5 2 859.91 49.2
8 -3 2 859.81 46.9
-4 8 -2 197.28 29.8
-4 -4 -2 216.28 17.3
4 -8 -2 210.58 23.4
4 -8 -2 202.18 21.9
-4 8 -2 204.08 21.5
-8 4 -2 198.88 20.2
-8 4 -2 182.38 19.8
-4 -4 -2 193.08 16.1
8 -4 -2 207.18 18.4
8 -4 -2 208.88 26.2
4 4 -2 225.88 19.2
4 4 -2 194.48 17.7
4 -8 2 196.18 23.4
-8 4 2 166.28 19.2
-4 -4 2 189.08 17.7
8 -4 2 191.08 16.9
4 -8 2 179.08 21.7
-4 8 2 201.58 19.7
-4 -4 2 179.88 17.3
-4 8 2 200.38 26.2
4 4 2 179.98 14.7
-8 4 2 202.58 20.2
-8 5 -2 32.6 10.2
3 -8 -2 25.2 11.1
5 3 -2 22.4 7.8
-5 -3 -2 41.5 6.9
3 -8 -2 34.9 10.5
8 -5 -2 38.2 9.7
-3 8 -2 28.5 18.7
8 -5 -2 28.1 16.3
-8 5 -2 36.1 11.9
-3 8 -2 21 9.2
-5 -3 -2 28.3 6.6
5 3 -2 29.6 7.8
3 -8 2 36.3 12.3
5 3 2 29.3 5.6
3 -8 2 29.5 10.4
-8 5 2 34.4 9.7
-3 8 2 33.3 14.3
-5 -3 2 32.9 8.1
-3 8 2 24.4 7.2
5 3 2 37.5 6.4
-8 5 2 29.8 11
-5 -3 2 23.8 7.7
8 -5 2 30.3 9.4
8 -5 2 28.5 8.6
8 -6 -2 80.89 19.9
-8 6 -2 65.69 15.4
-6 -2 -2 42.4 7.7
-6 -2 -2 69.79 10.7
-2 8 -2 51.99 11.3
2 -8 -2 59.19 11.2
-8 6 -2 59.39 11.7
6 2 -2 45 9.6
2 -8 -2 63.79 12.7
6 2 -2 67.39 10.9
8 -6 -2 59.59 10.6
2 -8 2 35.1 12.8
2 -8 2 58.49 12.8
-6 -2 2 39.7 8.5
-6 -2 2 36.3 8.2
8 -6 2 31.9 11.7
6 2 2 43.7 7.1
-2 8 2 39.9 11.2
-8 6 2 32.2 10.1
8 -6 2 35.2 9.6
-8 6 2 40.1 11.8
-2 8 2 60.59 15.7
6 2 2 50.29 8.1
-7 -1 -2 907.61 47.8
-8 7 -2 802.22 53.09
-8 7 -2 834.92 55.79
-1 8 -2 992.9 58.09
-7 -1 -2 854.01 48.1
1 -8 -2 873.11 52.79
7 1 -2 908.11 50.89
8 -7 -2 833.42 51.69
1 -8 -2 894.31 52.89
8 -7 2 829.62 47.9
7 1 2 819.32 45
-7 -1 2 773.62 45.4
-7 -1 2 812.22 45.3
1 -8 2 824.12 49.99
7 1 2 756.32 42.2
1 -8 2 827.12 51.09
-8 7 2 824.22 51.49
-1 8 2 803.62 46.4
8 -7 2 717.03 51.99
-8 7 2 760.22 48.3
8 -8 -2 940.81 62.89
0 -8 -2 1049.89 59.79
8 -8 -2 934.11 58.89
0 -8 -2 1029.9 59.49
0 8 -2 1023.4 57.29
-8 0 -2 1039.7 54.69
8 0 -2 1080.29 59.39
-8 0 -2 909.61 60.49
-8 8 -2 1003.3 60.89
-8 8 -2 1028 64.49
8 -8 2 804.12 49.8
8 -8 2 771.72 54.09
0 -8 2 823.82 50.69
-8 8 2 787.62 53.79
0 8 2 876.51 46.8
-8 0 2 795.32 46.4
-8 8 2 754.72 49.7
8 0 2 777.62 43.3
-8 0 2 812.62 47.4
0 -8 2 889.51 51.29
-1 -8 -2 1008 55.29
-8 9 -2 910.81 58.89
9 -1 -2 998.3 58.29
-9 1 -2 867.11 53.59
-1 -8 -2 940.91 56.09
-9 1 -2 942.71 52.19
-8 9 -2 1007.1 63.89
1 8 -2 923.51 53.79
8 -9 -2 903.51 61.19
8 -9 -2 848.02 57.09
8 -9 2 873.81 60.49
-9 1 2 849.52 52.59
-9 1 2 877.21 51.59
1 8 2 962.7 50.79
-1 -8 2 969.4 55.69
-1 -8 2 944.71 54.99
-8 9 2 807.52 55.29
8 -9 2 851.51 55.49
-8 9 2 996 61.49
2 7 -2 96.99 16.7
7 -9 -2 100.99 15.8
7 -9 -2 70.29 15.6
-2 -7 -2 161.88 18.9
-7 9 -2 106.49 18.1
-9 2 -2 104.09 17.6
-9 2 -2 136.59 16.2
-2 -7 -2 96.49 16.5
9 -2 -2 129.19 18.9
-7 9 -2 149.59 25.8
9 -2 -2 106.29 14.6
2 7 2 187.78 16.4
-2 -7 2 181.58 27.6
-7 9 2 111.69 18.6
-7 9 2 194.08 29.1
7 -9 2 162.58 22.7
-2 -7 2 187.38 20.9
-9 2 2 168.18 21.5
2 7 2 141.79 19.2
7 -9 2 166.58 23.5
-9 2 2 163.48 18.4
-3 -6 -2 355.86 25.9
-9 3 -2 318.97 26.2
-9 3 -2 342.67 27.8
-3 -6 -2 375.46 26.8
9 -3 -2 357.36 33.4
3 6 -2 337.07 25.2
-6 9 -2 401.16 39.2
-6 9 -2 330.57 38.1
6 -9 -2 345.67 32.2
6 -9 -2 356.96 30.8
9 -3 -2 344.77 25.1
-3 -6 2 414.86 30.7
3 6 2 439.46 29.3
-3 -6 2 449.66 30.8
-6 9 2 350.76 31.4
-6 9 2 432.16 38
-9 3 2 398.56 30.6
-9 3 2 434.36 30.1
6 -9 2 428.06 34
3 6 2 431.86 25.8
6 -9 2 426.56 36.6
5 -9 -2 449.26 36.8
-9 4 -2 448.16 32.8
5 -9 -2 445.46 34.8
-4 -5 -2 469.35 29.2
4 5 -2 464.75 30
-5 9 -2 478.95 42.7
-5 9 -2 461.75 34.7
-9 4 -2 451.55 31.9
9 -4 -2 388.86 37
-4 -5 -2 487.05 30.3
4 5 2 387.46 27.4
-5 9 2 524.15 40.9
4 5 2 502.55 27
5 -9 2 497.65 38.3
9 -4 2 474.05 30
9 -4 2 432.16 34.9
-5 9 2 477.25 34.1
-9 4 2 483.15 33.2
-4 -5 2 487.45 32.4
5 -9 2 535.55 37
-4 -5 2 461.35 31.9
-9 4 2 446.46 33.1
4 -9 -2 362.36 31.1
-4 9 -2 367.16 29.7
-9 5 -2 372.46 29.4
-9 5 -2 353.66 28.6
9 -5 -2 333.27 26.3
4 -9 -2 407.36 31.1
-5 -4 -2 386.46 25.1
5 4 -2 355.36 25.4
-5 -4 -2 350.36 23.7
5 4 -2 261.77 27.4
9 -5 -2 326.27 35.7
9 -5 2 385.76 29.1
-4 9 2 385.16 30.1
-9 5 2 430.76 32
5 4 2 437.16 23.2
-5 -4 2 417.26 28.3
4 -9 2 431.46 34.6
-5 -4 2 390.76 27.8
-4 9 2 393.46 36.7
5 4 2 365.26 24
4 -9 2 418.76 33.3
-9 5 2 401.16 30.9
-9 6 -2 245.18 25.2
-6 -3 -2 213.98 18.3
9 -6 -2 252.97 23.2
6 3 -2 277.07 21
-9 6 -2 231.88 25
9 -6 -2 243.88 35.1
3 -9 -2 242.68 25.9
-3 9 -2 224.28 23.7
3 -9 -2 252.47 25.3
3 -9 2 230.18 26.6
6 3 2 206.98 13.9
9 -6 2 195.08 25.1
3 -9 2 208.68 24.8
-3 9 2 211.08 27.9
-6 -3 2 174.98 18.7
-9 6 2 171.68 23.4
-6 -3 2 196.88 19.2
9 -6 2 168.68 23.3
-9 6 2 195.08 22.7
-7 -2 -2 117.09 14.1
-2 9 -2 36.3 22.3
2 -9 -2 113.49 19.9
9 -7 -2 74.69 12.6
-9 7 -2 121.59 18.8
2 -9 -2 99.59 16.5
-9 7 -2 79.99 15.1
-2 9 -2 101.89 15
7 2 -2 123.69 16.3
-2 9 2 73.99 12.2
7 2 2 100.29 11.2
-9 7 2 65.79 13.8
-2 9 2 112.89 19.9
-7 -2 2 71.49 11
-9 7 2 97.39 17.4
9 -7 2 90.99 17.7
-7 -2 2 67.69 11.2
2 -9 2 73.39 15
2 -9 2 62.39 14.2
9 -7 2 86.19 15.3
1 -9 -2 784.32 49.3
8 1 -2 790.62 47.3
9 -8 -2 680.63 47.8
-9 8 -2 745.13 52.49
-9 8 -2 750.62 50.59
-8 -1 -2 822.62 44.2
-8 -1 -2 724.83 43.9
1 -9 -2 839.72 50.39
-1 9 -2 715.43 51.39
-9 8 2 728.33 47.8
-1 9 2 700.13 41.3
1 -9 2 684.43 45.3
-8 -1 2 659.53 41
-9 8 2 627.54 44.2
9 -8 2 626.64 48.6
9 -8 2 616.74 45.4
-8 -1 2 671.13 40.2
1 -9 2 691.53 54.69
0 9 -2 1136.79 64.79
-9 9 -2 1093.39 69.69
-9 0 -2 1116.59 63.89
9 -9 -2 1105.39 72.49
0 -9 -2 1208.38 68.09
-9 0 -2 1104.49 62.19
0 -9 -2 1209.88 67.49
-9 9 -2 1172.18 73.49
9 0 -2 1280.07 67.89
9 -9 -2 1082.19 67.59
0 -9 2 1153.18 65.09
9 -9 2 895.11 84.19
0 -9 2 1178.78 65.59
-9 0 2 1023.6 60.69
9 -9 2 888.61 70.89
-9 9 2 997.8 64.19
0 9 2 1137.89 59.59
-9 9 2 1164.78 68.89
-9 0 2 1060.19 59.79
-9 10 -2 474.45 44.5
-10 1 -2 444.96 29.9
-1 -9 -2 437.76 33.3
1 9 -2 445.66 31.9
9 -10 -2 445.66 41.5
-10 1 -2 416.96 32.5
-1 -9 -2 445.96 34.9
10 -1 -2 455.55 37.4
9 -10 -2 353.96 35.4
-9 10 -2 442.46 38.3
-9 10 2 359.96 37.6
-9 10 2 320.57 33.1
9 -10 2 374.96 35.4
-1 -9 2 405.66 32.4
1 9 2 390.66 26.7
9 -10 2 383.16 39.7
10 -1 2 348.67 27.8
-10 1 2 321.07 27.4
-1 -9 2 403.86 33.4
-10 1 2 347.17 30.2
-2 -8 -2 311.07 26.1
10 -2 -2 277.97 31.9
8 -10 -2 272.27 33.9
-10 2 -2 301.17 27.3
-10 2 -2 294.07 24.8
-8 10 -2 272.17 31.5
8 -10 -2 304.77 31.3
-2 -8 -2 397.96 29.5
2 8 -2 311.77 25.4
-8 10 -2 294.57 38.8
8 -10 2 320.57 31.5
2 8 2 339.27 23.5
-10 2 2 310.47 28.4
-2 -8 2 373.56 30.2
10 -2 2 330.67 28.2
-10 2 2 305.77 25.9
-2 -8 2 320.17 29.3
-8 10 2 334.07 36.4
8 -10 2 324.97 35.6
-8 10 2 310.47 31.1
-10 3 -2 624.24 39.9
-7 10 -2 705.93 53.49
-10 3 -2 654.73 42.6
-3 -7 -2 643.14 39.9
3 7 -2 628.94 39
-3 -7 -2 667.33 41.5
7 -10 -2 631.64 47.5
10 -3 -2 621.54 47.4
-7 10 -2 577.84 45.2
7 -10 -2 588.34 44.5
-10 3 2 591.94 40.8
7 -10 2 638.04 48.4
-7 10 2 512.25 57.19
-10 3 2 554.44 38.8
-3 -7 2 614.64 40.6
-3 -7 2 637.94 40.8
7 -10 2 652.43 44.2
-7 10 2 552.14 41.7
10 -3 2 586.94 41.5
3 7 2 618.44 34.8
10 -4 -2 1214.98 76.19
-4 -6 -2 1318.67 76.79
6 -10 -2 1277.87 72.79
-10 4 -2 1158.68 69.29
6 -10 -2 1202.08 73.29
-4 -6 -2 1185.88 65.89
-10 4 -2 1188.68 67.89
-6 10 -2 1260.07 79.79
-6 10 -2 1173.18 72.49
4 6 -2 1158.28 65.79
-10 4 2 1068.99 60.89
-4 -6 2 1079.29 60.39
6 -10 2 1022.9 66.69
4 6 2 1079.79 54.59
6 -10 2 1106.49 64.99
10 -4 2 1038.1 63.79
-10 4 2 1033.9 61.79
-4 -6 2 1160.58 60.89
-6 10 2 1066.69 68.99
4 6 2 873.41 54.59
-6 10 2 1020.9 62.29
10 -5 -2 560.34 47.9
-5 10 -2 572.44 42.3
-5 10 -2 680.03 55.69
5 5 -2 599.14 37.5
-5 -5 -2 664.03 38
-5 -5 -2 599.04 36.6
10 -5 -2 549.95 38.3
5 -10 -2 577.64 44.3
5 -10 -2 673.43 44.6
-10 5 -2 637.54 42.7
5 -10 2 672.13 46.8
10 -5 2 561.34 45.5
-5 -5 2 722.03 42.6
-5 10 2 703.53 50.89
-5 10 2 628.94 43.5
5 -10 2 686.53 48.7
-5 -5 2 662.83 41.4
-10 5 2 617.14 44.3
-10 5 2 675.43 43.7
-6 -4 -2 384.06 26.7
-10 6 -2 426.26 32.3
-10 6 -2 275.57 37.3
4 -10 -2 384.46 34.8
-6 -4 -2 387.66 25.9
-4 10 -2 354.16 31.3
4 -10 -2 390.16 33.6
10 -6 -2 366.76 29.3
-10 6 2 407.86 32.6
-10 6 2 360.86 31.7
10 -6 2 288.97 31.4
-6 -4 2 386.36 27.9
4 -10 2 449.16 34.7
-4 10 2 368.36 29.8
-6 -4 2 392.76 28.5
6 4 2 356.86 21.4
-4 10 2 365.36 37.2
4 -10 2 393.56 36.1
-3 10 -2 531.55 38.9
-7 -3 -2 518.35 33.4
-10 7 -2 577.54 40.9
3 -10 -2 571.34 41.5
-7 -3 -2 516.95 33.2
3 -10 -2 582.34 41.3
-10 7 -2 550.04 42
7 3 -2 567.74 36.8
10 -7 -2 499.95 37.3
10 -7 2 445.26 40.7
-10 7 2 459.75 37.2
-7 -3 2 493.75 33
-7 -3 2 503.05 33
3 -10 2 510.05 38.5
-10 7 2 535.75 39.3
10 -7 2 489.45 34.3
-3 10 2 424.96 37.1
3 -10 2 524.45 52.39
8 2 -2 461.75 31.5
2 -10 -2 421.56 36.2
10 -8 -2 409.16 33.5
10 -8 -2 425.26 40.3
-8 -2 -2 428.46 29.5
-10 8 -2 420.76 38
-10 8 -2 364.46 35.9
2 -10 -2 483.55 36.4
-8 -2 -2 434.86 28.6
-8 -2 2 366.16 28.8
2 -10 2 457.65 37.9
-10 8 2 412.26 36.7
10 -8 2 400.36 31.4
-8 -2 2 411.76 29.1
2 -10 2 428.16 34.9
-10 8 2 321.57 33
-2 10 2 366.96 29.8
10 -8 2 409.96 38.2
-1 10 -2 407.66 31.5
-9 -1 -2 388.06 29.6
1 -10 -2 448.46 35.5
10 -9 -2 425.86 41
-9 -1 -2 412.16 28.4
-10 9 -2 377.76 37.5
9 1 -2 437.86 32.5
10 -9 -2 401.56 33.8
1 -10 -2 415.56 35.9
1 -10 2 420.96 36.3
-9 -1 2 400.96 29.6
1 -10 2 460.05 36.9
-10 9 2 426.36 38.4
-10 9 2 355.66 35
-1 10 2 428.46 30.2
10 -9 2 433.56 40.8
10 -9 2 346.97 35.1
-9 -1 2 375.46 30.5
10 0 -2 279.67 29.1
-10 10 -2 215.48 35.1
-10 10 -2 268.17 32.8
0 -10 -2 263.27 28.5
0 10 -2 271.27 25.4
-10 0 -2 255.87 25.2
0 -10 -2 315.37 30
10 -10 -2 309.67 37.1
-10 0 -2 262.67 23
10 -10 -2 210.28 28.9
-10 10 2 261.27 34.3
0 -10 2 310.37 30.2
10 0 2 245.18 20.6
0 10 2 256.17 24.2
0 -10 2 295.17 29.9
-10 0 2 217.68 23.3
-10 10 2 217.08 29.9
10 -10 2 256.37 35.9
-10 0 2 261.77 26.2
-10 11 -2 71.79 19.9
11 -1 -2 46.5 15.4
-1 -10 -2 51.89 13.8
-10 11 -2 13.1 21.3
10 -11 -2 34.2 18.4
-11 1 -2 31.5 10.9
10 -11 -2 8.2 13.3
-1 -10 -2 64.59 15.5
1 10 -2 28.3 11.4
-11 1 -2 43.1 13.7
1 10 2 74.09 11.9
-11 1 2 50.29 15.2
10 -11 2 91.39 21.4
-10 11 2 85.09 19
-11 1 2 62.19 13
-1 -10 2 58.59 15.9
11 -1 2 59.69 11.3
-1 -10 2 68.39 15.8
-10 11 2 41.2 19.4
9 -11 -2 97.79 19.6
-11 2 -2 120.89 17.4
2 9 -2 100.19 14.3
-9 11 -2 78.49 38.3
-11 2 -2 84.69 13.9
9 -11 -2 75.09 19.4
11 -2 -2 129.59 22
-2 -9 -2 86.69 16.5
-9 11 -2 90.79 19.6
-2 -9 -2 127.39 21.1
-2 -9 2 125.69 18.5
-9 11 2 104.49 18.4
-11 2 2 128.99 19
-11 2 2 95.59 15.1
9 -11 2 99.19 19
2 9 2 125.89 16.1
-9 11 2 93.09 20.5
9 -11 2 151.48 26
-2 -9 2 137.19 24.3
11 -2 2 87.09 15
-3 -8 -2 195.18 22.2
-11 3 -2 190.58 21.8
-8 11 -2 200.18 34.9
3 8 -2 152.58 25.1
11 -3 -2 182.68 30.2
-8 11 -2 170.28 29.1
-3 -8 -2 190.48 24.2
-11 3 -2 161.08 24.4
8 -11 -2 159.08 27.5
8 -11 -2 148.69 24.4
-3 -8 2 94.29 16.4
-3 -8 2 153.18 22.5
3 8 2 108.49 14.4
8 -11 2 109.49 23.5
-11 3 2 107.39 15.6
-11 3 2 86.69 16
-8 11 2 114.59 22.5
8 -11 2 99.89 17.8
-8 11 2 76.79 15.2
11 -3 2 124.59 21.2
11 -4 -2 664.13 53.39
4 7 -2 701.93 42.6
-11 4 -2 662.33 44.1
-7 11 -2 725.13 49.7
7 -11 -2 689.13 50.59
7 -11 -2 618.74 51.29
-11 4 -2 663.43 47.1
-4 -7 -2 716.73 43.4
-4 -7 -2 774.82 45.4
-7 11 -2 698.13 55.99
7 -11 2 593.24 45.6
-4 -7 2 603.44 41.1
-7 11 2 607.84 43.4
11 -4 2 567.34 43.4
-4 -7 2 644.84 41.5
-11 4 2 593.74 43
7 -11 2 564.04 48.5
-11 4 2 658.13 46.1
4 7 2 546.55 33.1
-11 5 -2 520.45 41.4
-6 11 -2 509.35 51.19
6 -11 -2 582.44 43.9
-5 -6 -2 535.25 35.5
-11 5 -2 536.55 38.6
6 -11 -2 577.84 44.9
-5 -6 -2 643.04 37.5
-6 11 -2 501.15 41.8
5 6 -2 536.05 35.4
-5 -6 2 500.95 36.5
-11 5 2 496.25 37.7
-6 11 2 524.75 39.2
-5 -6 2 531.35 36.6
-11 5 2 500.45 39.2
6 -11 2 560.84 43.1
11 -5 2 480.45 40.7
6 -11 2 514.85 45
5 -11 -2 344.07 33.7
-5 11 -2 286.67 30.8
-6 -5 -2 312.77 24.7
-11 6 -2 274.87 31.9
-11 6 -2 328.97 30.4
-6 -5 -2 352.16 26.2
6 5 -2 309.27 24.4
5 -11 -2 341.57 34.5
-5 11 2 218.08 25.9
11 -6 2 222.28 30.7
-11 6 2 222.18 27.2
-11 6 2 252.17 28.8
5 -11 2 276.57 44.1
-6 -5 2 279.77 25.2
5 -11 2 238.28 30.6
-6 -5 2 254.77 25.3
-7 -4 -2 569.04 34.3
4 -11 -2 550.24 42.2
7 4 -2 529.55 33.3
-11 7 -2 509.15 41.5
-4 11 -2 491.55 39.1
-11 7 -2 483.65 39.8
-7 -4 -2 461.05 32.8
4 -11 -2 509.45 42.2
-7 -4 2 551.64 37.7
11 -7 2 559.34 44.9
-11 7 2 593.64 42.9
4 -11 2 559.84 43.8
4 -11 2 595.14 47.4
-11 7 2 521.45 42
-7 -4 2 543.65 37.3
-3 11 -2 396.46 31.2
-11 8 -2 332.47 34
8 3 -2 375.16 27.7
3 -11 -2 396.56 35.1
11 -8 -2 329.17 38.2
-8 -3 -2 336.27 26.5
3 -11 -2 401.96 36.6
-8 -3 -2 333.37 26.2
-11 8 -2 335.67 35.7
3 -11 2 382.06 34.1
-8 -3 2 344.67 27.4
-11 8 2 297.67 32.8
11 -8 2 294.97 36.2
-11 8 2 395.66 38.6
-8 -3 2 293.57 27.4
-3 11 2 276.57 28.2
3 -11 2 412.56 38.3
-11 9 -2 43.8 17.1
2 -11 -2 27.7 12.8
-9 -2 -2 39.1 10.9
9 2 -2 41.3 11.2
-2 11 -2 61.19 14.1
11 -9 -2 27.7 18
2 -11 -2 34 16.7
-9 -2 -2 49.6 10.6
-11 9 -2 89.59 19.5
11 -9 2 23 16.7
-9 -2 2 37.4 12
2 -11 2 55.89 16.8
-9 -2 2 37.3 11.6
-2 11 2 50.29 11.7
-11 9 2 29.6 15.1
2 -11 2 37.2 17.4
-11 9 2 49.3 17.2
-11 10 -2 102.09 23.9
11 -10 -2 103.79 22.3
1 -11 -2 141.99 21.3
1 -11 -2 105.79 18.1
-10 -1 -2 93.49 15.3
-1 11 -2 104.49 16.1
10 1 -2 97.29 16.5
-11 10 -2 66.99 20.2
-10 -1 -2 106.29 17.7
-11 10 2 112.09 22
11 -10 2 102.79 23.8
-10 -1 2 132.69 22
1 -11 2 115.59 29.2
-1 11 2 115.69 19
1 -11 2 116.39 18.7
-10 -1 2 118.69 20
-11 10 2 88.89 21.2
-11 0 -2 100.69 14.6
0 -11 -2 110.69 20
-11 0 -2 114.19 17.6
11 -11 -2 57.99 20.6
-11 11 -2 61.29 21.5
-11 11 -2 94.39 19
0 11 -2 123.69 20.9
11 0 -2 110.99 18
0 -11 -2 114.39 19.2
0 -11 2 147.89 26.9
0 11 2 89.89 13.7
-11 0 2 84.39 14.6
0 -11 2 114.19 20.9
-11 0 2 117.79 18.5
11 -11 2 109.09 23.5
-11 11 2 77.49 31.4
-11 11 2 87.09 19.9
2 10 -2 12.3 10.4
10 -12 -2 -1 26.2
-2 -10 -2 -2.5 12.8
-10 12 -2 0.1 16.5
10 -12 -2 16.2 15.7
-12 2 -2 8.3 13
12 -2 -2 8.7 24.2
-2 -10 -2 12.7 12.5
-2 -10 2 8.7 13.2
10 -12 2 9.4 18.8
12 -2 2 -11.3 9.1
-12 2 2 1.5 10.1
-2 -10 2 15.1 14.5
-10 12 2 13.6 16.3
2 10 2 14.3 8.8
-12 2 2 -6.5 12.8
3 9 -2 106.69 14.6
-3 -9 -2 78.19 16.1
-12 3 -2 79.99 24.8
9 -12 -2 47.9 17.9
12 -3 -2 58.89 25.5
-3 -9 -2 77.19 23.4
-9 12 -2 46.3 17.2
-12 3 -2 70.49 14.3
9 -12 -2 79.39 22
9 -12 2 66.69 20
-9 12 2 55.89 15.9
-12 3 2 46.3 15.5
-3 -9 2 88.79 23
12 -3 2 63.19 14.3
-12 3 2 64.19 13.5
9 -12 2 70.19 17.9
-3 -9 2 78.39 16.8
-4 -8 -2 184.38 24.5
-12 4 -2 172.18 23.7
8 -12 -2 177.58 27.5
8 -12 -2 144.99 24.5
-8 12 -2 176.98 30.3
-4 -8 -2 161.78 23
-12 4 -2 199.38 28.5
4 8 -2 184.08 21.3
-12 4 2 149.88 26.2
-4 -8 2 153.48 24.9
-4 -8 2 145.39 24.7
-8 12 2 153.18 27.3
12 -4 2 125.79 20.8
8 -12 2 110.19 24
8 -12 2 110.09 21.2
-12 4 2 130.29 18.4
-7 12 -2 125.19 20.2
-5 -7 -2 138.69 20.9
-12 5 -2 131.49 22.1
-5 -7 -2 164.98 22.5
-12 5 -2 168.28 27.9
7 -12 -2 116.79 21.9
7 -12 -2 131.49 21.5
7 -12 2 173.28 28.4
12 -5 2 105.89 20.7
-12 5 2 113.89 19.2
7 -12 2 165.18 26.6
-7 12 2 150.98 26.4
-5 -7 2 161.98 24.3
-5 -7 2 145.09 23.8
-12 5 2 158.98 24.7
6 -12 -2 -7.1 13.8
-6 -6 -2 5.9 9.4
-6 -6 -2 1 9.9
-12 6 -2 0.9 13.9
-6 12 -2 -9.2 12.7
-12 6 -2 1.7 12.3
6 -12 -2 9.6 15
6 6 -2 5.5 8.4
-12 6 2 -0.9 12.4
6 -12 2 7.4 12.8
-12 6 2 11.8 15.2
-6 -6 2 9.6 12.7
-6 12 2 9.6 12.5
6 -12 2 0.6 17
-6 -6 2 0.8 11.2
12 -6 2 1 12.9
5 -12 -2 491.95 40.1
7 5 -2 394.76 28.1
5 -12 -2 419.16 40.2
-12 7 -2 440.56 39.3
-7 -5 -2 377.46 29.5
-7 -5 -2 436.66 31.1
-5 12 -2 399.66 37.1
12 -7 -2 406.26 41.7
-12 7 -2 372.86 34.9
-5 12 2 437.16 35.8
5 -12 2 457.35 40.4
-7 -5 2 437.66 34.4
-7 -5 2 489.15 39.1
-12 7 2 433.76 39.7
-12 7 2 419.36 37.1
5 -12 2 500.55 46.1
12 -7 2 368.16 41.6
8 4 -2 378.96 32.4
12 -8 -2 481.35 46.5
4 -12 -2 528.65 43.1
-8 -4 -2 515.75 33.5
-4 12 -2 459.65 38.4
-12 8 -2 450.05 42.6
-12 8 -2 467.95 39.8
4 -12 -2 463.95 43.5
-8 -4 -2 477.05 32.3
-12 8 2 552.54 45.6
12 -8 2 527.25 48.3
4 -12 2 698.03 52.49
-12 8 2 451.25 50.79
-8 -4 2 607.04 39.6
-8 -4 2 565.74 39.3
4 -12 2 531.75 45.4
-12 9 -2 233.28 34.9
12 -9 -2 186.28 29.1
-12 9 -2 184.58 28.9
-9 -3 -2 178.48 29.1
3 -12 -2 209.98 33
-9 -3 -2 171.08 21
3 -12 -2 196.78 30.1
12 -9 2 121.89 26.3
-3 12 2 139.09 23.5
-9 -3 2 169.38 22.9
-12 9 2 143.49 23.9
3 -12 2 207.08 30.2
3 -12 2 207.08 33.3
-12 9 2 181.78 30.5
-2 12 -2 105.59 17.4
12 -10 -2 119.69 26.4
-10 -2 -2 108.19 14.5
2 -12 -2 90.59 19.7
-12 10 -2 87.19 22
-10 -2 -2 106.39 15.9
10 2 -2 106.49 19.7
2 -12 -2 105.19 21.2
-12 10 -2 111.09 22.4
-12 10 2 66.39 18.5
-12 10 2 66.69 18.8
2 -12 2 67.49 18.3
-10 -2 2 107.39 17.2
2 -12 2 89.19 19
-10 -2 2 91.09 15
12 -10 2 88.59 23.6
-2 12 2 101.89 15.7
5 8 -2 94.49 13.4
-13 6 -2 31.6 13.5
-6 -7 -2 58.19 12.9
-13 6 -2 44.1 18.4
-6 -7 -2 28.7 12.3
13 -6 -2 11.8 16.3
7 -13 -2 17.7 16.9
-7 13 -2 37.2 17.1
6 7 -2 66.09 15.2
7 -13 -2 37.6 19.4
-6 -7 2 57.69 15
13 -6 2 47.4 17.9
7 -13 2 42.8 17.6
7 -13 2 98.59 25.9
-13 6 2 52.39 16.9
-13 6 2 68.29 25
-6 -7 2 44.9 14.1
-7 13 2 28.2 14.7
-6 13 -2 63.79 18.3
-7 -6 -2 69.19 13.3
-13 7 -2 49.6 27.3
13 -7 -2 36.1 13.9
6 -13 -2 40.1 20.8
6 -13 -2 31.8 20.2
-7 -6 -2 42.2 13.1
-13 7 -2 48.3 16
-7 -6 2 65.99 15.6
-7 -6 2 60.19 15
13 -7 2 57.49 19
-13 7 2 75.39 20.4
-13 7 2 65.19 17.8
6 -13 2 91.89 24.1
6 -13 2 57.49 19.7
-6 13 2 80.49 17.4
-13 8 -2 81.89 22.6
-13 8 2 53.29 21.3
0 0 -3 58.29 4
0 0 3 52.59 3.8
0 1 -3 62.29 5.7
-1 0 -3 71.39 4.5
0 1 -3 73.79 5.8
1 0 -3 86.99 5.6
-1 0 -3 73.89 4.7
-1 1 -3 65.09 5.8
1 0 -3 74.89 5.6
0 -1 -3 77.29 4.7
-1 1 -3 79.59 6
1 -1 -3 77.39 5.3
0 -1 3 68.59 5.6
0 1 3 66.69 4.4
-1 0 3 67.19 5.3
0 -1 3 64.19 5.6
-1 0 3 82.89 5.5
1 -1 3 63.99 5.4
1 0 3 75.59 4.2
1 0 3 68.59 4.1
-1 1 3 65.79 4.8
-1 1 3 67.99 5.5
0 1 3 68.19 4.4
1 1 -3 2279.67 111.89
2 -1 -3 2237.68 112.19
-2 1 -3 2192.78 112.09
1 1 -3 2313.87 111.99
-2 1 -3 2242.48 111.69
2 -1 -3 2376.56 111.89
1 -2 -3 2473.05 111.89
1 -2 -3 2398.46 112.19
-1 2 -3 2142.29 112.69
-1 2 -3 1935.11 112.79
2 -1 3 2612.94 122.29
1 -2 3 2209.08 124.19
-1 -1 3 2383.46 122.79
-1 2 3 2468.75 123.09
-2 1 3 2583.84 122.79
1 -2 3 2475.35 123.59
-2 1 3 2654.23 123.29
-2 2 -3 1650.93 86.59
-2 0 -3 1829.92 84.59
2 -2 -3 1707.33 86.59
0 -2 -3 1883.11 85.69
0 2 -3 1533.85 86.39
0 -2 -3 1722.93 85.29
0 2 -3 1625.44 87.09
2 -2 -3 1833.22 85.99
-2 2 -3 1579.94 87.89
2 0 -3 1787.72 86.09
2 0 -3 1766.92 85.79
-2 0 3 2117.69 98.59
2 -2 3 1858.61 98.29
0 -2 3 1783.12 97.69
0 2 3 1915.81 96.39
0 2 3 2024.2 96.19
-2 2 3 2105.99 97.09
2 0 3 1741.43 95.69
2 0 3 2157.58 95.39
-2 0 3 1972.8 96.99
-2 2 3 2069.49 97.89
0 -2 3 1709.13 97.79
2 -2 3 1947.41 97.39
2 -3 -3 4250.27 196.68
-3 1 -3 3951.2 196.28
-1 -2 -3 3969.7 194.98
-3 1 -3 3996.4 195.58
2 -3 -3 3970 197.28
-2 3 -3 3880.01 197.28
-2 3 -3 3958 198.38
-1 -2 -3 3593.44 194.88
3 -1 -3 4266.57 196.08
1 2 -3 3968.1 196.68
-1 -2 3 3333.97 172.98
2 -3 3 3546.85 173.78
3 -1 3 3338.37 172.78
-1 -2 3 3299.77 172.68
1 2 3 3201.18 170.78
-2 3 3 3658.93 172.78
-3 1 3 3688.33 172.68
-2 3 3 3429.06 173.78
2 -3 3 3159.38 174.38
3 -1 3 3801.02 171.58
1 2 3 3740.53 170.88
-3 1 3 3751.52 173.18
-1 3 -3 584.14 34.5
3 -2 -3 610.04 34.5
-2 -1 -3 609.64 31.2
1 -3 -3 620.44 33.5
-3 2 -3 631.74 33.8
1 -3 -3 665.33 34.6
-2 -1 -3 712.33 31.4
3 -2 -3 648.04 33.5
2 1 -3 638.54 33.3
-1 3 -3 565.54 35.2
-3 2 3 708.23 36.5
-2 -1 3 721.83 36.4
3 -2 3 725.43 36.3
1 -3 3 639.04 38.6
-3 2 3 712.83 37.4
-2 -1 3 703.23 36.4
1 -3 3 646.54 37.6
-1 3 3 678.33 36.3
-1 3 3 701.23 37.3
0 -3 -3 6612.84 327.97
-3 3 -3 6428.66 329.37
3 -3 -3 6688.33 329.97
0 3 -3 6601.34 329.27
3 -3 -3 7137.39 328.87
-3 3 -3 6620.74 330.47
0 3 -3 6746.62 330.17
-3 0 -3 6817.22 326.97
3 0 -3 6737.63 328.07
-3 0 -3 6739.13 326.77
0 -3 -3 6491.15 328.17
3 0 3 7001.3 318.27
-3 3 3 6835.02 320.47
0 3 3 6902.11 320.17
0 3 3 6551.94 319.37
3 -3 3 6423.66 320.57
3 0 3 6506.55 319.07
0 -3 3 6022.9 321.67
0 -3 3 6098.69 321.07
-3 3 3 6781.32 321.67
-3 0 3 6640.74 320.17
3 -3 3 6187.68 322.17
-3 0 3 6339.67 319.87
1 3 -3 8926.51 424.46
-1 -3 -3 8554.84 421.96
-4 1 -3 8346.96 421.76
-3 4 -3 8535.35 424.26
-3 4 -3 8706.93 425.76
3 -4 -3 8589.94 424.86
4 -1 -3 7916.01 423.16
4 -1 -3 9170.18 422.46
3 -4 -3 9157.38 423.66
-4 1 -3 9290.07 422.56
-1 -3 -3 7669.63 421.66
-1 -3 3 7345.46 400.16
4 -1 3 8291.57 399.86
3 -4 3 7511.55 401.96
1 3 3 7757.62 397.96
-1 -3 3 8102.19 400.16
-3 4 3 8456.95 399.96
3 -4 3 8004.7 400.66
-4 1 3 8264.07 399.56
4 -1 3 9019.8 398.06
1 3 3 8618.04 398.66
-3 4 3 8281.57 401.76
-4 1 3 8114.19 400.26
4 -2 -3 3351.66 158.58
4 -2 -3 3222.38 160.08
-4 2 -3 3268.97 159.88
2 -4 -3 3445.26 160.78
2 -4 -3 2931.81 161.38
-2 -2 -3 2978.7 156.78
-2 4 -3 3380.76 162.08
-2 4 -3 3200.58 160.18
-2 -2 -3 3087.49 156.78
-4 2 -3 3158.58 158.68
2 2 -3 3150.48 158.68
-2 -2 3 2995.8 147.19
2 -4 3 2673.53 149.69
-2 -2 3 2864.91 147.39
-4 2 3 2966.1 147.49
2 -4 3 2936.21 149.19
-4 2 3 3016.8 148.29
4 -2 3 3189.98 146.79
-2 4 3 3073.19 149.39
-1 4 -3 382.96 25
-1 4 -3 366.56 25.9
-3 -1 -3 445.26 21.4
-4 3 -3 406.46 24.6
3 1 -3 410.16 23.2
1 -4 -3 391.56 23.9
1 -4 -3 404.56 24.5
4 -3 -3 401.86 25.9
4 -3 -3 437.06 24.2
-4 3 -3 404.06 26.7
-3 -1 -3 410.26 21.2
4 -3 3 538.45 28.8
-3 -1 3 531.15 28.6
1 -4 3 488.85 30.3
-1 4 3 527.05 30.2
-3 -1 3 508.45 28.5
1 -4 3 503.15 31.6
-4 3 3 499.05 28.9
-4 3 3 518.75 30.4
-4 4 -3 6711.83 334.57
-4 0 -3 6966.1 329.07
0 4 -3 6055.39 331.27
0 4 -3 7232.48 333.47
0 -4 -3 5931.41 330.67
-4 4 -3 6588.74 332.17
-4 0 -3 6413.66 330.17
4 0 -3 7080.89 330.27
4 -4 -3 7149.98 331.57
4 -4 -3 6716.63 333.17
0 -4 -3 7125.29 331.07
-4 4 3 6858.31 336.17
-4 0 3 6651.93 333.77
0 -4 3 6632.94 335.27
4 -4 3 6903.51 334.77
-4 4 3 6816.52 334.47
4 -4 3 6229.48 336.57
4 0 3 7144.59 331.87
0 4 3 6744.63 333.37
0 -4 3 6640.94 336.27
0 4 3 7380.06 334.77
-4 0 3 6727.93 333.87
-1 -4 -3 3672.43 185.08
-5 1 -3 3882.51 184.48
-4 5 -3 3584.44 190.08
1 4 -3 4069.89 188.18
-5 1 -3 3698.53 184.38
4 -5 -3 3688.93 188.68
5 -1 -3 3791.22 184.88
-1 -4 -3 3292.07 184.58
4 -5 -3 3869.81 186.78
-4 5 -3 3721.73 187.58
4 -5 3 3505.65 188.58
-1 -4 3 3658.53 186.88
4 -5 3 3769.12 186.88
-5 1 3 3653.83 185.28
-4 5 3 3850.11 186.28
-4 5 3 3820.62 188.58
1 4 3 3766.52 184.08
5 -1 3 3881.31 184.08
-1 -4 3 3727.13 186.38
-5 1 3 3656.73 185.68
5 -2 -3 2783.42 132.49
2 3 -3 2630.74 133.69
-3 5 -3 2864.81 137.29
3 -5 -3 2780.02 135.79
2 3 -3 2609.84 132.99
5 -2 -3 2604.44 134.29
-5 2 -3 2539.65 132.39
-2 -3 -3 2467.95 131.19
-3 5 -3 2661.23 134.69
-2 -3 -3 2551.94 131.29
-5 2 -3 2723.53 133.19
3 -5 -3 2561.64 133.59
5 -2 3 2864.61 149.49
3 -5 3 2633.74 150.98
3 -5 3 3097.69 150.38
2 3 3 2906.61 146.09
-3 5 3 3014.4 151.08
-2 -3 3 2857.41 148.19
-3 5 3 3003 148.89
-5 2 3 3076.29 149.09
-5 2 3 2927.91 148.29
-2 -3 3 2787.02 148.49
5 -2 3 3100.99 147.09
2 3 3 3322.27 145.79
-2 5 -3 16.5 6.2
2 -5 -3 11 5.6
5 -3 -3 25.9 8
-5 3 -3 24.6 8.3
3 2 -3 16.7 5.8
-3 -2 -3 19.5 3.3
-3 -2 -3 22.4 3.4
3 2 -3 8.1 4.2
2 -5 -3 11.4 5.4
-5 3 -3 9.5 4.8
5 -3 -3 7.1 4.4
-2 5 -3 14.6 6.6
5 -3 3 48.1 8.2
-2 5 3 46.3 9.1
2 -5 3 36 7.5
-5 3 3 41.1 7.3
-3 -2 3 50.49 8.2
2 -5 3 42.3 8.9
-3 -2 3 49.99 8
-5 3 3 35.8 6.5
-4 -1 -3 1028.4 52.29
5 -4 -3 1049.2 58.09
-1 5 -3 991.2 56.39
1 -5 -3 1029.7 55.69
-1 5 -3 980.2 57.99
-4 -1 -3 1115.29 52.49
5 -4 -3 1079.29 55.49
1 -5 -3 1136.19 55.89
4 1 -3 931.01 55.49
-5 4 -3 984.6 57.89
1 -5 3 1040.8 58.89
-5 4 3 1115.29 57.69
5 -4 3 1197.68 57.69
-1 5 3 973.4 60.89
-1 5 3 1109.29 56.79
-4 -1 3 1083.09 56.59
1 -5 3 1064.59 62.29
5 -4 3 989.8 59.69
4 1 3 1116.59 54.19
-5 4 3 1113.39 59.49
-4 -1 3 1084.59 56.79
5 0 -3 3000.5 146.59
0 -5 -3 2749.12 147.39
5 0 -3 2631.84 149.49
-5 0 -3 3036.1 145.49
0 5 -3 3125.39 150.78
-5 5 -3 2829.32 149.39
5 -5 -3 2882.81 151.18
-5 5 -3 3098.19 152.68
-5 0 -3 2986.8 145.69
5 -5 -3 2951.6 148.39
0 -5 -3 3003.3 147.99
5 0 3 2916.11 140.99
-5 5 3 2838.22 144.29
0 5 3 2784.42 142.99
-5 0 3 2847.81 143.19
0 -5 3 2857.91 146.29
0 -5 3 2682.43 145.39
-5 0 3 2829.12 143.49
5 -5 3 3076.19 144.89
0 5 3 3153.98 144.99
-5 5 3 2795.82 146.39
5 -5 3 2672.93 146.89
5 -6 -3 536.65 33.7
1 5 -3 567.24 32.8
1 5 -3 618.84 35.6
-6 1 -3 549.25 30.8
-5 6 -3 528.15 34.9
-6 1 -3 539.65 30.4
6 -1 -3 498.35 33
-5 6 -3 590.74 39.4
-1 -5 -3 493.55 31.5
-1 -5 -3 507.45 31.7
5 -6 -3 433.36 40.5
6 -1 -3 538.45 31.1
1 5 3 542.65 31
-1 -5 3 539.05 32.8
-5 6 3 497.25 31.8
1 5 3 538.85 29
6 -1 3 518.75 27.9
5 -6 3 491.55 32
-5 6 3 497.45 34.9
-1 -5 3 534.25 32
-6 1 3 494.45 30.5
-6 1 3 499.15 30.3
5 -6 3 441.06 34.1
-6 2 -3 1465.85 71.19
2 4 -3 1491.45 73.19
-2 -4 -3 1294.47 69.99
2 4 -3 1336.17 71.19
4 -6 -3 1336.17 72.69
6 -2 -3 1147.49 72.29
-6 2 -3 1397.06 70.89
6 -2 -3 1386.56 70.49
-4 6 -3 1397.56 73.69
-2 -4 -3 1338.47 69.99
-6 2 3 1515.85 81.29
-2 -4 3 1605.44 82.19
6 -2 3 1677.83 79.69
4 -6 3 1625.84 83.69
-4 6 3 1522.65 82.29
-2 -4 3 1445.36 81.89
6 -2 3 1515.05 82.59
2 4 3 1644.74 78.79
4 -6 3 1397.56 84.79
-6 2 3 1602.64 81.99
-4 6 3 1709.53 87.79
2 4 3 1615.84 79.89
6 -3 -3 585.54 37.2
3 3 -3 594.74 34.5
-3 -3 -3 578.04 31.9
3 3 -3 595.44 33.8
-3 -3 -3 595.14 31.6
6 -3 -3 601.84 36.4
-3 6 -3 652.63 39.9
-6 3 -3 579.04 35.5
3 -6 -3 581.74 35.5
3 -6 -3 602.54 36.7
-6 3 -3 547.65 34.3
-3 6 -3 595.64 36.3
6 -3 3 718.03 46
-3 6 3 870.31 48.3
3 -6 3 711.93 47.3
-6 3 3 851.31 45.7
6 -3 3 864.21 43.2
-3 -3 3 777.72 43.6
-3 -3 3 789.22 44
-6 3 3 796.82 44.5
-3 6 3 797.22 44.9
3 -6 3 828.12 47
-2 6 -3 35 8
-4 -2 -3 56.59 6.8
2 -6 -3 35.9 7.9
6 -4 -3 53.59 12
2 -6 -3 48.3 8.6
4 2 -3 51.19 9
-6 4 -3 53.79 9.4
-6 4 -3 59.49 11.4
-2 6 -3 25.2 10.8
4 2 -3 54.29 8.1
-4 -2 -3 56.89 6.9
6 -4 -3 47.6 7.9
-6 4 3 73.39 11
2 -6 3 41.5 9.5
-6 4 3 38.2 7.7
2 -6 3 49.5 9.5
4 2 3 55.69 5.5
-4 -2 3 50.09 7.6
-2 6 3 56.19 11.1
-2 6 3 61.89 12.2
6 -4 3 66.49 10.6
-4 -2 3 58.69 9.8
1 -6 -3 256.47 20.6
-6 5 -3 262.37 24.9
-5 -1 -3 270.87 16.9
1 -6 -3 285.27 21.1
-1 6 -3 279.27 24.2
6 -5 -3 276.67 21.2
5 1 -3 282.07 20
-6 5 -3 279.07 22.2
6 -5 -3 260.77 25.7
-1 6 -3 257.17 21.2
-5 -1 -3 295.67 17.1
5 1 -3 270.77 18.6
-1 6 3 327.37 21.7
6 -5 3 322.97 22.9
-5 -1 3 358.76 21.9
1 -6 3 320.07 26.1
-6 5 3 304.47 23.1
1 -6 3 348.17 24.6
-6 5 3 318.57 25.3
6 -5 3 311.87 25.8
-1 6 3 348.87 25.5
-5 -1 3 326.07 21.7
5 1 3 331.67 18.4
-6 6 -3 131.19 19.4
6 -6 -3 132.69 20.1
-6 6 -3 102.99 16.8
6 -6 -3 108.89 15.4
6 0 -3 107.79 14.3
-6 0 -3 104.49 10.9
0 6 -3 114.89 18.1
0 -6 -3 95.19 13.9
6 0 -3 87.89 11.6
-6 0 -3 92.69 10.9
0 -6 -3 116.49 13.5
6 -6 3 100.89 14.6
0 -6 3 117.99 16.1
-6 6 3 127.69 15.3
0 6 3 129.29 15.4
-6 6 3 116.49 18.5
-6 0 3 107.49 12.8
6 -6 3 82.09 13.7
0 6 3 119.59 12.5
6 0 3 106.79 9.1
-6 0 3 106.29 13.3
0 -6 3 125.39 17
-1 -6 -3 314.07 23.6
7 -1 -3 301.27 25.5
-7 1 -3 325.57 22.5
-1 -6 -3 344.17 24.4
1 6 -3 326.27 24.3
-7 1 -3 351.46 22
-6 7 -3 309.87 27.1
6 -7 -3 309.07 25.9
7 -1 -3 294.07 21.8
-6 7 -3 381.16 33.6
1 6 -3 405.96 28.6
-1 -6 3 358.16 25.6
6 -7 3 314.07 29
-6 7 3 336.97 25.5
-6 7 3 358.46 29.8
6 -7 3 340.27 26.3
-7 1 3 320.27 23.5
-7 1 3 313.57 23.6
1 6 3 337.47 24.3
1 6 3 356.06 22.2
7 -1 3 346.47 20.4
-1 -6 3 318.57 26
5 -7 -3 135.59 17.5
5 -7 -3 145.29 19.4
-5 7 -3 147.79 19
-2 -5 -3 141.29 13.9
7 -2 -3 127.89 13.9
-7 2 -3 139.19 14.7
2 5 -3 123.79 15.1
-7 2 -3 154.58 14.6
-2 -5 -3 129.29 13.7
-5 7 3 115.99 15.7
-2 -5 3 112.59 15.4
7 -2 3 114.39 11
-5 7 3 111.99 16.8
-7 2 3 80.59 14.2
-7 2 3 117.99 14.5
7 -2 3 106.09 14.3
2 5 3 110.69 10.6
-2 -5 3 107.19 14.6
5 -7 3 116.09 16.6
5 -7 3 110.09 18.6
2 5 3 113.79 12.9
-7 3 -3 189.48 17.7
4 -7 -3 160.68 19.5
3 4 -3 166.58 15.9
4 -7 -3 177.88 18.5
3 4 -3 163.28 17.2
7 -3 -3 182.98 21.1
7 -3 -3 196.98 16.2
-3 -4 -3 180.38 14.6
-4 7 -3 173.58 19.2
-3 -4 -3 162.08 13.9
-7 3 -3 191.48 17.3
-3 -4 3 179.68 16.8
-3 -4 3 214.88 17.7
-7 3 3 183.28 17.9
7 -3 3 189.48 18.6
4 -7 3 180.18 20.1
7 -3 3 207.98 15.2
3 4 3 176.58 13
4 -7 3 165.38 20.9
-7 3 3 179.58 17.9
-4 7 3 216.78 23.3
-4 7 3 189.28 18.4
-3 7 -3 22.5 8.2
3 -7 -3 16.4 8.1
-4 -3 -3 15.3 5.1
-4 -3 -3 24 5.2
-3 7 -3 16 9
7 -4 -3 20.5 7.2
3 -7 -3 26.2 8.7
-7 4 -3 14.8 9.7
4 3 -3 27.2 7.4
4 3 -3 21.6 6.8
-7 4 -3 22.4 7.3
7 -4 -3 18.3 11.7
3 -7 3 11.4 8.1
-3 7 3 31.6 7.4
7 -4 3 13.8 7.9
-4 -3 3 12.3 6.6
-7 4 3 30.8 8.9
-7 4 3 28.6 8.8
4 3 3 25.2 3.9
-4 -3 3 16.4 6.6
-3 7 3 21.5 11.9
3 -7 3 22.9 9.2
7 -4 3 26 6.7
5 2 -3 215.68 17.4
-7 5 -3 189.08 21.5
2 -7 -3 211.88 19.3
7 -5 -3 200.18 18.7
2 -7 -3 205.48 20
-2 7 -3 177.88 18.9
-2 7 -3 170.88 22.2
5 2 -3 174.88 15.6
-7 5 -3 201.68 19.7
-5 -2 -3 202.08 14
7 -5 -3 233.88 25.9
-5 -2 -3 197.08 14
-7 5 3 214.38 20.6
7 -5 3 143.79 19.9
5 2 3 213.38 12.3
-7 5 3 180.28 18.4
-2 7 3 173.08 21
-5 -2 3 171.08 15.8
7 -5 3 181.88 17.2
2 -7 3 201.48 20.5
-5 -2 3 184.38 16.3
2 -7 3 173.98 21.1
-2 7 3 181.08 21.6
1 -7 -3 1.3 6.9
-1 7 -3 14.5 6.9
1 -7 -3 15.8 7.9
6 1 -3 6.2 7.2
-6 -1 -3 6.2 5.2
-1 7 -3 15.2 10.4
-7 6 -3 9.6 11.9
7 -6 -3 -6.5 14.6
-7 6 -3 12.6 8.9
-6 -1 -3 5.3 5.1
6 1 -3 5.9 5.9
7 -6 -3 10.8 8.5
6 1 3 1.5 3.6
1 -7 3 4.2 7.4
-7 6 3 10.8 9.1
1 -7 3 -2.6 8.8
-1 7 3 8.9 10.6
-6 -1 3 10.4 6.9
7 -6 3 13.5 7.9
-7 6 3 7.6 8.2
-6 -1 3 3 6.2
7 -6 3 -4.5 8.7
-1 7 3 5.5 6.1
7 -7 -3 319.97 25.9
-7 7 -3 272.57 27.2
-7 7 -3 332.57 31.8
0 -7 -3 278.87 24.1
-7 0 -3 334.67 21
0 7 -3 299.87 24.5
0 7 -3 386.96 30.5
-7 0 -3 306.67 21.5
7 0 -3 315.27 21.8
0 -7 -3 315.57 25
7 0 -3 300.27 24.8
-7 7 3 302.37 25.6
-7 0 3 335.37 23.7
7 -7 3 320.27 25.7
-7 0 3 338.57 23.3
-7 7 3 305.77 31.8
7 -7 3 297.47 29.1
0 7 3 349.37 26.2
0 -7 3 324.77 27.1
0 7 3 315.67 22.2
7 0 3 307.27 19.1
8 -1 -3 1711.93 90.79
-7 8 -3 1696.53 92.09
7 -8 -3 1570.24 90.19
8 -1 -3 1418.86 88.89
-1 -7 -3 1652.63 88.79
-8 1 -3 1742.83 86.09
1 7 -3 1781.22 88.69
-8 1 -3 1627.04 86.99
-1 -7 -3 1728.33 88.49
7 -8 -3 1621.94 92.99
-7 8 3 1883.61 99.69
-8 1 3 1707.33 92.99
-8 1 3 1681.93 92.19
-1 -7 3 1825.52 95.59
-7 8 3 1599.14 96.79
1 7 3 1906.81 91.29
7 -8 3 1738.63 99.39
1 7 3 1747.63 97.49
8 -1 3 1648.14 91.99
-1 -7 3 1962.8 95.89
7 -8 3 1763.52 95.49
8 -2 -3 1369.26 72.39
-2 -6 -3 1348.97 72.69
-6 8 -3 1418.96 82.89
2 6 -3 1420.26 73.99
6 -8 -3 1286.27 75.99
-8 2 -3 1376.06 73.59
-8 2 -3 1406.76 72.59
-6 8 -3 1429.56 77.59
6 -8 -3 1293.67 77.99
-2 -6 -3 1341.67 73.59
2 6 3 1458.95 74.69
8 -2 3 1472.75 74.79
6 -8 3 1481.25 80.69
8 -2 3 1389.16 78.69
-2 -6 3 1527.65 79.69
6 -8 3 1404.06 83.29
-8 2 3 1410.36 77.89
-2 -6 3 1510.95 79.19
2 6 3 1456.85 76.19
-6 8 3 1478.15 83.99
-8 2 3 1499.65 77.99
-6 8 3 1370.56 79.09
5 -8 -3 433.96 32.6
3 5 -3 425.46 29.1
-8 3 -3 450.45 30.3
8 -3 -3 420.46 28.5
-3 -5 -3 433.56 27.6
3 5 -3 511.25 32
-3 -5 -3 445.46 28.4
-5 8 -3 464.95 33.5
5 -8 -3 457.95 34.5
-8 3 -3 447.76 29.7
-5 8 3 466.75 37.3
5 -8 3 529.45 35.5
5 -8 3 482.15 37.2
-8 3 3 453.75 32.4
-3 -5 3 495.95 32.6
-3 -5 3 493.15 32.8
3 5 3 463.55 28
-5 8 3 490.85 33.4
8 -3 3 496.95 33.9
-8 3 3 491.65 32.6
3 5 3 546.95 27.6
8 -3 3 496.25 29.4
8 -4 -3 50.09 15.3
-4 -4 -3 65.39 11.1
4 -8 -3 63.29 11.5
4 4 -3 77.39 10.6
8 -4 -3 64.29 10.3
-8 4 -3 61.39 11.8
-4 8 -3 65.39 12.9
4 -8 -3 39 10.8
4 4 -3 68.49 11.2
-4 -4 -3 70.69 10.6
-4 8 -3 53.99 20
-8 4 -3 67.19 12.3
-8 4 3 104.69 14.4
4 -8 3 99.09 15.1
4 -8 3 83.49 14.9
8 -4 3 65.39 11.9
-4 8 3 99.79 15.6
-8 4 3 81.39 12.8
-4 -4 3 103.49 14.5
8 -4 3 80.29 12.6
-4 -4 3 93.69 14
-4 8 3 84.79 16.2
3 -8 -3 206.28 22.7
5 3 -3 218.88 19.2
-8 5 -3 215.98 23.1
-8 5 -3 206.78 21.7
8 -5 -3 212.58 20.1
5 3 -3 233.58 18.8
8 -5 -3 225.18 27.6
-5 -3 -3 219.48 16.3
-3 8 -3 211.88 21.5
-5 -3 -3 217.38 15.7
3 -8 -3 247.78 22.7
-8 5 3 191.48 20.3
-3 8 3 201.08 24.8
-8 5 3 229.78 22.4
8 -5 3 202.68 18.4
-5 -3 3 206.98 18.2
-5 -3 3 198.78 18.4
3 -8 3 168.18 23.3
3 -8 3 212.88 23
2 -8 -3 219.58 23
6 2 -3 243.48 20.3
-2 8 -3 264.97 27.8
-6 -2 -3 230.98 16.8
-6 -2 -3 210.88 16.6
8 -6 -3 229.18 21.9
2 -8 -3 238.38 22.7
-8 6 -3 232.68 23.5
8 -6 -3 255.27 31.9
-2 8 -3 231.68 22.5
6 2 -3 210.78 17.9
-8 6 -3 235.98 25.7
2 -8 3 250.47 24.3
-8 6 3 246.18 22.9
-2 8 3 261.57 26.4
-8 6 3 244.58 24.9
-6 -2 3 239.28 20
6 2 3 263.67 15
2 -8 3 238.08 26.6
8 -6 3 267.37 26.3
8 -6 3 224.28 20.7
-6 -2 3 232.18 19.6
-2 8 3 197.78 19.7
7 1 -3 10.2 5.6
8 -7 -3 34.9 22.1
1 -8 -3 29.3 10.6
1 -8 -3 18.7 9.5
-7 -1 -3 18 7.1
7 1 -3 16.4 8.9
-7 -1 -3 18.6 6.9
-8 7 -3 19.7 14.6
-1 8 -3 21.9 13.1
8 -7 -3 13 8.9
-8 7 -3 11.2 10.3
7 1 3 33 5.6
-8 7 3 31.9 12.1
-1 8 3 59.89 12.9
1 -8 3 28.3 10.3
8 -7 3 17.1 9
-7 -1 3 30.9 8.7
-1 8 3 24.6 8
-7 -1 3 22.5 8.3
1 -8 3 28.9 12.7
-8 7 3 33.5 11.2
8 -7 3 21.7 11
-8 8 -3 678.03 49.1
0 -8 -3 733.13 43.6
-8 0 -3 669.33 38.1
8 -8 -3 608.64 46.9
8 -8 -3 641.64 43.6
8 0 -3 684.63 43.2
0 -8 -3 672.73 52.59
0 8 -3 680.23 41.7
-8 8 -3 714.13 46.2
-8 0 -3 554.24 48.4
0 8 3 794.02 42.9
-8 8 3 718.73 46.4
8 0 3 718.43 39.2
-8 0 3 727.13 43.3
-8 0 3 718.53 44
8 -8 3 739.03 46.5
-8 8 3 755.02 50.39
0 -8 3 701.53 50.59
8 -8 3 723.83 50.99
0 -8 3 758.72 47.8
8 -9 -3 1083.69 69.99
1 8 -3 1277.87 68.09
8 -9 -3 1135.89 73.89
-1 -8 -3 1238.78 69.59
9 -1 -3 1220.98 71.29
-9 1 -3 1224.78 65.49
-8 9 -3 1339.97 77.89
-9 1 -3 1183.98 67.29
-8 9 -3 1224.58 72.89
-1 -8 -3 1251.77 68.29
8 -9 3 1112.99 70.69
8 -9 3 1080.59 65.69
-9 1 3 965.8 61.29
-1 -8 3 1096.29 65.09
-8 9 3 1220.88 71.29
-1 -8 3 1290.97 66.59
-8 9 3 1082.59 65.59
9 -1 3 1056.89 61.59
1 8 3 1222.58 60.99
-9 1 3 1075.09 62.89
-2 -7 -3 2575.74 133.29
-7 9 -3 2964.1 145.49
9 -2 -3 2455.65 132.19
-9 2 -3 2596.84 134.29
7 -9 -3 2500.35 139.19
9 -2 -3 2551.84 137.99
2 7 -3 2695.63 134.09
-2 -7 -3 2583.14 134.69
7 -9 -3 2443.16 137.29
-9 2 -3 2606.84 132.59
-7 9 -3 2660.33 138.49
-2 -7 3 2502.35 137.69
7 -9 3 2487.55 132.79
-9 2 3 2315.17 125.09
-9 2 3 2292.57 126.09
7 -9 3 2471.65 128.89
2 7 3 2365.06 121.99
-7 9 3 2366.26 127.79
9 -2 3 2365.26 126.39
-7 9 3 2524.05 133.09
2 7 3 2423.76 123.89
-2 -7 3 2589.84 127.49
9 -3 -3 989.6 57.79
3 6 -3 997.5 58.09
6 -9 -3 1036 64.09
-9 3 -3 1028.2 59.89
-6 9 -3 1117.39 63.79
-9 3 -3 1107.49 58.79
9 -3 -3 962.3 64.39
-3 -6 -3 1109.69 58.69
6 -9 -3 1022.3 62.39
-3 -6 -3 982.5 60.09
-6 9 -3 1147.79 71.29
6 -9 3 950 55.59
-9 3 3 902.81 51.79
-6 9 3 885.41 58.79
-9 3 3 848.82 51.89
-6 9 3 864.11 53.29
3 6 3 785.82 48.9
-3 -6 3 882.81 52.39
3 6 3 928.81 46.6
-3 -6 3 937.11 52.29
9 -3 3 851.71 52.99
6 -9 3 845.82 57.39
4 5 -3 170.48 18.3
9 -4 -3 133.29 21.2
-5 9 -3 167.48 22.9
5 -9 -3 171.78 22.4
5 -9 -3 163.28 24
9 -4 -3 167.38 22.4
-9 4 -3 192.88 19.4
-4 -5 -3 155.68 15.7
-9 4 -3 135.29 20.2
-4 -5 -3 153.18 19.6
9 -4 3 155.88 20.4
-5 9 3 135.79 19.6
-4 -5 3 168.28 19.4
5 -9 3 169.28 22.7
-9 4 3 152.78 19.5
5 -9 3 150.38 24.6
-9 4 3 131.99 20.3
9 -4 3 151.28 15.7
-5 9 3 133.59 20.5
-4 -5 3 140.49 18.8
4 -9 -3 8.6 10.7
-4 9 -3 14 22.4
-9 5 -3 3.7 8.8
5 4 -3 6.6 8.4
-5 -4 -3 1.9 7
4 -9 -3 13.1 11.2
-9 5 -3 0 9.6
9 -5 -3 10.6 8.1
-4 9 -3 4 9.6
9 -5 -3 2 14.5
-5 -4 -3 4.3 6.1
4 -9 3 8.6 13
9 -5 3 5.4 7.5
4 -9 3 15.4 12
-4 9 3 -6.4 14.1
-5 -4 3 9.2 8.3
-4 9 3 4.1 8.3
-5 -4 3 4.6 7.9
-9 5 3 9.9 10.4
-9 5 3 12.5 10.9
9 -5 3 -5.9 13.7
-3 9 -3 5.6 16.6
9 -6 -3 12 8.2
9 -6 -3 -23.3 15.7
-3 9 -3 2.3 9.7
-9 6 -3 3.2 9.5
3 -9 -3 9.8 10.3
-6 -3 -3 17.7 6.7
-6 -3 -3 8 6.1
3 -9 -3 -4.4 9.6
6 3 -3 14.6 8.4
-9 6 -3 9.2 12
-9 6 3 3.3 10.8
-3 9 3 14.1 13.6
3 -9 3 18.2 13.6
-9 6 3 23.1 10.2
-6 -3 3 3.7 7.7
-3 9 3 3 7.5
9 -6 3 6.2 8.3
9 -6 3 22.4 10.4
3 -9 3 9.4 11.4
-6 -3 3 13.3 8.4
7 2 -3 18.6 9.4
-9 7 -3 11.1 12.7
9 -7 -3 13.5 9.2
-7 -2 -3 23 7.4
-9 7 -3 1.9 10.1
-7 -2 -3 15.3 7
2 -9 -3 22.5 10.8
2 -9 -3 7.4 11.3
-2 9 -3 21.9 9.3
9 -7 -3 25.9 22.2
-2 9 3 18.4 8.6
-9 7 3 23.4 12
2 -9 3 13.2 10.4
9 -7 3 27.3 11.1
-9 7 3 33.6 13.5
2 -9 3 23.5 12.5
-7 -2 3 20 8.6
-2 9 3 31.1 12.9
9 -7 3 11.7 12.5
-7 -2 3 17.4 9.1
-1 9 -3 30.8 15.5
1 -9 -3 21.7 11.5
-8 -1 -3 26.6 8.7
-8 -1 -3 11.1 7.5
9 -8 -3 16.3 13.3
-1 9 -3 14.9 12.7
1 -9 -3 13.1 10.1
8 1 -3 29.9 10.7
-9 8 -3 19.7 16.2
9 -8 -3 13.5 10.2
-9 8 -3 27.1 13.3
-9 8 3 16 12.5
-8 -1 3 15.7 8.8
1 -9 3 24.4 11.5
9 -8 3 23.4 12.6
-1 9 3 11.7 8.1
9 -8 3 15.9 12.3
-9 8 3 16.1 11.9
-8 -1 3 17.9 9.4
8 1 3 5.3 5.1
0 9 -3 156.98 19.9
-9 9 -3 106.19 18.4
0 -9 -3 142.49 21.5
9 0 -3 160.18 22.8
9 -9 -3 89.79 17.9
9 -9 -3 123.39 18.1
-9 0 -3 149.59 18.3
0 -9 -3 150.98 22.1
-9 9 -3 177.88 30.6
-9 0 -3 132.29 18.2
-9 0 3 148.79 20.5
-9 9 3 128.69 23
0 -9 3 160.88 23.9
-9 0 3 128.19 18.5
9 -9 3 125.19 21.2
9 0 3 135.89 14.8
-9 9 3 135.59 21.7
0 -9 3 149.39 22.8
9 -9 3 127.89 22.3
0 9 3 146.59 17.2
-1 -9 -3 432.86 33
10 -1 -3 459.15 37.8
-9 10 -3 391.56 38.6
9 -10 -3 397.66 40.4
-10 1 -3 408.66 29.5
-9 10 -3 509.55 44.3
-1 -9 -3 422.36 34.1
1 9 -3 469.75 32.7
9 -10 -3 379.16 35.9
-10 1 -3 431.46 32.3
-1 -9 3 448.36 34.7
-9 10 3 342.37 34.7
-10 1 3 376.76 29.8
-10 1 3 401.36 32.2
9 -10 3 404.26 40.8
-9 10 3 430.96 40.3
-1 -9 3 442.06 35.1
1 9 3 418.36 27.7
10 -1 3 404.66 28.3
9 -10 3 362.16 33.6
2 8 -3 1103.89 59.99
-2 -8 -3 1095.19 61.59
-10 2 -3 959.8 60.39
-8 10 -3 1081.59 71.49
8 -10 -3 1037.6 67.69
8 -10 -3 941.51 64.09
-8 10 -3 1012.3 65.49
-10 2 -3 1074.19 58.69
-2 -8 -3 1020.9 59.19
10 -2 -3 1079.69 65.99
8 -10 3 890.71 63.19
-8 10 3 843.72 65.99
-10 2 3 864.31 53.09
10 -2 3 889.41 53.99
-10 2 3 914.71 55.59
8 -10 3 921.81 58.29
-2 -8 3 1045.8 57.59
2 8 3 896.61 49.7
-2 -8 3 972.7 56.89
-8 10 3 909.91 57.59
7 -10 -3 373.16 34.6
10 -3 -3 384.16 36.9
3 7 -3 390.86 28.5
-10 3 -3 389.96 28.6
-3 -7 -3 398.16 28.2
7 -10 -3 350.46 35.7
-3 -7 -3 356.36 33.2
-7 10 -3 435.16 42.9
-10 3 -3 361.56 30.8
-7 10 -3 387.06 35.3
-3 -7 3 402.96 31.9
-7 10 3 451.15 40.7
-7 10 3 367.86 32
7 -10 3 365.36 34.2
7 -10 3 389.66 37.8
10 -3 3 377.26 30.5
-3 -7 3 404.16 31.1
-10 3 3 292.67 31.8
3 7 3 395.46 23.8
-10 3 3 368.66 30.8
-10 4 -3 3 10.7
6 -10 -3 11.6 12.6
-6 10 -3 -4.6 22.9
6 -10 -3 5.9 13.8
4 6 -3 4.8 8.7
-10 4 -3 22.1 10.6
-4 -6 -3 10.1 8.3
-4 -6 -3 8 8.8
-6 10 -3 8.6 11.4
10 -4 3 -2.8 8.9
-6 10 3 -3 9.7
-4 -6 3 6 9.2
6 -10 3 15.6 13.9
6 -10 3 10.4 11.1
-4 -6 3 9.1 10
-10 4 3 1.9 11.5
-6 10 3 8.6 14.3
-10 4 3 -2.2 9
5 -10 -3 164.58 26
-10 5 -3 139.89 21.5
-5 10 -3 88.09 35.2
-10 5 -3 159.18 23.3
-5 10 -3 185.98 25
10 -5 -3 119.89 18.5
10 -5 -3 153.48 26
-5 -5 -3 210.88 18.9
5 -10 -3 161.18 24.9
-5 -5 -3 171.88 16.9
-5 -5 3 132.09 20.2
-10 5 3 150.78 22.1
-5 10 3 155.88 21.8
5 -10 3 153.48 24.6
5 -10 3 183.08 27.8
10 -5 3 139.69 23.4
-5 -5 3 149.49 20.1
-5 10 3 171.18 25
-10 5 3 155.58 22.9
-6 -4 -3 103.29 14.2
-10 6 -3 69.69 14.5
6 4 -3 97.69 16.3
-6 -4 -3 118.49 15.8
-10 6 -3 127.79 21.7
4 -10 -3 100.29 17.3
10 -6 -3 107.09 15.4
-4 10 -3 109.09 17.6
10 -6 -3 125.69 23.8
-4 10 -3 69.39 26.7
4 -10 -3 92.99 22.7
-10 6 3 128.69 21.6
10 -6 3 96.59 27.5
4 -10 3 101.49 18.2
-6 -4 3 113.69 17.6
-6 -4 3 86.59 13.8
-10 6 3 112.89 17.7
-4 10 3 107.59 33.4
4 -10 3 114.29 17.3
10 -7 -3 142.59 21
-10 7 -3 167.88 28.5
3 -10 -3 146.59 24.7
-7 -3 -3 162.38 16.6
-10 7 -3 133.09 24.2
-3 10 -3 129.39 21.8
-7 -3 -3 154.08 16.2
7 3 -3 167.78 19.5
3 -10 -3 171.68 24.2
3 -10 3 167.18 25.1
-3 10 3 159.98 19.9
-7 -3 3 172.78 19.7
-10 7 3 165.38 23.8
3 -10 3 181.78 30.2
10 -7 3 110.39 19.5
-10 7 3 190.58 25.8
-7 -3 3 157.38 19.9
-10 8 -3 383.96 44.1
-8 -2 -3 380.66 26
10 -8 -3 360.16 38.5
8 2 -3 400.86 30.1
-8 -2 -3 358.16 26.6
2 -10 -3 369.96 32.7
2 -10 -3 419.36 34.5
10 -8 -3 370.66 31.5
-10 8 -3 388.76 36.2
-10 8 3 328.27 31.7
2 -10 3 368.36 33.4
-8 -2 3 368.86 27.7
-8 -2 3 326.07 27.9
-10 8 3 394.66 35.4
-2 10 3 338.37 28
10 -8 3 315.67 36.1
2 -10 3 393.96 36.1
10 -9 -3 545.15 47.7
9 1 -3 597.84 40.9
-10 9 -3 578.54 47.9
-10 9 -3 614.14 48.4
-1 10 -3 575.44 39.6
-9 -1 -3 604.94 36
1 -10 -3 641.04 43.4
-9 -1 -3 544.55 37.2
1 -10 -3 658.73 44.4
10 -9 -3 534.05 41.6
-9 -1 3 540.85 36.2
-9 -1 3 514.95 36.9
-1 10 3 539.85 35.6
-10 9 3 476.25 40.4
-10 9 3 546.65 44.3
1 -10 3 583.54 42.3
1 -10 3 593.44 42.7
10 -9 3 512.85 45.3
10 -10 -3 37.2 18.9
-10 0 -3 40.1 10.2
10 0 -3 27.8 13.5
-10 10 -3 35.7 18.2
10 -10 -3 25 13.6
0 -10 -3 38.9 13.3
-10 10 -3 46.9 20.4
0 10 -3 31.3 11.8
-10 0 -3 29.1 10.8
0 -10 -3 43.8 14
-10 0 3 46.4 12.1
10 -10 3 24.1 16.1
-10 0 3 34.9 13
0 -10 3 11.4 12.8
-10 10 3 38 14.2
10 0 3 40.2 9.7
0 -10 3 50.49 15.7
-10 10 3 58.39 17.9
0 10 3 28.3 9.6
-10 11 -3 17.9 21.3
11 -1 -3 24.5 22.1
1 10 -3 -4.1 9.9
10 -11 -3 -24.1 14.6
10 -11 -3 17.3 13.7
-1 -10 -3 9.9 12.3
-11 1 -3 14.2 9.9
-11 1 -3 -1.8 10.5
-10 11 -3 3.9 17.1
-1 -10 -3 10.8 11.1
-10 11 3 -1.8 14.4
11 -1 3 14.8 8.5
-11 1 3 12.1 13.1
-11 1 3 23.3 11.3
1 10 3 2.3 8.1
-10 11 3 -5.5 13.6
10 -11 3 8.2 17.5
-1 -10 3 20.9 14.7
-1 -10 3 4.1 12.8
9 -11 -3 166.38 24.2
9 -11 -3 245.78 34.1
-2 -9 -3 231.98 30.5
11 -2 -3 254.17 32.1
-9 11 -3 196.08 32.4
-9 11 -3 226.48 36.2
2 9 -3 202.98 22.9
-11 2 -3 219.68 25.9
-2 -9 -3 231.18 24.2
-11 2 -3 218.88 22.3
2 9 3 193.68 17.8
-2 -9 3 197.38 27.2
-9 11 3 169.38 27.3
-11 2 3 170.68 22
-2 -9 3 233.48 27.3
11 -2 3 189.78 21.6
9 -11 3 192.98 28.3
-9 11 3 202.88 32.9
-11 2 3 214.98 26.2
9 -11 3 204.78 34
-11 3 -3 15.6 10.6
8 -11 -3 21.1 17.2
3 8 -3 21.1 10.2
-3 -8 -3 26.4 11.2
-3 -8 -3 20.4 11.2
11 -3 -3 22.4 15.7
-8 11 -3 22.2 14.6
-11 3 -3 25.4 12.8
-8 11 -3 32.6 19.2
8 -11 -3 26.5 14.6
8 -11 3 5.7 14.2
-3 -8 3 60.39 14.7
-8 11 3 17.3 13.8
8 -11 3 31.3 14.1
11 -3 3 18 10.3
-3 -8 3 18.1 13.3
-11 3 3 35.4 11.7
-11 3 3 20.2 12.4
7 -11 -3 128.49 30.2
11 -4 -3 152.68 26
-7 11 -3 143.69 28
-4 -7 -3 116.69 18.6
-4 -7 -3 132.39 20.4
-7 11 -3 119.69 20.7
-11 4 -3 132.09 20.6
-11 4 -3 125.29 19.3
7 -11 -3 125.59 19.8
4 7 -3 145.19 25
7 -11 3 57.49 17
-11 4 3 51.19 14.4
11 -4 3 53.09 14.2
-11 4 3 53.79 12.9
7 -11 3 72.69 18.3
-4 -7 3 66.99 15
-7 11 3 44.4 13.1
-4 -7 3 73.29 13.8
-6 11 -3 543.35 47.8
-5 -6 -3 641.64 37.3
-5 -6 -3 514.65 34.7
-11 5 -3 551.14 41.6
6 -11 -3 516.95 43.9
-11 5 -3 497.75 38.2
6 -11 -3 567.64 44.1
-11 5 3 420.46 36.3
-6 11 3 443.46 36
-5 -6 3 476.05 34.7
-5 -6 3 446.46 34.5
6 -11 3 494.35 43.9
6 -11 3 427.16 39.2
-11 5 3 464.45 35.1
11 -5 3 401.26 37.5
11 -6 -3 245.68 37.9
-6 -5 -3 300.57 23.7
-5 11 -3 271.27 29.8
5 -11 -3 196.28 30.7
-11 6 -3 232.68 26.3
6 5 -3 253.77 22.7
5 -11 -3 285.07 31
-11 6 -3 276.27 30.4
-6 -5 -3 237.08 21.5
-6 -5 3 300.47 27.2
11 -6 3 278.47 31.8
-11 6 3 294.87 30.5
5 -11 3 297.87 37
-5 11 3 278.07 28.2
-6 -5 3 299.47 27.2
5 -11 3 320.17 50.89
-11 6 3 250.87 28.6
-4 11 -3 11.4 11.7
-7 -4 -3 18.6 9.5
-7 -4 -3 16.7 8.3
4 -11 -3 33.5 14.1
4 -11 -3 -1.6 11.6
7 4 -3 30.9 10.2
-11 7 -3 10.6 13.4
-11 7 -3 0.9 11.5
-7 -4 3 33.9 12.1
4 -11 3 24 13.3
-7 -4 3 21.8 10.9
-11 7 3 13.4 12.2
4 -11 3 32.3 16.9
-11 7 3 9 12.6
-4 11 3 25.1 14.3
3 -11 -3 481.95 39.2
11 -8 -3 391.26 41.3
-11 8 -3 419.06 36.3
-8 -3 -3 363.16 28.3
-11 8 -3 433.66 39.4
-3 11 -3 447.36 35
-8 -3 -3 392.96 28.3
8 3 -3 449.95 31.4
11 -8 3 327.47 38.1
-11 8 3 373.26 35.2
3 -11 3 475.75 40.5
-8 -3 3 354.56 29.2
-11 8 3 375.26 35.2
-3 11 3 312.47 29.5
-8 -3 3 365.16 29.8
3 -11 3 351.46 34.8
-9 -2 -3 926.21 50.49
9 2 -3 971.3 54.49
-11 9 -3 788.62 61.79
-9 -2 -3 866.21 51.49
2 -11 -3 947.31 58.79
11 -9 -3 830.02 63.59
-11 9 -3 890.11 61.19
2 -11 -3 988.5 60.79
-2 11 -3 764.42 61.49
-9 -2 3 851.51 51.99
2 -11 3 949.51 60.39
-11 9 3 749.92 64.89
-2 11 3 841.32 52.09
2 -11 3 962.7 59.19
11 -9 3 834.02 62.69
-9 -2 3 833.62 52.69
-11 9 3 886.41 59.39
-10 -1 -3 521.55 35.1
11 -10 -3 494.55 48.8
1 -11 -3 574.14 43.3
-1 11 -3 501.75 38.5
-11 10 -3 565.54 47.2
10 1 -3 611.54 40.1
-10 -1 -3 541.85 37.5
1 -11 -3 609.24 43.7
-11 10 -3 512.45 46.5
11 -10 3 456.55 46.2
1 -11 3 525.75 41
-11 10 3 452.05 43.7
-10 -1 3 474.75 34.5
-10 -1 3 455.55 36.2
1 -11 3 495.35 41.5
-1 11 3 477.15 41.2
-11 10 3 399.36 48.3
-11 11 -3 231.68 35.9
0 11 -3 282.17 27.6
11 0 -3 240.08 29.7
-11 0 -3 312.67 28.6
0 -11 -3 291.17 30.8
0 -11 -3 272.87 31.4
11 -11 -3 288.37 40.1
-11 0 -3 265.17 24.4
-11 11 -3 290.57 36.7
-11 11 3 223.38 36.1
0 -11 3 262.77 34.2
-11 0 3 270.37 29
0 -11 3 284.37 31.9
-11 0 3 222.78 25.3
11 -11 3 243.78 39.1
0 11 3 236.18 23.2
-11 11 3 219.58 35.2
-2 -10 -3 2.7 11.4
12 -2 -3 18.2 24.3
10 -12 -3 34.1 19.1
-2 -10 -3 10.6 13
-10 12 -3 -22.4 22.4
-12 2 -3 12.9 10.4
-10 12 -3 20.6 25.2
-12 2 -3 14.7 12.8
2 10 -3 18.5 11.5
10 -12 -3 7.7 14.8
-2 -10 3 8.1 13.4
-2 -10 3 -1.7 12.7
12 -2 3 9.1 9.3
10 -12 3 -17 16.2
-12 2 3 2 10
-12 2 3 4.7 13.7
-10 12 3 19.1 14.3
-9 12 -3 10 16.2
-3 -9 -3 22.3 15.7
-12 3 -3 11 11.2
3 9 -3 34.7 11.7
12 -3 -3 7.8 15.8
9 -12 -3 25.5 16.2
9 -12 -3 3 18.2
-12 3 -3 10.4 23.8
-3 -9 -3 10.9 12.7
-12 3 3 16.4 11.8
9 -12 3 19.5 16.1
-12 3 3 -11.9 12.6
-3 -9 3 21.9 14.1
-3 -9 3 27.1 22.8
12 -3 3 36.8 12
9 -12 3 34.3 18.7
-9 12 3 22.6 14.1
-12 4 -3 279.47 27.5
8 -12 -3 282.87 34.4
-4 -8 -3 343.77 29
-4 -8 -3 292.67 26.6
4 8 -3 230.68 25.6
8 -12 -3 275.77 36.9
-8 12 -3 291.77 35.4
12 -4 -3 344.27 39
-12 4 -3 258.87 31.7
-4 -8 3 332.17 31.1
-4 -8 3 293.97 30.9
12 -4 3 234.58 28.7
8 -12 3 323.07 39.9
-12 4 3 230.98 31.1
-8 12 3 255.97 31.5
-12 4 3 288.37 31.4
8 -12 3 308.87 36
-7 12 -3 1153.08 72.29
7 -12 -3 1122.29 72.39
-5 -7 -3 1099.09 63.19
-12 5 -3 1107.99 70.69
7 -12 -3 1111.39 73.49
5 7 -3 1085.79 63.39
-5 -7 -3 1328.17 66.49
-12 5 -3 1039 66.09
7 -12 3 1067.69 68.09
-5 -7 3 1134.39 62.99
-12 5 3 963.3 62.49
-5 -7 3 1074.59 62.59
7 -12 3 1099.59 72.09
12 -5 3 964.8 64.89
-12 5 3 940.21 63.99
-7 12 3 910.41 63.29
6 -12 -3 1010.7 67.69
-6 12 -3 981.4 66.89
-12 6 -3 1008 62.69
-6 -6 -3 1163.38 59.69
-12 6 -3 1024.4 65.79
6 6 -3 963.9 57.39
6 -12 -3 1057.29 67.89
-6 -6 -3 976.9 57.29
6 -12 3 1172.88 75.09
12 -6 3 1033.1 69.99
-12 6 3 1020.7 65.89
6 -12 3 1165.68 71.49
-6 -6 3 1217.78 66.19
-6 -6 3 1081.19 65.29
-6 12 3 1005.9 66.09
-12 6 3 1057.69 68.09
5 -12 -3 300.17 34.4
-7 -5 -3 327.67 26.4
-7 -5 -3 298.27 24.3
-5 12 -3 317.27 33.5
-12 7 -3 299.77 35.5
7 5 -3 292.67 24.8
5 -12 -3 310.67 36.1
-12 7 -3 301.07 31.7
12 -7 3 302.57 35.9
5 -12 3 411.46 37.3
5 -12 3 393.16 43
-12 7 3 322.07 34.4
-7 -5 3 329.17 30.8
-12 7 3 317.27 32.1
-7 -5 3 329.07 30.9
-5 12 3 282.07 27.4
4 -12 -3 35 17.4
-8 -4 -3 32.7 11.5
-12 8 -3 24.8 14.7
12 -8 -3 37.6 17.7
-12 8 -3 28.6 16.6
8 4 -3 34.3 11.1
-8 -4 -3 44.4 10.8
-4 12 -3 19.9 12.8
4 -12 -3 17.8 15.3
-12 8 3 13.8 16
4 -12 3 19.5 18.5
-4 12 3 35.3 13.1
12 -8 3 84.89 17.5
4 -12 3 20.7 13.3
-8 -4 3 20 12.3
-8 -4 3 23.8 12.8
-12 8 3 38.1 15.9
-9 -3 -3 470.15 32.1
3 -12 -3 474.25 41.7
-12 9 -3 471.35 44.7
12 -9 -3 481.15 64.59
-9 -3 -3 491.25 37.8
-12 9 -3 475.55 40.8
9 3 -3 435.96 33.3
3 -12 -3 476.45 43.1
-3 12 3 396.26 35.3
3 -12 3 513.65 45.6
12 -9 3 450.15 45.7
-9 -3 3 465.85 35.5
-12 9 3 503.05 42.1
-9 -3 3 353.06 43.8
3 -12 3 531.55 42.2
-12 9 3 460.55 41.3
2 -12 -3 548.95 44.2
-10 -2 -3 499.95 33.8
-12 10 -3 488.75 47.5
10 2 -3 487.55 37
-12 10 -3 399.56 43.8
-10 -2 -3 514.15 35.6
-2 12 -3 521.35 38.5
12 -10 -3 468.55 49.99
2 -12 -3 599.34 45.9
-2 12 3 527.95 38.5
2 -12 3 605.74 46.5
-12 10 3 499.25 45.8
-10 -2 3 557.24 40.1
-12 10 3 525.55 46.2
2 -12 3 657.53 48.2
12 -10 3 473.65 50.99
-10 -2 3 546.15 40.2
-13 5 -3 167.88 24.8
6 7 -3 534.95 37.1
7 -13 -3 384.56 46.5
-7 13 -3 401.46 42
-6 -7 -3 507.75 35.1
-13 6 -3 429.46 42.1
7 -13 -3 431.86 44
-6 -7 -3 464.75 32.7
-13 6 -3 393.16 35.9
-13 6 3 333.77 39.8
-7 13 3 370.06 37.2
13 -6 3 433.36 40.8
-6 -7 3 396.86 35.1
7 -13 3 439.66 47
-6 -7 3 404.26 38.7
-13 6 3 386.96 39.9
7 -13 3 408.86 41.3
-7 -6 -3 464.15 30.6
6 -13 -3 376.56 41.4
-6 13 -3 329.47 38.3
6 -13 -3 392.56 49.9
-7 -6 -3 396.36 28.4
-13 7 -3 297.37 33.2
7 6 -3 315.87 26.9
-13 7 -3 378.66 44.1
13 -7 -3 293.47 40.8
13 -7 3 383.86 40.6
-7 -6 3 408.56 34.2
-6 13 3 306.57 34
-7 -6 3 357.36 33.3
-13 7 3 338.87 37.9
-13 7 3 273.37 34
6 -13 3 378.76 39.7
6 -13 3 432.46 47.5
8 5 -3 41.2 16.8
0 0 -4 1.7 1.5
0 0 -4 0.2 1.2
0 0 4 8.2 1.7
-1 1 -4 116.49 8.1
1 -1 -4 113.99 7.3
1 0 -4 133.89 7.8
0 -1 -4 111.99 6.8
1 0 -4 113.99 7.7
-1 0 -4 102.29 6.7
-1 0 -4 111.39 6.5
-1 1 -4 106.69 8
0 -1 -4 111.39 6.6
0 1 -4 101.29 7.6
0 1 -4 98.09 7.9
1 0 4 44.5 3.7
-1 0 4 58.09 4.9
-1 1 4 38.4 4.7
1 -1 4 47.3 5.1
0 1 4 41.7 3.5
0 -1 4 55.39 5.2
0 1 4 43.8 3.7
-1 0 4 41.4 4.7
0 -1 4 35.4 5
1 1 -4 4148.19 194.68
2 -1 -4 4173.58 194.48
-1 -1 -4 4221.08 192.68
2 -1 -4 3783.22 194.58
1 -2 -4 4047.8 194.38
-2 1 -4 3691.33 194.48
-1 2 -4 3645.74 195.58
1 -2 -4 4264.97 194.28
-1 2 -4 3824.32 195.48
-1 -1 -4 3734.43 192.58
-2 1 -4 3837.72 194.28
1 1 -4 4054.29 194.48
-2 1 4 4198.28 200.68
1 -2 4 3868.71 201.08
-1 -1 4 4180.98 200.38
2 -1 4 4125.39 199.68
1 -2 4 3578.94 201.48
-1 2 4 4361.36 200.48
-1 -1 4 4024.2 200.28
-2 1 4 4234.68 200.28
-2 2 -4 3145.39 157.18
0 2 -4 3126.29 157.48
0 -2 -4 3217.18 155.58
2 0 -4 3339.17 156.48
0 -2 -4 3353.76 155.58
2 -2 -4 3424.16 156.58
-2 0 -4 3146.39 155.08
2 0 -4 3115.59 156.58
-2 0 -4 2979.8 155.18
2 -2 -4 3293.27 156.98
0 2 -4 2817.02 156.98
-2 2 -4 3053.99 157.58
0 2 4 3842.82 183.48
-2 2 4 3940.31 185.28
-2 0 4 3654.03 184.48
-2 0 4 3773.42 184.68
0 2 4 3841.32 183.68
2 0 4 3703.63 182.78
-2 2 4 3902.61 184.38
2 -2 4 3544.65 184.88
0 -2 4 3612.54 185.38
0 -2 4 3372.56 185.28
2 0 4 4012.2 182.58
3 -1 -4 1924.81 103.59
-1 -2 -4 2050.19 101.59
-2 3 -4 2007.9 104.59
-3 1 -4 1972.5 102.59
2 -3 -4 2063.79 103.99
1 2 -4 2107.89 103.69
1 2 -4 2078.79 103.79
3 -1 -4 2217.18 103.29
2 -3 -4 2185.98 105.69
-1 -2 -4 2124.79 101.69
-2 3 -4 1979.6 105.29
-3 1 4 1617.14 81.79
3 -1 4 1495.15 81.69
-3 1 4 1687.13 82.39
-1 -2 4 1595.54 82.09
3 -1 4 1750.82 80.59
2 -3 4 1551.74 84.19
2 -3 4 1577.74 82.99
-1 -2 4 1608.24 82.39
-2 3 4 1698.73 82.89
-2 3 4 1656.43 81.69
3 -2 -4 9991.6 453.75
-3 2 -4 8681.03 453.85
1 -3 -4 9834.32 454.05
1 -3 -4 9999 453.65
2 1 -4 9383.56 453.65
2 1 -4 9638.24 453.75
-1 3 -4 8750.22 455.05
-1 3 -4 8691.93 455.35
-3 2 -4 8718.43 454.45
3 -2 -4 9006.7 454.25
-1 3 4 8872.91 433.66
3 -2 4 9003.5 433.16
-3 2 4 9534.15 433.56
-2 -1 4 8670.43 433.36
-1 3 4 9075.89 433.66
-2 -1 4 8468.45 433.56
-3 2 4 9579.94 434.46
1 -3 4 8000.8 434.46
1 -3 4 8494.25 435.86
-3 0 -4 1473.95 73.89
-3 0 -4 1618.04 74.39
0 -3 -4 1479.25 74.89
3 -3 -4 1497.05 76.99
-3 3 -4 1412.96 76.69
0 3 -4 1427.86 76.69
0 3 -4 1477.25 77.49
3 -3 -4 1578.44 76.09
3 0 -4 1485.05 75.49
0 -3 -4 1544.75 75.49
-3 3 -4 1466.35 77.69
3 0 -4 1418.96 75.79
0 -3 4 1457.15 78.29
3 0 4 1679.13 74.29
-3 0 4 1529.35 76.99
3 -3 4 1362.26 78.49
-3 3 4 1590.44 78.19
-3 0 4 1532.65 76.69
3 -3 4 1524.55 77.19
0 3 4 1543.65 75.59
3 0 4 1346.97 74.79
0 -3 4 1495.25 77.89
0 3 4 1474.45 75.99
-3 3 4 1615.24 76.89
-4 1 -4 389.36 22.5
1 3 -4 381.66 24.2
4 -1 -4 374.86 23.4
-3 4 -4 389.56 25.9
-1 -3 -4 349.37 21
3 -4 -4 391.86 25.1
-3 4 -4 373.76 24.3
-4 1 -4 380.76 21.6
4 -1 -4 410.46 22.6
3 -4 -4 400.86 23.6
-1 -3 -4 376.26 21.3
-1 -3 4 288.57 20
1 3 4 306.37 16.9
-4 1 4 327.77 19.8
-3 4 4 323.57 19.4
4 -1 4 309.27 18.8
1 3 4 297.67 16.8
-1 -3 4 284.27 19.7
4 -1 4 345.67 17
-4 1 4 302.87 19.2
3 -4 4 299.17 20.5
3 -4 4 292.57 21.7
-3 4 4 315.47 21.2
-2 -2 -4 4114.39 221.18
4 -2 -4 4538.65 224.58
2 -4 -4 4790.62 224.18
-4 2 -4 4497.45 223.58
4 -2 -4 4948.6 223.68
-4 2 -4 4249.27 224.38
-2 4 -4 4537.65 225.28
-2 -2 -4 4337.37 221.28
2 -4 -4 4703.13 225.08
2 2 -4 4542.85 223.68
-2 4 -4 4548.75 226.58
-4 2 4 5225.88 246.58
2 -4 4 4983.5 247.48
-2 -2 4 4720.93 245.58
4 -2 4 5401.76 244.88
4 -2 4 4852.11 246.68
-2 -2 4 4760.32 245.48
2 -4 4 4638.54 248.38
-2 4 4 5108.09 247.08
-4 2 4 5131.29 245.78
4 -3 -4 6168.88 294.57
-3 -1 -4 6758.62 291.87
-1 4 -4 5719.03 296.17
-1 4 -4 5813.52 296.97
4 -3 -4 5890.61 295.87
1 -4 -4 6336.47 295.37
1 -4 -4 5870.71 294.37
3 1 -4 5703.53 293.97
-3 -1 -4 5879.81 291.67
-4 3 -4 5637.84 295.07
1 -4 4 5291.47 284.97
-4 3 4 5999.8 285.17
-1 4 4 5779.62 283.27
-1 4 4 6020.2 284.57
-3 -1 4 5577.24 283.47
-4 3 4 5973.8 283.87
-3 -1 4 5550.24 283.57
4 -3 4 6006.5 283.67
1 -4 4 5660.23 286.87
0 4 -4 880.91 47.2
-4 0 -4 831.42 42.6
0 -4 -4 807.52 44.3
4 -4 -4 795.72 47
0 -4 -4 817.12 44.2
4 0 -4 838.52 44.2
-4 0 -4 874.21 42.6
4 -4 -4 873.71 45.5
-4 4 -4 834.82 46.5
0 4 -4 760.62 45.6
4 -4 4 707.23 44
0 -4 4 754.52 42.9
-4 0 4 693.53 43.9
0 -4 4 771.42 44
4 0 4 829.52 38.7
0 4 4 806.52 41.5
4 -4 4 748.93 42.1
4 0 4 767.72 39.6
-4 4 4 786.02 41.9
-4 4 4 821.72 44
0 4 4 790.52 40.4
-4 0 4 750.72 41.4
4 -5 -4 1554.94 83.29
4 -5 -4 1591.14 81.09
5 -1 -4 1461.65 80.49
-4 5 -4 1508.65 81.99
-5 1 -4 1508.45 78.59
-4 5 -4 1623.04 84.09
-1 -4 -4 1413.76 78.59
1 4 -4 1661.43 82.59
-1 -4 -4 1576.94 79.19
-5 1 -4 1629.44 78.89
5 -1 -4 1535.75 79.39
5 -1 4 1615.64 81.99
5 -1 4 1750.42 79.99
1 4 4 1617.84 80.29
-4 5 4 1666.43 85.19
-1 -4 4 1576.24 83.69
1 4 4 1357.36 81.69
-5 1 4 1624.94 82.59
4 -5 4 1614.94 83.69
4 -5 4 1492.75 85.59
-5 1 4 1589.24 82.19
-4 5 4 1693.43 82.89
5 -2 -4 3150.08 165.28
-3 5 -4 3543.85 168.48
-2 -3 -4 3223.78 162.18
3 -5 -4 3368.36 165.18
-2 -3 -4 3084.29 162.08
3 -5 -4 3062.99 170.58
-5 2 -4 3474.55 164.58
-5 2 -4 3141.09 163.58
-3 5 -4 3353.56 166.08
2 3 -4 3268.17 164.88
5 -2 -4 3484.25 163.88
3 -5 4 2983.6 145.49
-2 -3 4 2842.82 143.79
-3 5 4 2974.2 145.89
-5 2 4 2915.81 143.39
-2 -3 4 2837.22 143.39
-5 2 4 2957.3 144.19
3 -5 4 2547.95 146.09
5 -2 4 2710.93 144.09
-3 5 4 2977.3 143.69
-5 3 -4 2806.02 147.09
5 -3 -4 2851.01 146.89
-3 -2 -4 2970.8 141.89
-2 5 -4 2893.51 146.69
-3 -2 -4 2875.41 141.79
5 -3 -4 3119.59 145.09
-2 5 -4 2877.81 148.49
3 2 -4 2871.61 144.59
-5 3 -4 2765.82 145.29
2 -5 -4 2869.21 145.49
-5 3 4 2848.22 140.49
-3 -2 4 2623.94 138.59
2 -5 4 2820.22 141.49
5 -3 4 2922.51 138.59
-2 5 4 2944.51 141.19
5 -3 4 2641.64 140.79
2 -5 4 2589.64 142.29
-5 3 4 2860.41 139.39
-3 -2 4 2709.83 138.89
-1 5 -4 2231.58 118.09
-4 -1 -4 2522.05 113.49
1 -5 -4 2303.07 116.49
5 -4 -4 2338.27 118.99
-4 -1 -4 2336.07 113.39
-5 4 -4 2194.68 117.49
-1 5 -4 2286.37 119.39
5 -4 -4 2378.06 116.69
1 -5 -4 2384.46 116.99
4 1 -4 1960.3 117.59
5 -4 4 1760.62 88.19
1 -5 4 1761.52 92.19
-1 5 4 1715.93 87.49
-5 4 4 1779.92 90.39
-4 -1 4 1721.53 87.89
-4 -1 4 1657.83 87.79
1 -5 4 1672.63 90.09
-5 4 4 1757.72 88.59
5 -4 4 1591.74 90.69
-1 5 4 1791.92 89.39
0 5 -4 895.01 51.39
-5 5 -4 863.81 52.69
-5 0 -4 903.31 48
0 -5 -4 960.9 50.29
5 -5 -4 988.7 51.59
5 0 -4 937.71 49.5
-5 0 -4 938.81 47.7
0 5 -4 1014.8 53.89
5 -5 -4 871.11 53.89
0 -5 -4 888.61 49.8
5 0 4 1035.2 51.29
0 5 4 998.2 53.39
-5 0 4 1024 54.69
0 -5 4 1018.2 56.29
-5 5 4 1010.8 55.09
0 5 4 1061.89 54.89
5 -5 4 1039.7 55.59
5 -5 4 965.2 57.99
5 0 4 1049.2 52.69
0 -5 4 1035.7 57.59
-5 5 4 1037 57.59
-5 0 4 987.6 54.19
-6 1 -4 1183.98 59.79
6 -1 -4 1117.39 60.59
1 5 -4 1287.27 64.89
5 -6 -4 1069.29 65.99
5 -6 -4 1179.38 63.19
-1 -5 -4 1130.69 60.99
-1 -5 -4 1080.29 60.49
-6 1 -4 1143.69 60.09
-1 -5 4 1042.8 59.09
5 -6 4 965.6 60.99
5 -6 4 1076.69 58.99
-1 -5 4 1015.9 61.09
-5 6 4 1136.89 61.49
6 -1 4 1116.09 54.39
6 -1 4 1078.79 56.69
-6 1 4 1037.8 57.09
1 5 4 1132.09 55.29
1 5 4 1071.09 56.09
-5 6 4 1023.8 57.89
-4 6 -4 1029.9 56.29
2 4 -4 1003.1 53.89
4 -6 -4 932.01 54.69
2 4 -4 1002.3 55.29
-4 6 -4 1056.69 58.79
6 -2 -4 977.4 52.79
-2 -4 -4 974.9 51.79
-2 -4 -4 931.71 51.69
4 -6 -4 999 57.79
6 -2 -4 973.3 55.29
-6 2 -4 943.01 52.79
-6 2 -4 1040.4 53.49
-4 6 4 835.12 49
-6 2 4 914.61 49.3
4 -6 4 815.22 52.29
-6 2 4 842.02 48.6
-4 6 4 915.71 52.39
4 -6 4 937.41 50.99
6 -2 4 870.21 49.3
6 -2 4 942.51 46.4
2 4 4 979.9 45.1
-2 -4 4 896.31 49.7
-2 -4 4 881.51 49.2
2 4 4 833.02 45.2
6 -3 -4 667.83 41.3
-3 6 -4 667.33 40.8
3 3 -4 690.33 39
-3 -3 -4 700.23 35.6
-3 6 -4 760.42 44.2
-3 -3 -4 704.83 36.1
3 -6 -4 679.43 39.9
3 3 -4 594.14 40.5
-6 3 -4 705.73 40.4
-6 3 -4 648.44 38.8
3 -6 -4 663.53 40.7
6 -3 4 676.33 42.1
-3 -3 4 684.63 40
6 -3 4 774.42 39.3
-6 3 4 720.03 40.8
-3 -3 4 700.63 40.6
3 -6 4 632.34 43.9
3 -6 4 778.22 43.6
-3 6 4 747.33 40.9
-6 3 4 777.42 42.1
-3 6 4 711.13 43.7
2 -6 -4 532.65 31.3
-4 -2 -4 480.95 26.3
4 2 -4 486.05 29.3
-2 6 -4 499.65 32.1
6 -4 -4 542.25 30.7
-4 -2 -4 501.35 26.4
2 -6 -4 495.15 31.6
-6 4 -4 467.65 31.2
6 -4 -4 495.25 33.9
4 2 -4 499.55 30.1
-2 6 -4 469.55 34.5
2 -6 4 564.34 36.3
6 -4 4 600.34 33.2
-2 6 4 631.24 36.7
-6 4 4 575.54 35.6
-4 -2 4 594.24 33.1
2 -6 4 559.54 37.8
-2 6 4 520.35 33.1
-4 -2 4 531.45 32.8
-5 -1 -4 668.03 35.7
5 1 -4 650.93 37.8
-5 -1 -4 739.73 35.7
-6 5 -4 649.83 44
-1 6 -4 699.63 43.4
5 1 -4 645.94 38.7
1 -6 -4 707.73 39.7
6 -5 -4 656.53 43.4
-6 5 -4 668.93 41
6 -5 -4 689.13 39.7
1 -6 -4 650.13 39.4
-1 6 -4 661.73 40.5
-1 6 4 598.74 33.4
-6 5 4 616.54 37.6
1 -6 4 617.24 38.6
-1 6 4 605.34 36
1 -6 4 526.35 35.9
-6 5 4 547.05 34.7
-5 -1 4 559.44 33.6
-5 -1 4 599.34 34
6 -5 4 534.75 37.4
6 -5 4 596.94 34.6
-6 6 -4 1212.68 71.19
0 -6 -4 1271.17 65.89
6 0 -4 1160.78 63.99
-6 0 -4 1274.77 62.69
6 0 -4 1144.99 69.59
6 -6 -4 1228.18 66.79
0 -6 -4 1155.88 64.99
-6 0 -4 1161.48 62.99
0 6 -4 1428.56 70.39
-6 6 -4 1198.28 68.19
6 -6 -4 1190.28 71.09
-6 6 4 854.91 52.39
0 -6 4 894.71 50.99
6 -6 4 873.81 53.59
-6 0 4 897.21 48.7
-6 6 4 853.61 49.8
-6 0 4 863.91 48.5
6 0 4 887.61 46.5
0 -6 4 913.81 52.29
6 -6 4 838.22 49.9
6 0 4 882.01 44.9
0 6 4 918.01 49.4
0 6 4 894.71 47.9
-7 1 -4 1026.9 54.99
-1 -6 -4 997.9 55.89
7 -1 -4 1003.9 54.79
-1 -6 -4 1037.1 56.29
6 -7 -4 1007.1 62.29
-7 1 -4 1069.19 53.99
1 6 -4 999.3 56.89
7 -1 -4 961.9 57.69
-6 7 -4 1025.5 59.79
6 -7 -4 1018.6 58.29
7 -1 4 1130.19 60.69
-6 7 4 1116.49 62.79
-6 7 4 1149.29 66.39
-7 1 4 1084.09 61.39
-1 -6 4 1163.78 64.09
1 6 4 1211.58 59.49
1 6 4 1127.99 60.59
-1 -6 4 1195.18 63.49
6 -7 4 1047.6 66.49
6 -7 4 1090.19 63.29
7 -1 4 1141.69 58.09
-7 1 4 1139.69 61.49
5 -7 -4 1197.98 70.49
2 5 -4 1175.68 68.99
2 5 -4 1506.15 72.19
-7 2 -4 1278.17 68.59
-7 2 -4 1352.96 68.09
-2 -5 -4 1276.37 67.59
7 -2 -4 1273.67 68.19
-5 7 -4 1268.87 73.39
-2 -5 -4 1287.87 68.09
-2 -5 4 1307.57 71.99
-5 7 4 1395.36 75.89
-7 2 4 1331.47 71.49
-2 -5 4 1312.27 72.49
5 -7 4 1281.27 75.89
2 5 4 1426.06 67.59
-7 2 4 1262.37 71.09
5 -7 4 1411.36 73.89
7 -2 4 1405.06 68.49
7 -2 4 1288.47 71.59
2 5 4 1287.77 67.99
-5 7 4 1321.47 72.09
-7 3 -4 491.35 30.5
3 4 -4 470.15 29.5
4 -7 -4 440.46 32.3
3 4 -4 477.85 31.1
7 -3 -4 486.25 29.2
-7 3 -4 441.16 29.6
-3 -4 -4 479.85 27.3
7 -3 -4 449.46 32.8
-4 7 -4 450.15 32.4
-3 -4 -4 469.45 26.6
4 -7 -4 440.26 31.3
7 -3 4 474.95 27.1
-7 3 4 449.76 29.6
7 -3 4 442.56 30.7
-3 -4 4 446.26 29.1
-3 -4 4 451.35 29.8
-4 7 4 474.75 30.2
4 -7 4 409.16 34.7
-7 3 4 451.75 30.3
4 -7 4 494.65 32.7
-4 7 4 506.05 35
3 -7 -4 243.98 22.1
7 -4 -4 237.78 19.4
3 -7 -4 242.98 21.3
-3 7 -4 233.68 25
-7 4 -4 273.97 22.5
-3 7 -4 255.27 22.5
-4 -3 -4 242.48 15.9
-4 -3 -4 236.48 15.3
7 -4 -4 252.07 24.8
4 3 -4 249.97 19.4
-7 4 -4 249.97 20.9
4 3 -4 237.48 19.1
-7 4 4 216.08 20.3
3 -7 4 189.48 22
-4 -3 4 225.48 17.7
3 -7 4 209.08 21.2
-4 -3 4 205.88 17.8
-3 7 4 224.08 22.6
-7 4 4 194.08 18.7
7 -4 4 189.98 16.5
7 -5 -4 439.76 28.9
-2 7 -4 426.16 30.6
7 -5 -4 414.06 34.1
2 -7 -4 428.86 29.6
-2 7 -4 451.45 34.2
-7 5 -4 447.16 32.5
-5 -2 -4 435.86 24.3
2 -7 -4 465.15 30.3
5 2 -4 442.86 28.2
-5 -2 -4 433.56 24.3
5 2 -4 430.26 27.2
-7 5 -4 377.46 29.9
-7 5 4 455.55 31.6
-7 5 4 444.66 29.6
-5 -2 4 436.56 28.1
-2 7 4 424.76 27.9
7 -5 4 455.35 28.5
-5 -2 4 433.36 27.8
7 -5 4 443.16 31.9
-2 7 4 454.95 32.3
2 -7 4 439.86 31.6
2 -7 4 423.86 33.7
-7 6 -4 836.52 51.29
-6 -1 -4 828.02 45.3
-6 -1 -4 904.21 45.1
7 -6 -4 818.02 49.5
-1 7 -4 995.6 55.19
6 1 -4 798.92 48.4
-7 6 -4 817.02 53.49
-1 7 -4 812.92 49.7
6 1 -4 840.42 47.1
7 -6 -4 878.71 55.69
1 -7 -4 880.91 49.7
1 -7 -4 834.32 49.2
1 -7 4 635.34 41.3
-1 7 4 669.23 40.9
7 -6 4 647.44 43.7
1 -7 4 644.84 43.3
7 -6 4 688.23 39.9
-7 6 4 664.63 40.3
-6 -1 4 644.24 38.3
-1 7 4 659.73 37.9
-6 -1 4 639.24 38.4
-7 6 4 683.93 43.1
7 0 -4 1549.94 81.19
7 0 -4 1468.95 83.29
-7 7 -4 1521.05 86.09
-7 0 -4 1561.54 80.69
7 -7 -4 1566.34 89.99
0 -7 -4 1539.25 82.89
-7 0 -4 1623.74 79.89
0 -7 -4 1613.54 83.69
7 -7 -4 1534.05 84.69
-7 7 -4 1577.54 89.59
0 -7 4 1455.35 73.99
7 -7 4 1245.18 76.09
-7 0 4 1279.07 70.59
-7 7 4 1221.68 71.89
0 7 4 1341.07 71.49
7 0 4 1299.67 66.39
-7 0 4 1246.18 70.19
0 -7 4 1423.36 74.79
7 -7 4 1312.07 72.29
0 7 4 1351.26 69.49
-7 7 4 1327.87 75.59
7 0 4 1317.57 68.59
7 -8 -4 380.86 41.6
-8 1 -4 487.45 28.9
-7 8 -4 470.75 36.3
1 7 -4 476.75 32.3
-7 8 -4 487.75 41.3
8 -1 -4 452.95 33.9
-1 -7 -4 480.95 32
7 -8 -4 473.25 36.9
1 7 -4 563.24 54.49
-1 -7 -4 478.95 31.6
8 -1 -4 420.66 32.1
-8 1 -4 456.75 30.2
-7 8 4 441.46 32.9
7 -8 4 433.46 36.6
1 7 4 496.95 27.9
-8 1 4 441.96 30.9
7 -8 4 437.36 32.9
8 -1 4 472.15 28.6
8 -1 4 435.46 30.2
-7 8 4 448.56 36.6
-1 -7 4 480.85 33.7
-8 1 4 431.26 30
1 7 4 406.86 30.5
-1 -7 4 484.65 33
2 6 -4 489.15 32
-2 -6 -4 361.56 26.7
8 -2 -4 393.56 26.4
-2 -6 -4 377.46 25.9
6 -8 -4 365.76 32.2
-6 8 -4 402.26 32.1
-8 2 -4 370.46 26.9
-8 2 -4 372.76 25.9
2 6 -4 395.46 28.2
6 -8 -4 389.46 30.4
8 -2 4 374.86 26.7
-6 8 4 373.76 28.5
-8 2 4 376.16 27.1
-8 2 4 337.27 26.9
6 -8 4 362.16 29.4
-6 8 4 437.76 33.8
6 -8 4 314.37 37
-2 -6 4 417.46 29.3
-2 -6 4 399.56 28.2
2 6 4 365.96 22.3
2 6 4 358.96 23.1
8 -2 4 366.86 22.7
3 5 -4 607.24 35.5
8 -3 -4 520.35 37.1
-8 3 -4 493.45 33.1
-3 -5 -4 476.35 29.8
-8 3 -4 506.95 32.4
5 -8 -4 475.65 35
-5 8 -4 445.96 42.5
-5 8 -4 523.55 36.7
3 5 -4 519.95 32.7
8 -3 -4 498.15 31.9
-3 -5 -4 494.65 30.7
5 -8 -4 497.65 36.6
5 -8 4 397.76 34.5
-5 8 4 407.16 29.8
5 -8 4 438.76 32.5
-5 8 4 445.56 34.5
-8 3 4 443.06 29.8
-3 -5 4 444.86 30
-8 3 4 425.36 29.6
8 -3 4 390.76 29.8
-3 -5 4 388.46 29.5
8 -3 4 426.26 25.8
8 -4 -4 442.76 35.6
4 -8 -4 455.25 33.7
-8 4 -4 450.95 31.1
-4 -4 -4 459.45 26.3
8 -4 -4 441.06 29.8
4 -8 -4 433.06 32.3
-8 4 -4 418.76 31
-4 -4 -4 468.75 28.1
-4 8 -4 476.65 33.6
4 4 -4 485.15 31.4
4 4 -4 417.86 29.5
4 -8 4 513.75 34.9
-8 4 4 444.56 31.3
-4 8 4 456.35 31
8 -4 4 477.95 28.6
4 -8 4 435.86 35.8
-4 -4 4 453.85 30.2
-8 4 4 456.55 31.8
-4 8 4 482.65 36.1
-4 -4 4 442.36 30.4
8 -4 4 418.06 32.6
8 -5 -4 103.59 15.9
3 -8 -4 92.89 14.2
3 -8 -4 68.19 11.9
5 3 -4 88.59 13.8
-8 5 -4 82.19 13.4
-5 -3 -4 86.59 10.5
-8 5 -4 112.09 16.1
-3 8 -4 102.19 18
5 3 -4 86.19 14.9
8 -5 -4 106.39 17.9
-3 8 -4 82.59 13.4
-5 -3 -4 86.99 10.2
3 -8 4 132.69 19.6
-3 8 4 117.99 21
8 -5 4 120.79 15
3 -8 4 120.29 21.5
-8 5 4 127.59 17.9
-5 -3 4 116.39 16
-8 5 4 91.39 14.8
-5 -3 4 113.49 15.2
8 -6 -4 60.29 18.4
-6 -2 -4 50.99 7.1
8 -6 -4 34.4 9.7
-8 6 -4 60.29 13.1
-2 8 -4 49.7 12.2
-2 8 -4 34.1 12.6
2 -8 -4 42.7 10.2
-8 6 -4 62.99 15.6
2 -8 -4 28.6 9.5
-6 -2 -4 50.39 7.4
6 2 -4 35.4 9.4
6 2 -4 39.5 8.3
8 -6 4 54.49 12.6
-2 8 4 54.49 13.4
8 -6 4 47.2 9.5
-8 6 4 61.09 14.1
-6 -2 4 48.7 9.1
2 -8 4 43.7 12.1
-6 -2 4 48.2 9.9
2 -8 4 41.5 11.3
-2 8 4 40.6 9
-8 6 4 55.09 11.6
-7 -1 -4 127.99 13.6
7 1 -4 117.39 17.8
8 -7 -4 147.49 26.6
1 -8 -4 124.79 18.3
-7 -1 -4 136.79 14.2
8 -7 -4 141.59 19.7
-8 7 -4 140.99 21.3
-1 8 -4 147.09 18.9
-1 8 -4 146.89 24.3
7 1 -4 142.89 15
1 -8 -4 165.58 19.3
-8 7 -4 143.49 22.2
-7 -1 4 103.99 16.2
8 -7 4 136.59 18.3
-8 7 4 131.39 22
1 -8 4 126.29 21
-7 -1 4 138.09 16.5
-1 8 4 133.79 15.8
8 -7 4 129.49 22.4
1 -8 4 143.99 20.5
-8 7 4 123.29 18.8
-8 8 -4 550.24 41.5
0 -8 -4 604.44 38.2
0 8 -4 529.35 37.1
-8 0 -4 593.14 33.8
8 -8 -4 517.85 38.8
-8 0 -4 566.84 36.7
0 -8 -4 565.54 41
-8 8 -4 598.34 44.6
8 0 -4 540.65 37.9
-8 0 4 482.85 33.1
-8 8 4 505.65 36.1
8 -8 4 523.15 36.3
0 8 4 567.24 32.1
-8 8 4 510.85 39.7
0 -8 4 489.75 37.3
8 -8 4 443.66 39.9
8 0 4 513.85 29.9
8 0 4 501.15 27.9
0 -8 4 550.64 37.4
-8 0 4 514.85 33.9
9 -1 -4 458.95 35.4
-1 -8 -4 466.95 32.8
8 -9 -4 426.76 38.3
-1 -8 -4 463.85 32.1
8 -9 -4 425.86 35
-9 1 -4 444.56 28.9
1 8 -4 449.56 32.4
-8 9 -4 443.86 37.8
-9 1 -4 435.46 30.9
-8 9 -4 428.16 42.3
8 -9 4 349.17 37.7
-9 1 4 342.17 28.8
-9 1 4 331.37 27.1
-1 -8 4 395.06 31.2
9 -1 4 385.76 25.7
8 -9 4 372.56 31.4
-8 9 4 385.16 36
1 8 4 414.86 25.2
-1 -8 4 379.06 31.5
-8 9 4 338.67 30.6
7 -9 -4 36.5 14.2
7 -9 -4 22.9 14.9
-9 2 -4 59.09 11.2
-2 -7 -4 57.59 11.1
2 7 -4 72.49 14.5
9 -2 -4 41.7 9.4
-9 2 -4 33.6 9.4
-2 -7 -4 46.3 9.7
2 7 -4 41.9 10.9
9 -2 -4 35.1 13.6
-7 9 -4 42.4 21.7
-7 9 -4 55.19 14.7
9 -2 4 62.19 11.3
7 -9 4 73.99 14.4
-9 2 4 70.99 11.6
-7 9 4 84.19 17.3
2 7 4 75.59 11.8
-7 9 4 59.49 12.6
-2 -7 4 79.89 13.4
-9 2 4 74.29 13.4
7 -9 4 58.29 16.1
2 7 4 74.69 10.8
-2 -7 4 68.79 23.3
6 -9 -4 491.55 39.5
-6 9 -4 522.55 39.3
-9 3 -4 553.14 33.9
3 6 -4 463.05 34.8
3 6 -4 502.45 34.1
6 -9 -4 497.25 37.7
-9 3 -4 480.75 44.1
-3 -6 -4 571.64 37.2
9 -3 -4 546.55 33.8
-3 -6 4 560.94 36
-9 3 4 462.95 35
-9 3 4 509.75 35.4
-6 9 4 511.95 36.6
9 -3 4 539.55 36.2
6 -9 4 515.85 38.4
-3 -6 4 580.64 37.3
-6 9 4 534.95 41.9
6 -9 4 517.95 41.8
-5 9 -4 589.34 42.2
4 5 -4 593.14 37.6
-4 -5 -4 655.43 36.2
5 -9 -4 601.14 41.6
-9 4 -4 622.34 38.7
5 -9 -4 599.04 42.9
-4 -5 -4 582.14 34.5
9 -4 -4 570.04 38.8
-9 4 -4 561.64 39.4
9 -4 -4 592.84 44.1
-5 9 4 626.94 46.5
5 -9 4 681.13 47.3
-9 4 4 603.84 41.4
-4 -5 4 683.73 41.6
-9 4 4 652.53 42
-4 -5 4 658.73 41.5
9 -4 4 622.84 42.9
5 -9 4 705.73 49.4
-5 9 4 631.34 41.5
-9 5 -4 0.7 10
4 -9 -4 3.7 10.4
9 -5 -4 5.7 14.3
-9 5 -4 13.6 10.1
-5 -4 -4 5 6.5
-4 9 -4 16.6 18.5
5 4 -4 8.3 8.7
4 -9 -4 1.5 9.6
-4 9 -4 6.1 11.2
9 -5 -4 1.3 8.5
-5 -4 -4 4.7 5.8
-5 -4 4 -5.8 8.4
-4 9 4 8.2 12.9
9 -5 4 9.2 9.3
-5 -4 4 8.6 8.7
9 -5 4 3.6 7.6
-4 9 4 30.1 8.1
4 -9 4 2 11.4
-9 5 4 9.9 10.4
4 -9 4 0.3 10.7
-9 5 4 8.7 10.8
-6 -3 -4 165.48 14.8
-9 6 -4 169.98 24.1
9 -6 -4 157.08 20.3
9 -6 -4 183.58 31.6
3 -9 -4 178.98 23.2
6 3 -4 194.98 19.4
-9 6 -4 165.28 23.2
-3 9 -4 189.18 22.6
-6 -3 -4 182.28 15.4
3 -9 4 185.98 23.6
9 -6 4 163.28 18.7
-6 -3 4 185.08 21.1
-3 9 4 184.18 24.6
-3 9 4 152.48 20.7
-9 6 4 161.18 22.5
-9 6 4 145.49 21.2
3 -9 4 182.58 27.2
-6 -3 4 152.68 18.4
-2 9 -4 281.57 30.9
7 2 -4 228.28 21.5
9 -7 -4 169.08 23
2 -9 -4 275.97 24.9
-7 -2 -4 212.18 16.9
-2 9 -4 185.38 22.8
-9 7 -4 150.18 26.1
2 -9 -4 181.28 28.7
9 -7 -4 218.28 35.8
-9 7 -4 212.38 25.9
-7 -2 -4 215.08 17.5
9 -7 4 182.28 20.3
2 -9 4 203.68 26.6
9 -7 4 168.78 25.5
-9 7 4 140.29 26.4
-9 7 4 178.48 22.7
-2 9 4 173.78 18.9
-7 -2 4 179.38 19.4
2 -9 4 186.38 23.8
-7 -2 4 176.88 20
-8 -1 -4 706.63 43
-8 -1 -4 732.83 41.8
1 -9 -4 821.52 48.5
9 -8 -4 744.03 48.3
-9 8 -4 705.73 52.19
1 -9 -4 818.52 48.6
-9 8 -4 714.63 50.69
8 1 -4 758.22 46.8
9 -8 4 673.73 44.7
9 -8 4 686.13 51.09
-1 9 4 736.43 42.4
-8 -1 4 707.63 42.9
-9 8 4 710.63 49.8
1 -9 4 796.82 48.6
1 -9 4 701.83 56.49
-8 -1 4 705.73 43.5
-9 8 4 623.24 45.4
9 0 -4 1360.06 75.09
0 -9 -4 1416.66 74.89
9 -9 -4 1273.47 79.49
0 -9 -4 1395.16 74.29
0 9 -4 1293.17 72.59
-9 0 -4 1365.36 69.09
9 -9 -4 1158.18 74.59
-9 9 -4 1331.17 81.49
-9 9 -4 1166.18 76.99
-9 0 -4 1204.28 70.49
9 -9 4 1065.59 71.39
0 -9 4 1281.47 68.89
-9 0 4 1071.49 62.99
-9 9 4 1194.58 71.49
9 0 4 1114.59 58.89
-9 9 4 1012.7 66.09
0 9 4 1216.88 61.89
0 -9 4 1197.38 68.39
9 -9 4 1062.09 65.89
-9 0 4 1066.49 63.99
9 -10 -4 505.45 45.2
10 -1 -4 562.54 41.6
9 -10 -4 448.16 40.4
-1 -9 -4 578.24 39.1
-10 1 -4 506.95 36.9
-10 1 -4 554.54 34.3
-9 10 -4 475.75 47.3
-1 -9 -4 630.24 38.2
1 9 -4 572.64 37.9
-9 10 -4 489.75 43.5
-10 1 4 583.94 41.3
-1 -9 4 674.63 44.2
10 -1 4 551.34 35.8
9 -10 4 644.84 51.09
-9 10 4 542.75 62.59
-1 -9 4 689.03 44.9
-10 1 4 540.35 38.6
1 9 4 628.84 35.9
-9 10 4 584.74 43.8
9 -10 4 584.64 43.1
10 -2 -4 165.58 26.3
2 8 -4 180.58 21.1
-10 2 -4 169.88 21.4
-8 10 -4 235.78 35.9
-8 10 -4 120.39 21.5
8 -10 -4 160.88 25.6
-10 2 -4 174.88 19.4
8 -10 -4 119.39 20.2
-2 -8 -4 177.28 20
8 -10 4 222.98 26.7
-8 10 4 159.78 25
8 -10 4 177.48 30.3
-10 2 4 204.28 21.8
2 8 4 214.38 16.5
-10 2 4 192.38 24.4
-2 -8 4 232.38 25.5
-2 -8 4 211.68 26.1
10 -2 4 188.58 20.3
-8 10 4 225.48 30.3
-7 10 -4 913.11 57.69
-7 10 -4 852.91 64.19
-10 3 -4 859.71 53.09
-10 3 -4 919.91 50.89
-3 -7 -4 892.71 51.49
-3 -7 -4 876.61 49.9
10 -3 -4 892.01 66.79
3 7 -4 867.41 51.39
7 -10 -4 691.73 63.49
7 -10 -4 847.22 57.79
-10 3 4 843.02 51.79
7 -10 4 911.41 56.59
-3 -7 4 897.61 54.09
-10 3 4 820.62 52.69
-7 10 4 935.61 59.89
-3 -7 4 900.01 53.19
10 -3 4 835.02 52.39
7 -10 4 841.02 59.79
-7 10 4 794.22 53.59
-6 10 -4 906.61 58.19
-4 -6 -4 839.92 49.99
4 6 -4 874.71 52.59
-10 4 -4 912.61 53.29
6 -10 -4 934.01 57.89
-4 -6 -4 981.8 52.29
-10 4 -4 894.01 55.29
6 -10 -4 883.21 58.49
6 -10 4 976 64.19
6 -10 4 1073.89 61.99
-6 10 4 1056.69 64.49
-10 4 4 880.71 58.19
10 -4 4 950.3 58.99
-10 4 4 903.01 57.29
-4 -6 4 1019.3 57.69
-6 10 4 938.81 57.89
-4 -6 4 930.21 57.39
-5 -5 -4 422.06 26.9
-10 5 -4 384.66 31.5
-5 -5 -4 480.35 29
10 -5 -4 415.76 30.7
10 -5 -4 397.46 40.8
5 -10 -4 410.06 35.1
5 -10 -4 425.56 36.5
5 5 -4 427.66 30.8
-10 5 -4 379.16 33.9
-5 10 -4 430.06 35.5
-5 10 4 328.67 28.2
-5 -5 4 329.47 27.6
10 -5 4 312.77 30
-5 -5 4 329.47 28.1
-10 5 4 311.47 29.3
5 -10 4 336.07 35.1
5 -10 4 343.87 34.6
-5 10 4 287.87 32.6
-10 5 4 316.07 29.3
-10 6 -4 322.97 31.1
-6 -4 -4 349.07 23.9
4 -10 -4 300.57 30.9
6 4 -4 340.57 26.3
4 -10 -4 318.97 30.5
-10 6 -4 334.97 29.8
10 -6 -4 291.37 38.7
10 -6 -4 320.87 27.4
-4 10 -4 340.87 30.9
-6 -4 -4 303.77 22
4 -10 4 277.77 30.3
-6 -4 4 232.88 23.8
-10 6 4 269.37 28
4 -10 4 319.87 34.1
-10 6 4 257.57 27.1
-6 -4 4 263.07 25.2
-7 -3 -4 476.75 30.3
-7 -3 -4 512.25 30.6
7 3 -4 495.75 34
-3 10 -4 486.85 37.5
10 -7 -4 473.45 47.8
-10 7 -4 501.65 40.1
10 -7 -4 470.05 36
3 -10 -4 542.95 39.2
-10 7 -4 480.45 38.4
3 -10 -4 534.55 38.9
-10 7 4 447.06 36.8
10 -7 4 443.46 39.8
3 -10 4 531.45 39.5
-3 10 4 465.95 33.6
-10 7 4 482.55 39
-7 -3 4 502.35 33.9
3 -10 4 521.65 42.8
-7 -3 4 477.95 34
-10 8 -4 468.95 39.7
-8 -2 -4 415.86 28.4
10 -8 -4 401.86 34.1
2 -10 -4 444.96 35.8
-2 10 -4 432.56 33.3
2 -10 -4 451.25 35.2
8 2 -4 437.96 32.4
-8 -2 -4 423.06 27.5
-10 8 -4 441.36 39
-10 8 4 376.06 33.9
10 -8 4 344.17 37.5
-10 8 4 400.06 35.8
-8 -2 4 365.26 30.5
-2 10 4 422.06 30.1
2 -10 4 435.66 35.4
-8 -2 4 401.86 29.8
2 -10 4 429.96 37.9
1 -10 -4 592.74 41.6
-1 10 -4 491.15 37.6
-9 -1 -4 517.25 34.9
9 1 -4 571.24 39.5
10 -9 -4 485.85 39.9
1 -10 -4 604.94 41
-9 -1 -4 542.65 33.3
-10 9 -4 591.34 50.29
10 -9 -4 506.65 45.6
1 -10 4 562.84 42
-9 -1 4 504.25 35
-9 -1 4 479.05 36.1
-1 10 4 547.85 34.3
-10 9 4 470.65 39.1
1 -10 4 587.44 41.7
-10 9 4 448.96 42
10 -9 4 477.25 44.2
-10 10 -4 407.36 44.2
-10 0 -4 459.15 33.4
10 -10 -4 413.06 38
10 0 -4 486.35 37.9
-10 0 -4 461.75 30.8
10 -10 -4 457.85 43.5
0 -10 -4 436.96 36.1
0 -10 -4 507.65 37.5
-10 10 -4 471.45 45.7
0 10 -4 489.85 35
-10 10 4 449.06 39.7
0 -10 4 594.44 42.2
0 -10 4 538.55 40.8
-10 0 4 475.45 35
10 -10 4 444.26 45.8
0 10 4 530.75 32.9
-10 0 4 479.55 36.9
-10 10 4 458.25 47.4
11 -1 -4 181.48 29.5
-10 11 -4 240.68 34
1 10 -4 228.68 24.5
10 -11 -4 139.49 25.9
10 -11 -4 158.78 23.7
-10 11 -4 202.18 33.8
-1 -10 -4 202.98 24.7
-11 1 -4 219.88 21.4
-11 1 -4 183.48 24.5
-10 11 4 188.58 29.6
1 10 4 221.58 19
-11 1 4 174.08 23.5
-10 11 4 82.79 36.6
-1 -10 4 238.28 29.5
-1 -10 4 196.38 28.6
10 -11 4 198.78 34.6
-11 1 4 215.78 27.2
-11 2 -4 171.18 27.4
11 -2 -4 210.98 30.8
-2 -9 -4 186.78 22.8
-11 2 -4 216.58 25.3
-2 -9 -4 217.28 24.9
-9 11 -4 248.08 34.9
9 -11 -4 197.18 29.7
-9 11 -4 209.48 32.5
9 -11 -4 212.28 33.8
2 9 -4 226.68 24.1
-11 2 4 134.29 21.1
11 -2 4 188.08 19.3
-2 -9 4 191.08 27.4
-11 2 4 166.18 25.2
-2 -9 4 224.28 27.1
9 -11 4 140.39 21.7
-9 11 4 178.88 27.6
9 -11 4 203.78 29.7
-8 11 -4 523.45 44.6
-8 11 -4 607.84 61.49
11 -3 -4 556.54 46.5
3 8 -4 553.74 37.1
8 -11 -4 511.35 45.6
-11 3 -4 506.05 39.5
-11 3 -4 521.35 35.9
8 -11 -4 512.65 43.6
-3 -8 -4 554.34 36.5
-3 -8 -4 568.44 38.1
-3 -8 4 551.74 40.8
-11 3 4 482.15 46.1
8 -11 4 507.25 46.9
8 -11 4 521.75 42.7
-3 -8 4 630.84 40.9
-11 3 4 552.64 40.3
11 -3 4 498.25 37
-8 11 4 465.95 39.8
4 7 -4 845.22 53.49
-4 -7 -4 928.11 52.39
-7 11 -4 900.81 60.59
7 -11 -4 906.01 61.79
-11 4 -4 917.31 54.59
-11 4 -4 930.01 57.99
-4 -7 -4 969.6 54.29
11 -4 -4 910.11 63.69
7 -11 4 823.82 59.79
-7 11 4 748.33 51.99
-11 4 4 789.42 52.69
-11 4 4 783.02 51.49
-4 -7 4 897.71 52.49
7 -11 4 859.31 56.69
11 -4 4 738.83 51.79
-4 -7 4 846.22 52.59
11 -5 -4 545.45 49.8
5 6 -4 579.94 39.2
-5 -6 -4 587.14 35.9
-5 -6 -4 676.03 38.5
6 -11 -4 558.94 45
-11 5 -4 580.14 40.2
6 -11 -4 577.74 45.8
-11 5 -4 561.94 43.4
-6 11 -4 597.14 45.4
-5 -6 4 538.75 38.6
-5 -6 4 552.24 39.3
6 -11 4 556.54 47.7
11 -5 4 519.35 41.1
-11 5 4 507.75 39.2
-11 5 4 477.85 39.7
6 -11 4 594.44 43.9
-6 11 4 530.55 39.1
6 5 -4 337.07 40.3
11 -6 -4 418.66 46.3
5 -11 -4 434.26 38.6
-11 6 -4 472.85 38.2
-6 -5 -4 429.76 28.1
-11 6 -4 406.06 42.3
-5 11 -4 401.66 37.3
-6 -5 -4 510.75 30.3
5 -11 -4 418.76 37.7
11 -6 4 470.05 40.9
-6 -5 4 504.25 36.6
-5 11 4 456.85 36.2
-11 6 4 467.15 38.8
5 -11 4 532.35 46.7
-11 6 4 538.15 39.4
-6 -5 4 489.95 36.9
5 -11 4 550.84 42.4
-7 -4 -4 396.76 27.1
4 -11 -4 344.87 34.5
-11 7 -4 326.07 32.4
7 4 -4 402.06 30.7
-4 11 -4 352.36 34.1
4 -11 -4 379.96 35.7
-7 -4 -4 362.16 25.2
-11 7 -4 393.66 36.9
4 -11 4 459.35 42.1
11 -7 4 392.76 43.9
-11 7 4 365.96 33.8
4 -11 4 351.06 35.9
-7 -4 4 374.76 30.5
-4 11 4 318.77 37.3
-11 7 4 413.26 35.3
-7 -4 4 384.46 31.5
3 -11 -4 155.28 26.6
-11 8 -4 126.09 20.5
-8 -3 -4 157.08 17
3 -11 -4 114.59 18.8
-3 11 -4 133.89 23.1
-11 8 -4 154.58 25.6
8 3 -4 120.49 20
-8 -3 -4 115.79 15.9
-8 -3 4 119.09 17.1
3 -11 4 136.39 21.4
11 -8 4 126.99 22.3
-8 -3 4 125.29 20.4
-3 11 4 124.79 19.9
-11 8 4 135.59 20.9
3 -11 4 138.39 22.5
-11 8 4 94.79 18.3
-11 9 -4 19.6 16.8
11 -9 -4 9.3 14.9
2 -11 -4 13.3 13.8
9 2 -4 38.8 12.4
2 -11 -4 27 13.6
-9 -2 -4 34.6 9.2
-9 -2 -4 30.8 10.4
-11 9 -4 26.6 15.3
2 -11 4 17.5 14.9
-9 -2 4 10.2 12.3
11 -9 4 18.6 15.9
-2 11 4 17.7 10.3
-11 9 4 31 15.3
-11 9 4 9.4 15.5
-9 -2 4 44 12
2 -11 4 39.4 15.6
-11 10 -4 77.49 20.9
-10 -1 -4 49.6 10.7
11 -10 -4 63.29 20.7
1 -11 -4 53.29 14.9
10 1 -4 65.79 14.8
-1 11 -4 49.1 13.1
-10 -1 -4 67.09 12.9
1 -11 -4 64.29 17.1
-11 10 -4 56.79 21
-11 10 4 54.89 16.4
-10 -1 4 71.29 13.7
-10 -1 4 46.2 14.4
11 -10 4 26.1 16.7
1 -11 4 55.99 16.3
-11 10 4 52.69 18
1 -11 4 74.39 18.5
-1 11 4 52.79 11.5
-11 11 -4 93.89 20.9
-11 0 -4 150.98 22.6
0 11 -4 155.68 23.1
0 -11 -4 116.29 18.4
11 -11 -4 111.59 23.6
-11 11 -4 111.49 25.7
11 0 -4 137.09 21.1
0 -11 -4 162.38 25.9
-11 0 -4 115.79 18.6
-11 0 4 141.99 24.8
-11 11 4 105.29 21.2
11 -11 4 132.19 24.2
-11 0 4 140.99 21.9
-11 11 4 122.59 35.2
0 -11 4 118.99 32
0 11 4 138.59 18.6
0 -11 4 102.99 22.5
12 -2 -4 7.6 16.4
10 -12 -4 6.4 13.9
-10 12 -4 18.1 22.4
-12 2 -4 22.3 13.1
-10 12 -4 11.1 16.2
-2 -10 -4 46.1 13.1
-2 -10 -4 22.3 12.6
10 -12 -4 -3.5 17.6
-12 2 -4 8.4 10
-10 12 4 13.5 13.6
-12 2 4 7 11
-12 2 4 14.9 14.6
10 -12 4 -2.7 15.8
-2 -10 4 15.4 14.5
-2 -10 4 21 15
-3 -9 -4 173.38 23.6
-12 3 -4 175.58 22.4
9 -12 -4 144.19 23.9
9 -12 -4 168.88 27
-12 3 -4 151.78 23.7
3 9 -4 124.89 18
-9 12 -4 154.58 26.4
12 -3 -4 140.09 25.4
-3 -9 -4 206.28 24.5
-9 12 4 159.18 26.6
-12 3 4 161.88 27.1
12 -3 4 133.29 21
9 -12 4 133.09 27.5
-3 -9 4 182.78 36.3
-3 -9 4 199.08 26.7
-12 3 4 144.59 22.5
-12 4 -4 268.67 27.6
-8 12 -4 257.77 35.8
-4 -8 -4 310.47 26.3
-4 -8 -4 326.77 27.9
-12 4 -4 284.57 32.1
8 -12 -4 276.97 35.1
8 -12 -4 273.77 36.7
12 -4 -4 296.27 39
4 8 -4 280.87 27
-4 -8 4 317.67 31.2
8 -12 4 316.87 35.5
-12 4 4 286.07 32.2
-12 4 4 257.37 29
12 -4 4 248.08 27.6
-8 12 4 192.98 35.1
-4 -8 4 281.17 31.3
8 -12 4 355.96 42
5 7 -4 123.39 21
-5 -7 -4 129.49 18.4
-7 12 -4 119.59 22.8
7 -12 -4 94.29 20.3
-5 -7 -4 150.98 20.5
-12 5 -4 98.59 19.3
7 -12 -4 127.69 24
-12 5 -4 104.19 17.2
-5 -7 4 115.99 18.7
12 -5 4 65.59 16.8
-5 -7 4 136.59 23.9
-12 5 4 84.79 18.6
7 -12 4 49.3 23
7 -12 4 150.48 23.6
-12 5 4 72.59 16.6
-7 12 4 68.99 16.1
12 -6 -4 35.4 18.9
6 -12 -4 43.5 17.6
-12 6 -4 34.6 12.9
-6 -6 -4 40.3 10.5
-12 6 -4 59.89 18.2
-6 12 -4 29.8 17.1
6 -12 -4 38.9 16
6 6 -4 46.5 12
-6 -6 -4 45.1 11.5
6 -12 4 39.8 18.5
6 -12 4 37.4 15.2
-12 6 4 42.4 14.2
-12 6 4 35.5 14.7
-6 -6 4 32.1 13.6
12 -6 4 57.49 16.3
-6 12 4 54.59 14.3
-6 -6 4 44.4 14.6
5 -12 -4 352.96 37.7
7 5 -4 375.76 28.8
-12 7 -4 400.46 40.1
-7 -5 -4 410.66 28
-5 12 -4 342.87 36
5 -12 -4 442.16 38.8
-7 -5 -4 358.86 26.4
-12 7 -4 314.87 33.3
12 -7 4 345.67 38.1
5 -12 4 429.16 47
-7 -5 4 424.16 33.7
5 -12 4 386.66 38.2
-12 7 4 357.86 36.4
-7 -5 4 380.26 33.7
-12 7 4 380.76 35.2
-8 -4 -4 284.97 22.5
-8 -4 -4 267.77 23.2
4 -12 -4 275.77 33.2
-4 12 -4 249.48 30.4
-12 8 -4 282.37 31.4
4 -12 -4 228.38 33.4
-12 8 -4 260.47 35.9
8 4 -4 281.87 25.3
-8 -4 4 254.07 27
-4 12 4 225.38 26.4
-8 -4 4 225.98 27.3
4 -12 4 260.57 37.3
4 -12 4 250.07 31.8
-12 8 4 240.88 30.6
-12 8 4 235.58 31.9
-12 9 -4 205.68 29.1
-9 -3 -4 198.08 19.8
3 -12 -4 218.28 29.4
12 -9 -4 145.99 25.9
9 3 -4 195.18 23.3
-3 12 -4 143.59 26.3
-9 -3 -4 224.38 26.1
3 -12 -4 227.28 31.8
-9 -3 4 173.18 28.6
-12 9 4 168.48 28.7
-12 9 4 121.19 20.7
3 -12 4 178.88 29.9
-9 -3 4 151.38 23.3
12 -9 4 136.69 24.3
3 -12 4 207.78 34
-3 12 4 158.88 23.1
-10 -2 -4 70.09 11.9
-12 10 -4 45.6 18.8
-10 -2 -4 64.69 12.7
2 -12 -4 44.2 17.5
-12 10 -4 77.09 23.9
2 -12 -4 61.09 17
-2 12 -4 48.2 22.7
10 2 -4 63.99 14.1
12 -10 -4 49 21.2
-10 -2 4 61.89 13.8
2 -12 4 59.69 20.1
-10 -2 4 56.79 15.1
-2 12 4 66.19 19.1
-12 10 4 62.69 19.7
-12 10 4 41.7 17.3
2 -12 4 43.5 18.1
12 -10 4 68.69 19.6
13 -5 -4 111.29 33.4
-13 5 -4 171.58 25
6 7 -4 63.29 12.9
-13 6 -4 66.09 16
-13 7 -4 41.1 15.1
7 6 -4 46.5 15.3
8 5 -4 85.29 16.2
0 0 -5 2.8 1.8
0 0 -5 2.2 1.7
0 0 5 11.3 2.3
-1 1 -5 624.84 33.6
1 -1 -5 689.83 33.2
0 1 -5 643.44 33.5
0 -1 -5 678.53 32.5
1 0 -5 677.83 33.4
0 -1 -5 633.94 32.5
0 1 -5 639.84 33.7
-1 0 -5 632.14 32.4
1 -1 -5 636.54 33.3
-1 1 -5 565.04 33.6
-1 0 -5 618.54 32.5
1 0 5 892.81 43.9
1 0 5 790.82 44.2
-1 0 5 892.21 45
1 -1 5 793.02 45.1
-1 1 5 928.01 45
0 -1 5 881.11 45.3
0 1 5 889.11 44.1
0 -1 5 872.81 45.2
0 1 5 940.11 44
-1 0 5 922.91 45.1
-2 1 -5 1221.48 62.09
1 -2 -5 1232.38 61.69
-1 2 -5 1168.28 63.49
2 -1 -5 1218.28 62.39
-1 2 -5 1174.98 63.39
-1 -1 -5 1234.58 60.29
-1 -1 -5 1281.97 60.29
-2 1 -5 1069.99 61.99
1 -2 -5 1225.08 61.89
1 1 -5 1313.77 62.39
1 1 -5 1247.08 62.49
2 -1 -5 1306.97 62.19
-1 2 5 957.6 45.2
-1 2 5 893.51 44.4
2 -1 5 758.62 44.8
-2 1 5 922.71 45.1
-1 -1 5 902.21 45.2
1 -2 5 733.83 45.9
-1 -1 5 891.61 45.2
2 -1 5 889.21 44.4
-2 1 5 953.7 45.6
1 -2 5 821.92 45.9
0 -2 -5 4019.4 196.78
-2 0 -5 3679.63 196.68
-2 2 -5 3635.94 198.78
-2 0 -5 3994.8 196.68
0 2 -5 3950.3 198.78
2 -2 -5 4000 198.18
2 0 -5 4009.6 198.18
-2 2 -5 4063.79 198.78
0 2 -5 3778.02 198.48
2 -2 -5 4371.26 197.98
0 -2 -5 4348.17 196.88
2 0 -5 4328.77 198.08
0 2 5 3816.92 197.08
0 -2 5 3752.72 199.08
0 -2 5 3835.02 199.08
-2 0 5 4039.7 198.48
2 0 5 4364.76 196.38
-2 2 5 4336.87 199.08
2 0 5 3995.9 196.28
2 -2 5 3848.42 198.68
-2 0 5 3887.31 198.28
0 2 5 4330.77 197.08
-2 2 5 4047.59 197.98
-2 3 -5 3678.03 187.38
-3 1 -5 3749.43 185.38
-1 -2 -5 3828.02 183.88
1 2 -5 3718.13 186.28
-3 1 -5 3646.44 185.38
3 -1 -5 4005.9 185.98
1 2 -5 4016.5 186.58
2 -3 -5 3673.03 186.68
2 -3 -5 3792.62 186.38
-2 3 -5 3415.86 187.58
-1 -2 -5 3812.92 183.88
-3 1 5 4049.4 188.58
-1 -2 5 3722.03 188.28
2 -3 5 3444.06 190.38
3 -1 5 4073.99 186.58
-1 -2 5 3691.63 188.48
-2 3 5 3904.81 188.78
-3 1 5 3764.02 187.88
2 -3 5 3759.32 189.18
1 -3 -5 862.31 46
3 -2 -5 924.41 46.2
2 1 -5 902.61 46.2
-3 2 -5 851.11 47
2 1 -5 859.21 46.3
-3 2 -5 801.22 46.4
1 -3 -5 935.51 46
3 -2 -5 903.91 47.1
-1 3 -5 912.61 48.4
1 -3 5 699.93 43.7
-1 3 5 856.21 42.2
-1 3 5 855.41 43
-2 -1 5 852.51 43
3 -2 5 688.63 43.6
-2 -1 5 792.52 42.8
1 -3 5 812.32 45.2
-3 2 5 868.11 43
-3 2 5 893.51 44
3 -2 5 827.02 42.4
-3 3 -5 2240.98 116.99
3 0 -5 2296.87 115.99
0 -3 -5 2345.77 115.09
0 3 -5 2249.68 116.89
3 -3 -5 2305.47 116.79
-3 0 -5 2189.98 113.79
-3 3 -5 2297.97 117.79
0 -3 -5 2290.37 114.69
3 -3 -5 2503.85 116.19
0 3 -5 2239.88 117.59
3 0 -5 2463.75 115.89
3 -3 5 2205.08 114.89
-3 3 5 2370.16 114.39
3 -3 5 2088.09 116.49
0 -3 5 2160.48 115.99
0 3 5 2266.17 113.39
-3 0 5 2436.56 114.89
0 -3 5 2238.38 115.69
0 3 5 2365.86 113.09
-3 0 5 2347.67 114.59
-3 3 5 2371.46 115.79
-3 4 -5 242.68 18.6
-1 -3 -5 194.98 13.5
4 -1 -5 242.38 15.4
1 3 -5 208.08 16.4
3 -4 -5 208.58 17
4 -1 -5 207.28 16
-1 -3 -5 236.28 13.3
3 -4 -5 227.68 15.9
-4 1 -5 211.78 15.1
-4 1 -5 189.88 16.8
1 3 -5 202.58 15.9
-3 4 -5 207.58 16.9
3 -4 5 196.48 16.1
1 3 5 209.08 11.7
1 3 5 207.68 11.6
-3 4 5 207.08 14.6
-3 4 5 232.48 16.8
-4 1 5 183.18 14.6
4 -1 5 230.78 12.2
3 -4 5 217.08 18
-1 -3 5 193.18 15.8
-4 1 5 220.08 15.6
-1 -3 5 205.98 15.6
4 -1 5 187.88 13.7
2 2 -5 268.47 17.8
-2 4 -5 287.27 19.8
2 -4 -5 278.67 19
-2 4 -5 234.88 19.8
-2 -2 -5 250.47 14.1
4 -2 -5 284.47 17.7
4 -2 -5 277.97 18.8
2 2 -5 273.67 17.7
-4 2 -5 277.87 17.7
2 -4 -5 264.57 17.8
-2 -2 5 240.08 16.9
2 -4 5 230.18 19.7
2 -4 5 260.07 18.6
-2 -2 5 262.77 16.8
-2 4 5 233.88 17.5
4 -2 5 242.48 17.4
-4 2 5 258.77 16.9
-4 2 5 260.47 17.8
4 -2 5 273.27 15.5
-4 3 -5 1062.29 58.49
-1 4 -5 1109.99 59.59
-3 -1 -5 1216.28 53.69
4 -3 -5 1112.19 57.09
1 -4 -5 1036.8 56.49
3 1 -5 1022.1 56.89
3 1 -5 1112.09 56.79
-4 3 -5 1012.1 57.79
4 -3 -5 1059.59 58.29
-3 -1 -5 1112.99 53.69
1 -4 5 1001.4 56.59
-1 4 5 1059.49 54.19
-3 -1 5 1028.6 54.99
-1 4 5 1046.3 55.19
-3 -1 5 1010.1 54.89
1 -4 5 1103.09 58.59
-4 3 5 1066.19 55.19
4 -3 5 1035.2 54.69
-4 3 5 1123.99 56.69
0 4 -5 38.9 7
0 -4 -5 24.9 5.5
4 -4 -5 40.9 7
-4 4 -5 40.1 8
0 4 -5 41.9 8.5
0 -4 -5 49.3 7.5
-4 0 -5 41.9 6.3
4 0 -5 22.7 6.3
4 -4 -5 40.5 8.8
4 0 -5 49.2 8.6
-4 0 -5 44.9 5.7
-4 0 5 64.29 9.6
-4 0 5 49.8 9.1
0 -4 5 72.29 10.9
4 0 5 60.19 5.4
0 -4 5 60.79 9.3
-4 4 5 63.69 9.5
4 -4 5 39.5 7.7
4 -4 5 69.69 9.9
0 4 5 63.39 7.1
-4 4 5 70.39 11.5
4 0 5 65.79 4.4
0 4 5 85.99 8.4
-5 1 -5 730.63 36.1
-4 5 -5 690.23 41
-1 -4 -5 619.44 35
5 -1 -5 624.14 37.6
-5 1 -5 623.34 35.3
1 4 -5 685.43 40.1
5 -1 -5 645.34 36.5
4 -5 -5 687.63 38
-1 -4 -5 654.93 35.4
-4 5 -5 639.44 39.3
4 -5 -5 642.14 39.8
1 4 -5 616.84 37.7
4 -5 5 584.44 38.9
-5 1 5 677.03 36.2
1 4 5 642.94 32.8
1 4 5 571.34 32.9
4 -5 5 639.94 37.1
-1 -4 5 614.04 37.2
5 -1 5 616.84 34.4
-1 -4 5 640.44 36.8
5 -1 5 682.33 32.6
-4 5 5 625.84 35.6
-4 5 5 603.74 37.7
-5 1 5 615.44 35.5
3 -5 -5 1076.19 55.19
-5 2 -5 1029.6 54.89
-5 2 -5 977.6 53.69
-2 -3 -5 957.4 51.69
5 -2 -5 994.9 55.29
2 3 -5 961.4 54.69
-2 -3 -5 1016.5 51.79
5 -2 -5 1067.79 53.99
-3 5 -5 1047.7 56.49
-3 5 -5 1033.4 58.19
3 -5 -5 1041.4 56.69
-5 2 5 987.5 52.99
-5 2 5 981.7 53.69
-2 -3 5 1030.3 53.79
5 -2 5 982.5 53.49
-2 -3 5 948.31 53.29
5 -2 5 1080.79 51.19
3 -5 5 1005.6 54.99
-3 5 5 1013.6 54.99
3 -5 5 902.51 56.19
-3 5 5 979.8 52.69
-3 -2 -5 1617.74 79.09
-3 -2 -5 1627.84 78.89
-5 3 -5 1590.54 83.29
2 -5 -5 1694.23 84.39
3 2 -5 1587.34 82.39
5 -3 -5 1708.93 82.69
-2 5 -5 1590.84 84.69
2 -5 -5 1537.35 82.79
-2 5 -5 1568.34 85.89
5 -3 -5 1588.44 84.29
-5 3 -5 1513.95 84.49
-3 -2 5 1828.02 93.69
5 -3 5 1859.01 93.69
-5 3 5 2009.5 95.39
-2 5 5 1782.82 99.49
2 -5 5 1854.01 95.99
5 -3 5 1719.33 100.19
2 -5 5 1836.72 98.09
-5 3 5 1942.91 93.99
-2 5 5 1866.61 93.39
-3 -2 5 1614.24 96.09
-5 4 -5 3011.5 160.78
5 -4 -5 3045.7 161.48
1 -5 -5 3197.38 159.78
4 1 -5 2925.31 159.58
-1 5 -5 3155.88 161.28
-4 -1 -5 3224.08 156.18
-4 -1 -5 3472.55 156.18
1 -5 -5 3119.79 159.28
5 -4 -5 3252.87 159.78
-1 5 -5 3395.86 163.08
-4 -1 5 2626.74 142.39
-4 -1 5 2649.03 138.79
-5 4 5 2893.31 139.49
1 -5 5 2895.21 143.09
5 -4 5 2576.74 142.79
-1 5 5 2916.21 139.79
1 -5 5 2808.02 141.09
5 -4 5 2427.06 140.99
-5 4 5 2978.4 141.39
-1 5 5 2873.71 138.29
-5 5 -5 899.51 52.19
-5 0 -5 945.01 47
0 5 -5 893.61 51.29
0 -5 -5 884.31 49.1
5 0 -5 922.11 49.3
0 -5 -5 947.61 49.4
0 5 -5 1002.8 53.39
5 -5 -5 862.41 52.79
-5 0 -5 851.21 47.2
5 -5 -5 949.6 50.99
5 -5 5 594.34 38.8
0 -5 5 658.23 37.1
-5 5 5 595.94 35.3
-5 0 5 664.03 35.7
0 5 5 582.64 33
5 0 5 560.54 31.6
0 5 5 622.84 34.4
5 0 5 610.54 30.6
0 -5 5 645.94 38.2
-5 5 5 592.04 37.6
-5 0 5 576.04 34.6
-1 -5 -5 103.99 11.1
6 -1 -5 107.59 12.9
-1 -5 -5 87.99 11.5
-6 1 -5 104.39 11.3
-6 1 -5 118.09 11.4
5 -6 -5 106.99 16.2
5 -6 -5 114.99 14.9
6 -1 -5 121.69 13.9
-5 6 -5 95.99 16.3
1 5 -5 118.09 16
-1 -5 5 65.59 10.7
-6 1 5 85.19 12.4
6 -1 5 73.59 9.6
6 -1 5 81.59 7.6
-1 -5 5 72.29 11.6
-6 1 5 66.79 12.1
1 5 5 74.89 8.5
5 -6 5 64.09 12.2
-5 6 5 84.79 13.9
-5 6 5 77.89 12.2
1 5 5 77.79 9.3
-2 -4 -5 1032.8 55.99
4 -6 -5 1087.59 59.49
6 -2 -5 1030.7 59.49
-2 -4 -5 1087.99 56.19
6 -2 -5 1083.99 57.59
-4 6 -5 1157.28 63.49
-6 2 -5 1175.78 58.09
-6 2 -5 1053.99 57.49
4 -6 -5 1028.2 61.39
2 4 -5 1086.69 60.09
-4 6 -5 1058.49 60.59
-6 2 5 946.41 52.39
4 -6 5 841.62 55.79
6 -2 5 1030.4 49.8
-2 -4 5 951.7 57.49
-2 -4 5 923.41 53.39
6 -2 5 969.9 52.69
4 -6 5 980.6 54.69
-6 2 5 996.2 53.09
-4 6 5 995.4 55.39
-4 6 5 963.3 52.59
-6 3 -5 1504.95 79.19
3 3 -5 1525.55 78.49
-6 3 -5 1455.75 78.39
6 -3 -5 1274.77 81.29
-3 -3 -5 1565.54 74.59
-3 6 -5 1511.15 80.69
-3 6 -5 1632.64 83.69
3 -6 -5 1460.15 79.09
6 -3 -5 1435.26 80.29
3 -6 -5 1586.34 81.09
-3 -3 -5 1480.85 74.99
6 -3 5 1728.03 83.99
-3 -3 5 1628.64 85.29
-3 6 5 1752.62 88.29
-6 3 5 1709.53 86.89
-3 -3 5 1583.44 85.59
3 -6 5 1703.83 88.29
6 -3 5 1597.74 86.89
-6 3 5 1585.54 85.49
3 -6 5 1548.55 89.49
-6 4 -5 3028.9 158.88
-6 4 -5 2904.71 156.88
-4 -2 -5 3243.18 151.98
6 -4 -5 3219.38 156.08
2 -6 -5 3192.18 156.58
-4 -2 -5 3102.09 151.98
6 -4 -5 3100.99 158.58
-2 6 -5 3157.28 160.28
4 2 -5 2882.71 155.78
4 2 -5 3007.9 155.28
2 -6 -5 3244.18 157.18
-2 6 -5 3030.5 157.98
2 -6 5 3093.89 155.78
-2 6 5 2977.3 152.58
-4 -2 5 2981.4 152.78
-6 4 5 3201.18 155.08
6 -4 5 3156.98 152.38
-4 -2 5 2866.51 152.48
2 -6 5 2977.5 157.68
-2 6 5 3204.38 154.98
-6 4 5 2892.51 153.48
5 1 -5 2531.35 129.79
-1 6 -5 2861.81 135.49
1 -6 -5 2521.75 130.79
-5 -1 -5 2770.72 127.29
6 -5 -5 2460.05 133.99
-6 5 -5 2434.06 132.69
-5 -1 -5 2555.94 127.39
-1 6 -5 2530.85 132.49
6 -5 -5 2637.54 131.49
5 1 -5 2391.86 130.49
1 -6 -5 2586.84 131.09
6 -5 5 2432.06 123.89
-5 -1 5 2346.07 123.39
-1 6 5 2532.35 124.79
6 -5 5 2357.96 127.39
-6 5 5 2509.35 126.69
1 -6 5 2483.15 126.29
-5 -1 5 2444.86 123.59
-1 6 5 2406.06 122.69
1 -6 5 2437.66 127.79
-6 5 5 2392.26 124.09
0 -6 -5 985.6 54.19
-6 0 -5 1009.2 51.19
-6 0 -5 975.7 51.99
0 -6 -5 983.1 53.99
6 -6 -5 848.22 59.39
0 6 -5 986.4 55.69
6 -6 -5 991.3 55.89
6 0 -5 987.9 53.49
-6 6 -5 932.91 57.19
0 6 -5 1177.08 59.39
0 -6 5 841.82 47.2
-6 6 5 797.32 45.5
-6 0 5 790.12 44.7
6 0 5 769.12 40
0 -6 5 826.12 48.4
-6 6 5 825.22 48.7
0 6 5 817.22 44.5
-6 0 5 774.02 44.8
6 -6 5 784.12 45.8
6 0 5 739.23 42.5
6 -6 5 759.12 49.3
0 6 5 798.22 43.2
-1 -6 -5 306.87 21.8
-7 1 -5 291.37 21.3
6 -7 -5 306.17 31.4
-7 1 -5 289.27 20.3
1 6 -5 377.26 27.6
6 -7 -5 307.47 25.1
-6 7 -5 281.87 26.6
7 -1 -5 332.47 22.2
-1 -6 -5 268.47 21.6
-1 -6 5 310.77 23.9
-1 -6 5 282.37 24.4
7 -1 5 265.67 19.2
7 -1 5 275.87 16.7
1 6 5 288.17 18.2
6 -7 5 249.58 22.9
-7 1 5 283.47 21.8
-6 7 5 246.58 22.2
-7 1 5 298.37 21.9
-6 7 5 274.77 26
1 6 5 268.67 19.1
6 -7 5 252.67 26.1
-7 2 -5 446.56 26.1
7 -2 -5 362.56 26
5 -7 -5 391.46 28.9
5 -7 -5 443.06 34.2
-5 7 -5 403.16 31.1
2 5 -5 449.46 29.9
-2 -5 -5 393.26 25.2
-7 2 -5 398.06 26.3
2 5 -5 338.27 27.2
7 -2 -5 381.06 29.2
-2 -5 -5 423.56 25
-5 7 5 321.37 26.9
2 5 5 327.67 17.4
-7 2 5 282.07 22.8
-2 -5 5 332.27 24.1
7 -2 5 310.27 22.2
5 -7 5 263.17 26.9
2 5 5 269.97 17
-7 2 5 311.37 23.2
5 -7 5 332.47 30.5
7 -2 5 320.77 19
-2 -5 5 321.47 24.7
-5 7 5 311.17 23.3
-4 7 -5 1658.13 86.49
-3 -4 -5 1580.34 80.09
3 4 -5 1382.26 86.39
-3 -4 -5 1470.75 80.59
7 -3 -5 1643.94 82.99
3 4 -5 1609.14 84.89
-4 7 -5 1834.22 90.79
4 -7 -5 1536.05 84.79
-7 3 -5 1621.34 83.69
4 -7 -5 1547.65 85.69
7 -3 -5 1568.24 86.19
-7 3 -5 1601.24 83.69
4 -7 5 1269.27 96.49
-4 7 5 1668.23 85.79
-7 3 5 1495.55 81.79
7 -3 5 1551.74 83.09
-3 -4 5 1588.64 82.59
7 -3 5 1651.43 79.59
-7 3 5 1503.35 82.39
-3 -4 5 1578.54 82.09
4 -7 5 1631.84 84.89
-4 7 5 1498.85 81.89
-7 4 -5 1537.45 85.59
-7 4 -5 1515.95 86.39
4 3 -5 1657.63 84.69
7 -4 -5 1639.84 84.59
-4 -3 -5 1596.14 80.39
3 -7 -5 1589.34 89.79
7 -4 -5 1604.64 88.19
-4 -3 -5 1663.93 81.29
-3 7 -5 1707.23 90.59
3 -7 -5 1632.64 86.59
4 3 -5 1594.94 84.59
-3 7 -5 1575.64 86.99
-4 -3 5 1530.05 82.39
3 -7 5 1494.95 87.59
-3 7 5 1644.64 85.99
-4 -3 5 1564.44 82.79
-7 4 5 1596.34 84.49
3 -7 5 1683.93 86.29
-7 4 5 1540.65 83.19
7 -4 5 1611.44 81.49
7 -4 5 1498.85 85.09
-5 -2 -5 1728.43 84.29
5 2 -5 1617.64 88.19
-7 5 -5 1576.74 91.19
5 2 -5 1640.54 87.59
-2 7 -5 1816.02 94.49
-7 5 -5 1615.54 90.39
-5 -2 -5 1668.63 84.39
-2 7 -5 1626.64 90.89
2 -7 -5 1759.02 89.79
7 -5 -5 1759.92 89.29
7 -5 -5 1691.23 93.19
2 -7 -5 1740.23 90.09
-5 -2 5 1559.34 82.99
2 -7 5 1592.14 88.89
-2 7 5 1685.83 86.19
2 -7 5 1545.75 86.49
-7 5 5 1645.54 86.49
7 -5 5 1607.44 83.09
-5 -2 5 1534.65 83.09
-7 5 5 1539.05 84.09
-2 7 5 1585.24 82.89
6 1 -5 1104.49 64.49
-6 -1 -5 1199.18 61.19
-6 -1 -5 1133.79 63.59
1 -7 -5 1229.88 65.29
6 1 -5 1178.58 63.59
-7 6 -5 1153.48 69.89
-7 6 -5 1194.78 67.79
-1 7 -5 1219.28 66.39
7 -6 -5 1224.18 66.19
7 -6 -5 1138.79 70.39
1 -7 -5 1260.97 65.49
-7 6 5 1020.6 58.79
-6 -1 5 979.3 54.39
1 -7 5 944.01 57.39
-1 7 5 1012.4 56.19
-1 7 5 950.3 53.39
7 -6 5 1042.7 55.69
-6 -1 5 938.41 54.39
-7 6 5 995.2 55.89
7 -6 5 987.1 59.79
1 -7 5 1024 59.49
-7 0 -5 1243.78 67.19
-7 7 -5 1330.77 73.99
7 0 -5 1254.47 70.49
7 -7 -5 1301.67 77.09
-7 0 -5 1347.87 66.39
0 -7 -5 1229.28 69.09
7 0 -5 1248.88 68.19
0 7 -5 1197.58 69.99
0 -7 -5 1391.06 70.39
7 -7 5 1248.28 73.89
7 0 5 1207.28 63.79
0 7 5 1329.77 66.29
0 -7 5 1327.87 70.89
7 -7 5 1214.38 68.99
-7 0 5 1224.18 67.79
0 7 5 1263.57 67.79
7 0 5 1205.48 62.69
0 -7 5 1391.86 72.29
-7 7 5 1232.08 72.19
-7 0 5 1191.18 67.49
8 -1 -5 191.68 18.9
-1 -7 -5 229.08 19.8
-8 1 -5 200.18 17
-7 8 -5 181.58 24.3
1 7 -5 189.68 21
1 7 -5 250.07 36.3
7 -8 -5 175.68 23.2
-8 1 -5 191.88 18.4
-1 -7 -5 209.58 19.8
8 -1 -5 204.38 30.6
-1 -7 5 262.67 24.9
8 -1 5 210.68 17.3
-7 8 5 248.38 26.5
8 -1 5 198.08 18.6
-7 8 5 192.38 21.8
-8 1 5 206.28 21.2
1 7 5 247.18 18.4
-1 -7 5 245.88 23.4
7 -8 5 249.97 27.3
7 -8 5 198.88 23
6 -8 -5 96.49 16.3
2 6 -5 112.19 18.7
8 -2 -5 107.09 15
-2 -6 -5 99.59 13.4
-6 8 -5 117.09 17.2
-6 8 -5 93.09 24.2
-2 -6 -5 96.49 13.9
6 -8 -5 88.29 14.6
2 6 -5 85.69 13.3
-8 2 -5 88.89 13.8
-8 2 -5 99.09 14.6
2 6 5 43.2 5.9
6 -8 5 37 13
8 -2 5 47.5 9.1
-6 8 5 39.6 13.9
8 -2 5 43.4 6.6
-2 -6 5 28.5 10.6
-2 -6 5 37.1 10.3
6 -8 5 31.2 11.2
2 6 5 31 5.6
-6 8 5 34.3 9.3
-8 2 5 39.2 10
-8 2 5 19.1 8.8
8 -3 -5 1635.34 93.19
5 -8 -5 1628.74 93.09
-5 8 -5 1781.12 96.19
-3 -5 -5 1640.74 88.09
8 -3 -5 1710.23 89.39
-3 -5 -5 1655.63 87.09
3 5 -5 1666.23 90.19
5 -8 -5 1632.74 92.19
-8 3 -5 1659.73 90.29
-8 3 -5 1782.32 89.69
3 5 -5 1977.4 93.09
8 -3 5 1533.65 76.99
-8 3 5 1500.95 80.69
-5 8 5 1445.16 80.49
-3 -5 5 1464.65 80.99
5 -8 5 1415.26 85.39
5 -8 5 1631.44 84.49
-8 3 5 1437.66 80.09
-5 8 5 1538.15 84.79
-3 -5 5 1520.25 81.29
8 -3 5 1469.45 80.99
-8 4 -5 1608.24 93.19
-4 8 -5 1963.3 100.99
-4 8 -5 1835.82 96.29
-8 4 -5 1721.73 93.79
-4 -4 -5 1808.72 89.69
4 4 -5 1813.32 94.09
-4 -4 -5 1743.33 88.59
4 -8 -5 1722.13 95.39
4 4 -5 1754.62 92.69
4 -8 -5 1680.73 94.59
8 -4 -5 1759.62 92.49
8 -4 -5 1739.43 96.89
-4 8 5 1692.13 90.69
4 -8 5 1761.52 90.39
-4 8 5 1544.25 86.39
4 -8 5 1599.94 91.79
-8 4 5 1627.84 86.99
-4 -4 5 1560.74 86.39
8 -4 5 1554.94 88.29
-8 4 5 1637.14 87.79
8 -4 5 1674.73 84.29
-4 -4 5 1608.14 86.19
-5 -3 -5 254.17 16
8 -5 -5 247.18 27
8 -5 -5 235.98 21.6
-8 5 -5 171.98 28.7
5 3 -5 212.88 19.9
-8 5 -5 220.68 23.4
3 -8 -5 214.68 22.5
-3 8 -5 233.38 23.5
5 3 -5 211.08 20.6
-3 8 -5 269.17 28.1
-5 -3 -5 215.78 15
3 -8 -5 236.08 23.3
3 -8 5 193.98 22.4
-3 8 5 177.18 18.7
-5 -3 5 163.98 19.1
8 -5 5 183.88 21.9
8 -5 5 176.58 17.2
3 -8 5 156.38 25
-3 8 5 177.48 22.6
-8 5 5 196.98 20.5
-8 5 5 218.08 22.1
-5 -3 5 179.08 18.1
-8 6 -5 533.85 39.2
2 -8 -5 568.54 37.8
-6 -2 -5 574.94 31.5
-2 8 -5 570.84 38.7
-8 6 -5 610.74 41.7
6 2 -5 549.15 36.1
-2 8 -5 696.23 44.7
2 -8 -5 589.54 38.1
-6 -2 -5 570.54 31.9
8 -6 -5 592.54 37.9
8 -6 -5 527.35 43.7
6 2 -5 542.15 34.8
-8 6 5 538.45 37.5
2 -8 5 521.95 37.2
-2 8 5 581.84 38.7
-6 -2 5 514.15 33.5
-2 8 5 507.25 32.4
2 -8 5 548.25 39.6
-8 6 5 490.75 34.8
8 -6 5 512.45 33.2
-6 -2 5 501.25 32.8
8 -6 5 477.15 37.9
7 1 -5 1777.72 93.79
7 1 -5 1798.92 95.79
1 -8 -5 1804.62 95.99
-8 7 -5 1741.63 98.99
-1 8 -5 1837.02 96.89
-7 -1 -5 1728.23 91.89
8 -7 -5 1870.31 103.29
1 -8 -5 1812.12 96.39
8 -7 -5 1802.42 96.99
-8 7 -5 1721.93 100.49
-7 -1 -5 1902.41 91.39
8 -7 5 1753.02 102.99
-7 -1 5 1814.62 96.99
1 -8 5 1953.2 102.49
8 -7 5 1852.91 98.29
1 -8 5 2012.9 101.59
-7 -1 5 1832.12 97.39
-8 7 5 1919.31 102.59
-1 8 5 1833.82 96.39
-8 7 5 1741.93 98.59
-8 0 -5 278.67 21.8
0 -8 -5 305.27 24.9
-8 0 -5 290.07 20.2
8 -8 -5 269.17 26.8
0 -8 -5 273.67 24.2
0 8 -5 380.46 32.5
8 0 -5 265.97 25.6
8 0 -5 260.17 21.9
-8 8 -5 287.57 29.5
8 -8 -5 256.17 35.5
-8 8 -5 270.37 32.7
-8 8 5 244.28 28.1
0 8 5 268.57 21.4
-8 0 5 239.58 23.7
-8 8 5 239.78 24.8
0 8 5 276.77 20.1
-8 0 5 239.08 22.1
0 -8 5 282.77 27.6
0 -8 5 268.07 26.2
8 -8 5 251.37 30
8 -8 5 276.07 25.3
8 -9 -5 39 12.8
-1 -8 -5 50.99 11.4
-9 1 -5 60.09 11.2
-9 1 -5 82.19 15.4
-8 9 -5 52.39 20
9 -1 -5 56.79 13.7
8 -9 -5 27.6 13.7
-1 -8 -5 54.59 11.4
-8 9 -5 60.39 16.3
1 8 -5 45.3 11.6
-9 1 5 35.2 10.7
-9 1 5 37 11.2
-8 9 5 60.19 14.1
-8 9 5 40.3 14.5
8 -9 5 39.3 11.4
1 8 5 60.39 8.7
-1 -8 5 49.99 13.6
-1 -8 5 41.6 12.5
8 -9 5 34.6 15
9 -1 5 44.8 7.9
2 7 -5 29.6 10.1
-7 9 -5 12.8 13.8
7 -9 -5 10.6 10.8
7 -9 -5 3 12.4
2 7 -5 13 11.2
-2 -7 -5 28.8 14.1
9 -2 -5 19.1 11.5
-7 9 -5 8.3 22.3
-9 2 -5 20.7 9
9 -2 -5 26.6 8.5
-9 2 -5 16.9 8.4
-2 -7 -5 27 8.8
-7 9 5 23.1 10.1
2 7 5 27.3 5.8
-9 2 5 34.5 9.6
-9 2 5 30.7 10.9
2 7 5 30.1 6.2
-7 9 5 35.2 15.2
-2 -7 5 13.2 16.8
7 -9 5 15.7 12.7
7 -9 5 22.6 12.1
9 -2 5 34.3 9.6
-2 -7 5 23.7 10.4
9 -3 -5 247.78 22.4
3 6 -5 252.67 23.8
6 -9 -5 251.47 26.5
6 -9 -5 228.08 27.7
-9 3 -5 304.07 25.4
-6 9 -5 248.08 28.6
-9 3 -5 276.57 22.5
-3 -6 -5 195.28 23.8
-3 -6 -5 276.67 21.4
3 6 -5 326.07 27.3
9 -3 -5 312.97 28.3
-3 -6 5 341.87 27.1
-3 -6 5 327.77 28.4
-6 9 5 310.57 27
-9 3 5 309.77 26.3
-9 3 5 288.17 26.3
9 -3 5 308.87 25.7
6 -9 5 311.57 32.6
-6 9 5 312.77 31.5
6 -9 5 326.37 29.9
-4 -5 -5 1768.42 88.19
9 -4 -5 1699.93 91.39
9 -4 -5 1639.94 95.59
4 5 -5 1686.93 90.69
4 5 -5 1745.23 92.29
5 -9 -5 1701.33 93.59
-9 4 -5 1727.03 90.89
-9 4 -5 1628.74 91.99
-4 -5 -5 1693.73 86.79
5 -9 -5 1682.03 94.39
-9 4 5 1659.53 88.29
-4 -5 5 1708.03 88.09
5 -9 5 1607.84 93.49
5 -9 5 1817.62 91.89
-5 9 5 1580.04 87.69
-5 9 5 1345.07 95.59
-4 -5 5 1676.43 88.09
-9 4 5 1595.24 87.89
9 -4 5 1548.84 88.79
9 -5 -5 1308.27 73.39
5 4 -5 1310.57 73.19
4 -9 -5 1307.37 76.39
9 -5 -5 1344.87 79.69
-5 -4 -5 1315.07 68.79
-9 5 -5 1276.97 75.69
-9 5 -5 1329.37 75.09
-4 9 -5 1341.77 77.09
4 -9 -5 1337.37 76.29
-5 -4 -5 1520.05 70.49
-9 5 5 1239.58 72.89
-5 -4 5 1324.87 72.69
4 -9 5 1357.66 79.49
9 -5 5 1263.07 69.99
-9 5 5 1336.37 74.59
-4 9 5 1414.16 77.69
9 -5 5 1256.37 75.39
4 -9 5 1425.26 76.79
-5 -4 5 1220.58 71.59
-9 6 -5 673.63 48.5
-3 9 -5 951.7 56.59
-3 9 -5 809.22 49.9
-6 -3 -5 797.32 41.4
-6 -3 -5 735.53 40.9
9 -6 -5 718.63 54.19
6 3 -5 736.43 45.6
-9 6 -5 720.43 49.4
3 -9 -5 756.62 48.1
3 -9 -5 785.82 49.1
9 -6 -5 735.03 46.7
-6 -3 5 867.51 51.99
3 -9 5 931.01 56.89
-3 9 5 865.31 51.99
-9 6 5 983.2 56.69
9 -6 5 884.91 51.69
-9 6 5 842.32 54.09
-3 9 5 948.41 56.99
-6 -3 5 895.81 56.29
3 -9 5 954 60.29
-9 7 -5 1614.74 95.89
9 -7 -5 1744.03 93.49
-7 -2 -5 1799.72 87.29
2 -9 -5 1778.42 93.99
9 -7 -5 1374.06 113.69
2 -9 -5 1773.82 94.09
7 2 -5 1773.92 92.19
-7 -2 -5 1682.53 87.69
-2 9 -5 1759.82 93.99
-9 7 -5 1685.33 96.19
-9 7 5 1802.42 94.49
-7 -2 5 1630.74 88.79
9 -7 5 1614.34 95.29
9 -7 5 1617.44 89.39
-9 7 5 1598.64 90.89
2 -9 5 1739.83 93.69
-2 9 5 1670.13 88.49
2 -9 5 1747.03 95.69
-7 -2 5 1627.14 89.29
-1 9 -5 588.54 39.3
-9 8 -5 561.74 43.7
8 1 -5 623.14 39.6
-8 -1 -5 594.04 33.8
1 -9 -5 596.04 39.9
9 -8 -5 578.14 51.69
1 -9 -5 627.74 40.4
9 -8 -5 561.74 41.2
-9 8 -5 522.15 44.9
-8 -1 -5 564.54 35
9 -8 5 666.63 43.3
-8 -1 5 651.03 41.2
9 -8 5 628.74 48.7
-9 8 5 652.63 44.4
1 -9 5 729.23 46.7
-8 -1 5 659.63 42.3
-9 8 5 641.64 47.2
-1 9 5 665.13 40.1
1 -9 5 698.13 50.59
0 -9 -5 13.1 10
0 9 -5 26.4 10.8
-9 9 -5 19.5 18.4
-9 0 -5 18.4 8
-9 9 -5 30.4 15.8
-9 0 -5 29.7 9.7
0 -9 -5 15 11.1
9 -9 -5 21.7 14.7
9 -9 -5 16.6 12.4
9 0 -5 21.3 11.4
0 9 5 7.2 7.4
-9 0 5 3.6 9.8
0 -9 5 16.5 11.2
-9 9 5 20.4 15.1
0 -9 5 23.2 13.2
9 -9 5 15.1 14.7
9 -9 5 17.2 10.5
-9 9 5 15.7 12.3
-9 0 5 13 9.7
-10 1 -5 317.17 27.3
-10 1 -5 319.37 24.4
10 -1 -5 358.96 32.6
-9 10 -5 284.37 39
-1 -9 -5 327.07 27.8
-1 -9 -5 328.77 28.4
9 -10 -5 321.97 35.7
9 -10 -5 292.27 31.8
-9 10 -5 274.07 35.9
1 9 -5 319.77 28.8
-1 -9 5 253.27 29
-9 10 5 222.18 27.7
-9 10 5 241.58 32.4
1 9 5 254.57 19
9 -10 5 229.78 33.1
-1 -9 5 218.78 35.8
-10 1 5 206.18 22.9
10 -1 5 246.38 21.7
-10 1 5 250.37 26.2
9 -10 5 214.48 27.6
10 -2 -5 433.86 37.2
8 -10 -5 387.46 38.7
-2 -8 -5 452.85 32.3
8 -10 -5 441.26 37
-10 2 -5 436.16 32.7
-8 10 -5 380.26 44.1
-8 10 -5 440.16 39.4
-2 -8 -5 478.15 31.4
2 8 -5 473.15 33.1
-10 2 -5 420.56 29.9
-2 -8 5 539.25 37.8
-8 10 5 499.55 37.8
-2 -8 5 547.75 39.1
-10 2 5 450.35 43.8
-10 2 5 439.96 35.9
10 -2 5 493.05 32.6
8 -10 5 512.45 44.4
2 8 5 490.05 28.2
-8 10 5 549.35 42.6
8 -10 5 493.05 38.8
-10 3 -5 62.39 12
7 -10 -5 61.99 15.8
-3 -7 -5 74.59 12.1
-3 -7 -5 57.89 10.9
-10 3 -5 49.2 12.3
-7 10 -5 49.2 26.2
3 7 -5 55.79 12.7
-7 10 -5 71.19 17.6
7 -10 -5 48.2 14.5
-7 10 5 68.49 14.7
-10 3 5 35 12.3
-3 -7 5 26.9 12.8
7 -10 5 56.09 18
-7 10 5 71.99 17.2
-3 -7 5 56.29 13
7 -10 5 54.49 14.3
-10 3 5 53.79 14
-6 10 -5 79.29 17.7
-4 -6 -5 52.19 10.3
6 -10 -5 106.59 19
-10 4 -5 48.6 11.8
10 -4 -5 87.49 18.7
-10 4 -5 45.1 12.9
4 6 -5 55.89 12.4
-6 10 -5 21.1 27.1
6 -10 -5 42.4 14.5
-4 -6 -5 46.2 9.2
-10 4 5 86.99 15
-4 -6 5 89.69 15.2
6 -10 5 78.09 19
-4 -6 5 84.09 15.3
-6 10 5 75.19 18
-6 10 5 50.59 11.8
6 -10 5 89.89 18
-10 4 5 65.39 16.5
10 -4 5 67.89 13.8
5 -10 -5 733.03 65.09
-10 5 -5 723.83 49.7
10 -5 -5 746.13 55.29
5 5 -5 746.43 46.8
10 -5 -5 687.53 46.1
-5 10 -5 736.33 52.69
-10 5 -5 797.32 48.1
-5 -5 -5 882.01 44.3
5 -10 -5 774.02 50.89
-5 -5 -5 754.42 42
-5 10 5 727.43 46.2
5 -10 5 726.93 53.99
-5 -5 5 732.53 46.7
-10 5 5 694.93 47.3
-5 10 5 677.73 57.29
-10 5 5 730.93 47.7
5 -10 5 789.62 50.99
-5 -5 5 783.62 46.8
10 -5 5 692.13 48.3
-6 -4 -5 640.24 34.7
-6 -4 -5 542.95 32.9
6 4 -5 613.94 38.2
4 -10 -5 579.84 42.2
-4 10 -5 575.54 42.2
4 -10 -5 616.64 43.4
-10 6 -5 559.84 40.9
10 -6 -5 582.34 39
10 -6 -5 568.14 48.8
-10 6 -5 493.05 41.9
-10 6 5 602.44 42.3
-10 6 5 543.65 40.6
10 -6 5 568.54 43.5
4 -10 5 630.94 44.1
4 -10 5 695.83 49.8
-6 -4 5 549.74 38.5
-6 -4 5 607.44 40
-4 10 5 527.25 38.4
-3 10 -5 865.91 53.79
-7 -3 -5 839.02 45.6
3 -10 -5 888.21 53.79
7 3 -5 849.41 50.39
-10 7 -5 774.52 53.89
-7 -3 -5 797.62 45.5
3 -10 -5 890.01 54.59
10 -7 -5 848.12 52.19
10 -7 -5 849.81 63.19
-10 7 -5 740.33 54.89
-3 10 5 634.84 43
-10 7 5 652.33 46.3
-10 7 5 755.42 48.9
-7 -3 5 708.03 44.6
3 -10 5 727.03 49.2
-7 -3 5 703.63 44.1
3 -10 5 721.63 51.59
10 -8 -5 292.87 30
2 -10 -5 306.87 30.1
10 -8 -5 337.27 43.7
-8 -2 -5 338.47 22.5
-8 -2 -5 345.47 24
-10 8 -5 315.77 34.5
8 2 -5 339.27 28.7
-10 8 -5 347.97 34
-2 10 -5 359.76 30.6
2 -10 -5 356.76 31.3
-8 -2 5 226.68 23.6
-8 -2 5 256.57 25
2 -10 5 284.87 29.4
10 -8 5 205.68 29.6
-10 8 5 286.17 30.7
2 -10 5 269.57 32
-10 8 5 220.08 27.4
-2 10 5 247.48 23.1
-9 -1 -5 13.1 7.9
-10 9 -5 21.2 16.6
-9 -1 -5 15.6 9
9 1 -5 4.4 11.4
1 -10 -5 -3.7 10
10 -9 -5 4 16.1
1 -10 -5 13.7 12.6
10 -9 -5 -7.2 11.3
-10 9 -5 11.6 14.6
-9 -1 5 10.3 9.6
10 -9 5 21.7 15
-10 9 5 13.2 13
-9 -1 5 10.9 10.9
1 -10 5 7.6 13.4
-10 9 5 7.1 12.7
1 -10 5 27.8 13.9
-1 10 5 6.8 8.1
10 0 -5 399.26 35.5
0 10 -5 415.26 32.6
0 -10 -5 468.45 34.9
-10 0 -5 399.56 27.8
10 -10 -5 400.66 41.1
-10 10 -5 358.06 40.4
-10 10 -5 432.46 43.5
10 -10 -5 407.16 36.7
0 -10 -5 415.66 34
-10 0 -5 382.76 30.5
-10 10 5 401.06 38.3
-10 0 5 379.76 32.4
-10 10 5 321.17 34
0 -10 5 426.36 36.2
0 -10 5 427.46 36.6
-10 0 5 321.47 28.9
10 -10 5 343.37 41.3
0 10 5 361.26 26.2
-10 11 -5 359.96 40.7
11 -1 -5 391.46 36.8
-1 -10 -5 323.77 30.6
-11 1 -5 379.96 31.1
-10 11 -5 387.96 44
1 10 -5 384.56 31.6
-11 1 -5 330.67 27.1
10 -11 -5 324.77 35.9
10 -11 -5 354.16 41.3
-1 -10 -5 398.26 32.3
-11 1 5 351.66 31.9
-11 1 5 261.27 27.8
10 -11 5 318.67 40.2
-1 -10 5 350.06 34.6
-1 -10 5 352.86 34.3
1 10 5 318.97 25.5
-10 11 5 278.67 33.2
-9 11 -5 370.06 44.4
-11 2 -5 388.56 29.6
-2 -9 -5 416.36 31.9
9 -11 -5 342.17 40.1
9 -11 -5 348.27 37.5
2 9 -5 434.16 32.2
-2 -9 -5 424.06 30.7
11 -2 -5 404.86 38.7
-11 2 -5 389.86 33.1
-9 11 -5 377.06 39.5
-9 11 5 401.76 36.6
-2 -9 5 433.76 37
-2 -9 5 448.86 36.3
2 9 5 484.55 30.2
11 -2 5 398.96 29.6
9 -11 5 422.96 42.9
9 -11 5 362.06 43.4
-11 2 5 395.26 35
-11 2 5 352.56 31.5
8 -11 -5 403.76 37.7
-3 -8 -5 442.66 30.6
-11 3 -5 402.16 31
-8 11 -5 413.36 40.5
3 8 -5 403.16 32.3
-11 3 -5 435.56 35
11 -3 -5 414.56 40.2
-3 -8 -5 446.96 31.6
8 -11 -5 369.76 43.5
8 -11 5 356.26 40
-11 3 5 308.67 29.1
-3 -8 5 393.36 32.7
8 -11 5 389.16 38
-3 -8 5 404.06 34.3
11 -3 5 350.46 28.1
-8 11 5 222.48 40.2
-11 3 5 324.37 31.9
7 -11 -5 94.49 18
-11 4 -5 91.09 15.1
-4 -7 -5 116.09 17.1
4 7 -5 86.99 15
7 -11 -5 63.19 18.6
-7 11 -5 110.59 19.5
-11 4 -5 66.89 15.9
-7 11 -5 70.79 30.5
-4 -7 -5 80.09 12.1
-11 4 5 44.2 14.5
11 -4 5 86.89 16.4
-11 4 5 45.3 13.4
7 -11 5 90.19 21.9
-7 11 5 44.5 13.7
-4 -7 5 38.4 14.3
-4 -7 5 87.49 15.8
-6 11 -5 36.2 16.4
11 -5 -5 16 16.9
-6 11 -5 -33.6 25.1
-11 5 -5 25.8 12.3
6 -11 -5 13.2 14.1
-11 5 -5 22.2 13.3
-5 -6 -5 19.5 9.2
-5 -6 -5 18.3 8.4
6 -11 -5 8.5 13.1
5 6 -5 27.9 12.3
-11 5 5 18.9 14.3
-5 -6 5 41.1 13.3
-11 5 5 47.7 14.2
-5 -6 5 31.4 13.8
6 -11 5 21.5 13.3
6 -11 5 48.1 18.3
-6 11 5 28.6 12
11 -5 5 45 13.7
-6 -5 -5 262.47 20.8
5 -11 -5 270.07 30.4
11 -6 -5 241.58 35
-5 11 -5 253.77 30.7
6 5 -5 255.57 24.2
-11 6 -5 208.68 25.6
-6 -5 -5 211.28 18.6
-11 6 -5 220.08 30.1
5 -11 -5 237.88 30.3
11 -6 5 353.76 33.8
-6 -5 5 284.97 28.8
-11 6 5 328.37 31.4
5 -11 5 353.16 40.7
5 -11 5 322.67 34.1
-11 6 5 285.17 31.5
-6 -5 5 334.17 30.5
11 -7 -5 307.57 41.4
4 -11 -5 235.18 30.4
-4 11 -5 206.98 28.1
-11 7 -5 206.28 30.8
7 4 -5 233.48 23.9
4 -11 -5 220.08 28.9
-7 -4 -5 246.98 19.9
-11 7 -5 214.78 27.4
-7 -4 -5 225.88 18.7
-11 7 5 177.48 27.2
-7 -4 5 185.18 23.7
4 -11 5 185.58 33.1
11 -7 5 222.28 34
4 -11 5 205.38 29.1
-11 7 5 205.18 32
-7 -4 5 204.58 25.4
-4 11 5 205.78 23.2
-8 -3 -5 69.99 10.2
11 -8 -5 49.5 27.7
-3 11 -5 29.2 12.7
3 -11 -5 71.89 16
8 3 -5 54.09 13.4
3 -11 -5 69.69 15.7
-8 -3 -5 66.89 10.4
-11 8 -5 39.8 16.4
-11 8 -5 45.9 16.9
11 -8 5 21.4 15
3 -11 5 35.4 15.7
-11 8 5 29.9 26.3
-3 11 5 42.2 11.5
-8 -3 5 28.6 13
3 -11 5 42.5 14.9
-8 -3 5 54.69 13.4
-11 8 5 36.6 15.6
-2 11 -5 15 11
-9 -2 -5 11.2 7.7
2 -11 -5 8.5 12.6
-9 -2 -5 4.3 8.1
11 -9 -5 10.3 15.8
-11 9 -5 -0.1 13.6
-11 9 -5 19.9 14.6
2 -11 -5 10 13
-2 11 5 11.5 9.1
-11 9 5 14.3 15
-11 9 5 -15.7 13.3
11 -9 5 13.3 15.2
2 -11 5 4.8 13.8
-9 -2 5 -4.4 10.1
-9 -2 5 -9.7 11.3
2 -11 5 2.3 12
1 -11 -5 207.68 28.9
-1 11 -5 179.98 29.7
1 -11 -5 185.28 27.9
11 -10 -5 166.48 26.8
-10 -1 -5 212.98 19.3
-11 10 -5 160.88 28.3
-10 -1 -5 215.98 22
-11 10 -5 226.28 34.3
10 1 -5 242.58 33
-11 10 5 181.78 30.4
-11 10 5 198.18 29.1
11 -10 5 193.58 34.4
1 -11 5 230.08 31.1
-10 -1 5 169.98 22.6
-1 11 5 162.98 19.9
-10 -1 5 173.48 25.8
1 -11 5 213.88 30.1
-11 11 -5 216.28 37.3
0 11 -5 248.98 27.7
11 -11 -5 265.47 39
-11 11 -5 263.27 38.8
0 -11 -5 280.87 32.5
-11 0 -5 279.17 26.4
11 0 -5 259.07 31.5
0 -11 -5 298.97 29.7
-11 0 -5 242.48 22.8
0 -11 5 267.37 32.4
-11 0 5 209.08 28.1
-11 11 5 198.68 31.1
0 -11 5 294.37 36.2
11 -11 5 212.48 37.3
0 11 5 225.98 21.1
-11 0 5 163.38 24.2
2 10 -5 87.09 15.9
10 -12 -5 49.9 21.3
-12 2 -5 78.69 13.8
-10 12 -5 73.59 25.3
-2 -10 -5 76.69 14.9
-12 2 -5 87.09 16.7
12 -2 -5 59.09 21.1
-2 -10 -5 75.79 15.2
-10 12 -5 75.19 21.3
10 -12 -5 64.09 17.9
-12 2 5 99.29 19.4
-2 -10 5 124.19 20.2
-12 2 5 74.99 15.2
-2 -10 5 130.89 21.7
10 -12 5 89.19 24.6
-10 12 5 81.19 17.7
-9 12 -5 32.6 40.1
-12 3 -5 177.38 26.3
-3 -9 -5 187.18 22.7
9 -12 -5 144.59 24.4
-3 -9 -5 177.88 22.7
9 -12 -5 141.49 23.5
12 -3 -5 200.68 34
3 9 -5 165.68 24.1
-9 12 -5 189.98 33.6
-12 3 -5 210.68 23.4
-9 12 5 169.68 28.4
-3 -9 5 207.58 39.7
12 -3 5 169.88 27.4
9 -12 5 278.87 40.2
-3 -9 5 220.78 28.8
-12 3 5 202.68 29.1
-12 3 5 204.08 30
-8 12 -5 265.67 37.2
-12 4 -5 345.37 34.5
-4 -8 -5 329.57 26.3
12 -4 -5 374.16 41
8 -12 -5 271.07 35.4
4 8 -5 260.37 37.2
-4 -8 -5 378.66 27.8
8 -12 -5 296.27 38.1
-12 4 -5 284.77 28.1
-12 4 5 321.47 31.4
-4 -8 5 366.46 34.9
8 -12 5 281.27 41.3
-8 12 5 304.37 33.2
8 -12 5 369.76 37.7
-4 -8 5 373.16 33.6
-12 4 5 355.16 34.6
12 -4 5 366.76 30.4
5 7 -5 50.89 14.5
7 -12 -5 88.49 19.2
-5 -7 -5 94.79 16.6
-7 12 -5 79.59 19
7 -12 -5 72.59 19.3
-5 -7 -5 72.89 11.7
-12 5 -5 72.29 17.2
-12 5 -5 86.89 16
-12 5 5 120.69 19.8
-5 -7 5 102.19 17.8
7 -12 5 103.69 39.7
-12 5 5 105.79 18.1
-5 -7 5 126.49 18.7
-7 12 5 82.29 16
12 -5 5 96.09 19.8
7 -12 5 73.79 17.7
6 -12 -5 48.9 18.3
6 -12 -5 40.6 16.1
6 6 -5 32.8 12.1
-12 6 -5 50.59 16.9
12 -6 -5 45.9 22.9
-12 6 -5 46.8 14.1
-6 12 -5 47.4 16.6
-6 -6 -5 56.19 11.3
-6 -6 -5 30.2 9.3
-6 -6 5 46.6 15.1
12 -6 5 33.9 13.7
-6 12 5 32.6 12.7
6 -12 5 37.1 17.4
-12 6 5 27.8 13
-12 6 5 39.6 16.1
-6 -6 5 40 14.2
6 -12 5 26.5 20.1
7 5 -5 39.9 12.2
5 -12 -5 21 15.2
-12 7 -5 28.7 13.8
-7 -5 -5 48.6 10.4
5 -12 -5 27.6 15.1
12 -7 -5 2.6 23.2
-12 7 -5 50.49 18
-5 12 -5 32 15.9
-7 -5 -5 47 9.3
-7 -5 5 10.8 12.8
-7 -5 5 28.2 14.5
-5 12 5 30 12.7
5 -12 5 24.6 15.9
12 -7 5 33.2 14.7
-12 7 5 17.8 15.4
-12 7 5 52.89 22.9
5 -12 5 8.1 16.4
-4 12 -5 3.8 13.1
8 4 -5 -2.4 9.5
-8 -4 -5 -4 9.7
4 -12 -5 -5.5 14.1
-8 -4 -5 1.9 7.7
-12 8 -5 2.8 16.8
4 -12 -5 10.4 15.2
-12 8 -5 -9.2 13.2
-8 -4 5 2.2 12.7
12 -8 5 12.2 14.5
-12 8 5 -8.2 13.2
-4 12 5 -3.4 10.2
4 -12 5 23.8 19.4
-12 8 5 12.4 15.6
-8 -4 5 5.7 11.3
4 -12 5 -1 18.2
-12 9 -5 51.49 18.2
3 -12 -5 75.69 21.5
12 -9 -5 48.4 18.7
-9 -3 -5 60.99 13.2
-3 12 -5 58.09 15.8
9 3 -5 48.2 13.9
3 -12 -5 98.09 20.4
-9 -3 -5 68.39 17.8
-12 9 -5 34.1 18.6
-3 12 5 55.89 13.5
12 -9 5 49.2 17.9
-9 -3 5 58.89 16
-9 -3 5 60.69 14.4
-12 9 5 51.49 17.9
3 -12 5 49.9 17.9
-12 9 5 25.3 16
3 -12 5 69.39 17.8
2 -12 -5 83.29 19.9
12 -10 -5 62.09 21.3
-10 -2 -5 67.79 12.1
10 2 -5 53.09 14.9
-12 10 -5 32.9 18
-12 10 -5 48.3 20
2 -12 -5 62.79 16.8
-10 -2 5 67.79 15.2
-2 12 5 68.39 13.4
-12 10 5 25.7 18.4
2 -12 5 58.79 19.4
2 -12 5 33.3 16.1
12 -10 5 20.5 16
-12 10 5 37.7 15.7
-10 -2 5 45.3 13.3
-13 6 -5 28.5 13.9
6 7 -5 15.1 11.7
13 -6 -5 103.09 29.5
7 6 -5 21.4 11.7
-13 7 -5 2.4 14.9
0 0 -6 7342.67 358.06
0 0 -6 7308.07 358.16
0 0 6 7975 389.76
0 -1 -6 4992.3 237.58
1 0 -6 5184.98 238.48
1 -1 -6 4998.3 238.08
-1 1 -6 4687.23 238.38
0 1 -6 5015.8 238.58
-1 0 -6 4859.61 237.38
-1 1 -6 4208.58 238.28
0 -1 -6 4914.51 237.48
-1 0 -6 4668.73 237.48
0 1 -6 4758.22 238.58
1 -1 -6 4941.11 238.28
1 0 -6 4986.3 238.48
-1 1 6 4371.46 208.08
0 -1 6 4206.38 208.18
0 1 6 4565.54 207.08
-1 0 6 4163.48 207.98
0 -1 6 4472.25 208.58
1 0 6 4175.28 206.98
1 -1 6 3790.52 208.18
1 0 6 3656.63 207.38
0 1 6 4425.56 207.28
-1 0 6 4462.45 208.18
-1 2 -6 2190.18 113.59
1 -2 -6 2187.38 112.09
2 -1 -6 2338.27 112.59
-1 -1 -6 2271.37 110.69
-2 1 -6 2071.39 112.49
-1 2 -6 2188.38 113.69
1 -2 -6 2370.76 111.99
-1 -1 -6 2263.07 110.69
1 1 -6 2300.57 112.79
1 1 -6 2376.26 112.79
-1 -1 6 2479.75 122.59
1 -2 6 2269.27 123.19
-2 1 6 2653.33 122.89
2 -1 6 2271.57 121.89
1 1 6 2116.49 120.49
-1 -1 6 2539.35 122.69
1 1 6 2686.43 120.29
-2 1 6 2611.74 122.49
1 -2 6 2279.87 123.29
-1 2 6 2582.14 122.29
-1 2 6 2558.44 121.59
2 -1 6 2470.75 121.89
2 -2 -6 1408.86 70.29
0 2 -6 1402.86 70.89
-2 2 -6 1219.38 70.79
-2 2 -6 1420.76 71.09
0 -2 -6 1367.06 68.69
2 0 -6 1437.16 70.19
2 -2 -6 1521.35 70.09
-2 0 -6 1248.98 68.59
0 2 -6 1421.96 70.89
0 -2 -6 1522.75 68.89
2 0 -6 1342.27 70.09
-2 0 -6 1227.68 68.69
2 0 6 1657.63 82.29
-2 2 6 1739.43 84.89
0 2 6 1730.13 82.79
2 0 6 1678.93 82.29
-2 0 6 1674.23 84.49
-2 0 6 1662.33 84.59
-2 2 6 1723.43 83.99
0 2 6 1715.43 83.09
0 -2 6 1589.94 85.19
2 -2 6 1570.54 84.69
3 -1 -6 935.71 49.1
-3 1 -6 866.41 47.9
1 2 -6 918.11 49.2
-1 -2 -6 910.51 46.2
-3 1 -6 898.21 48
-2 3 -6 839.72 50.09
-1 -2 -6 1001.4 46.3
-2 3 -6 913.71 50.09
2 -3 -6 948.61 48.5
3 -1 -6 1005.1 48.9
1 2 -6 941.21 49.1
3 -1 6 848.32 50.69
-3 1 6 1018.1 51.69
-2 3 6 1003.5 52.19
-1 -2 6 976.7 52.09
-3 1 6 1085.19 52.29
2 -3 6 971.4 52.79
3 -1 6 1062.69 49.9
-1 -2 6 1018.2 52.09
2 -3 6 905.21 53.89
3 -2 -6 327.07 19.4
-2 -1 -6 293.47 16
1 -3 -6 303.27 18.8
-3 2 -6 301.57 19.7
1 -3 -6 320.77 18.7
2 1 -6 344.47 19.6
2 1 -6 328.47 19.8
-3 2 -6 293.07 19.7
-1 3 -6 338.47 21.5
-1 3 -6 345.27 21.4
-3 2 6 208.48 14.9
1 -3 6 200.48 15.3
3 -2 6 157.48 19.6
3 -2 6 205.58 13.1
-2 -1 6 211.88 14
-1 3 6 208.88 13.6
-1 3 6 203.38 12.5
-3 2 6 187.88 13.6
1 -3 6 172.08 15.3
-2 -1 6 199.08 13.8
3 0 -6 1510.85 73.19
0 -3 -6 1466.75 71.79
-3 0 -6 1438.76 71.09
-3 3 -6 1397.06 74.29
3 -3 -6 1518.35 73.29
-3 3 -6 1295.77 74.89
0 -3 -6 1462.75 71.89
-3 0 -6 1376.36 71.09
0 3 -6 1347.37 73.99
3 0 -6 1427.96 73.49
0 3 -6 1457.55 74.89
3 -3 -6 1392.56 73.59
-3 0 6 1358.36 69.49
0 3 6 1360.86 67.99
0 -3 6 1327.57 70.69
-3 0 6 1410.96 69.69
3 -3 6 1357.56 69.89
3 -3 6 1212.58 71.49
0 -3 6 1190.28 70.39
0 3 6 1400.56 67.59
-3 3 6 1422.46 69.19
-3 3 6 1458.55 70.69
-3 4 -6 1255.07 70.09
-3 4 -6 1252.77 69.19
4 -1 -6 1359.36 67.49
-1 -3 -6 1383.56 66.19
-1 -3 -6 1293.17 65.19
1 3 -6 1262.37 68.29
3 -4 -6 1388.16 67.99
3 -4 -6 1318.77 68.69
-4 1 -6 1294.07 66.49
1 3 -6 1205.98 68.29
4 -1 -6 1282.17 67.99
4 -1 6 1451.85 67.09
-1 -3 6 1289.07 70.19
1 3 6 1261.37 65.99
3 -4 6 1216.98 72.59
-3 4 6 1342.07 68.99
-4 1 6 1439.76 70.19
-4 1 6 1318.67 69.49
3 -4 6 1396.26 71.19
-1 -3 6 1358.16 70.79
-3 4 6 1369.96 70.99
-2 4 -6 1460.15 78.09
-2 4 -6 1390.66 78.39
-4 2 -6 1399.56 76.19
2 -4 -6 1559.54 78.29
2 2 -6 1531.15 76.49
-4 2 -6 1389.16 76.39
4 -2 -6 1466.25 76.79
2 2 -6 1530.45 76.29
4 -2 -6 1570.74 76.09
2 -4 -6 1493.25 75.99
2 -4 6 1542.95 82.19
-4 2 6 1581.64 78.49
-2 -2 6 1518.05 78.39
2 -4 6 1523.65 80.09
4 -2 6 1351.46 78.89
-4 2 6 1616.94 79.39
4 -2 6 1618.34 77.09
-2 4 6 1512.35 78.99
-2 -2 6 1492.65 78.59
1 -4 -6 1264.37 65.19
3 1 -6 1240.78 65.49
-4 3 -6 1298.97 66.89
-1 4 -6 1317.77 67.99
-3 -1 -6 1084.59 61.79
1 -4 -6 1211.68 64.79
-1 4 -6 1285.87 67.49
4 -3 -6 1326.07 65.59
3 1 -6 1313.57 65.39
1 -4 6 1508.05 79.69
-4 3 6 1556.24 78.09
1 -4 6 1482.05 78.39
-4 3 6 1505.55 76.49
-3 -1 6 1492.75 76.69
-1 4 6 1550.14 75.49
-1 4 6 1415.56 76.29
-3 -1 6 1395.46 76.49
4 -3 6 1511.35 76.19
-4 4 -6 2522.25 143.49
4 0 -6 2661.33 141.79
0 -4 -6 2676.33 140.29
-4 0 -6 3177.38 139.59
-4 4 -6 2800.12 144.19
4 0 -6 2854.31 141.39
0 4 -6 2893.61 143.19
4 -4 -6 2705.93 142.89
4 -4 -6 2927.11 142.19
0 4 -6 2960.5 144.09
-4 0 -6 2764.02 139.19
0 -4 -6 2896.61 140.99
-4 0 6 3015.4 153.88
-4 4 6 3155.28 154.08
0 -4 6 2975.1 156.08
4 -4 6 2787.62 156.58
0 4 6 3146.39 152.18
-4 4 6 3151.28 155.88
4 -4 6 3090.69 154.48
-4 0 6 3242.48 154.38
0 4 6 2989.1 154.28
0 -4 6 3228.08 155.68
-5 1 -6 1586.94 76.09
-1 -4 -6 1482.15 75.09
-5 1 -6 1402.66 75.39
5 -1 -6 1555.14 76.99
-1 -4 -6 1521.75 75.19
4 -5 -6 1397.46 79.19
1 4 -6 1518.65 80.59
-4 5 -6 1565.54 81.19
-4 5 -6 1330.97 78.79
1 4 -6 1424.86 78.09
5 -1 -6 1418.56 77.69
4 -5 -6 1566.14 78.09
-4 5 6 1540.85 81.29
-1 -4 6 1598.24 80.69
5 -1 6 1393.76 77.49
-4 5 6 1568.44 78.99
4 -5 6 1498.45 82.99
5 -1 6 1653.73 75.79
-5 1 6 1617.24 79.59
-1 -4 6 1456.55 80.49
4 -5 6 1517.95 80.39
1 4 6 1586.14 75.89
-5 1 6 1509.75 78.99
1 4 6 1351.46 75.69
-2 -3 -6 729.93 35.9
2 3 -6 729.63 40
-3 5 -6 679.33 41.4
3 -5 -6 715.23 41.1
-2 -3 -6 660.03 35.8
-5 2 -6 688.13 38.8
2 3 -6 720.93 40
5 -2 -6 740.63 39.1
-5 2 -6 667.03 39.6
3 -5 -6 711.13 39.9
5 -2 -6 645.34 40
-3 5 -6 698.53 42.7
5 -2 6 571.14 28.5
3 -5 6 533.75 33
3 -5 6 515.95 35
-2 -3 6 516.65 31
-5 2 6 529.75 30.9
-3 5 6 479.35 37.1
-5 2 6 541.95 31.6
5 -2 6 500.05 30.8
-2 -3 6 510.75 31.4
-3 5 6 503.45 29.8
2 -5 -6 816.22 44.8
5 -3 -6 864.51 44.8
-2 5 -6 764.72 46.7
-5 3 -6 785.72 45.3
2 -5 -6 843.42 46.2
3 2 -6 847.42 45
5 -3 -6 785.72 46.1
-2 5 -6 811.22 47.9
3 2 -6 782.92 44.6
5 -3 6 827.12 43.6
5 -3 6 796.22 46.4
-3 -2 6 806.22 45
2 -5 6 821.02 49.3
-3 -2 6 819.22 44.8
2 -5 6 786.02 46.8
-5 3 6 874.11 46.5
-5 3 6 801.62 44.9
-2 5 6 843.42 46
1 -5 -6 545.15 32.4
-5 4 -6 497.25 33.2
-4 -1 -6 585.44 27.6
-1 5 -6 566.14 34.1
5 -4 -6 532.85 34.3
-4 -1 -6 530.35 27.7
1 -5 -6 486.75 31
-1 5 -6 553.84 34.9
5 -4 -6 540.85 32.2
4 1 -6 533.25 31.6
4 1 -6 541.85 32
1 -5 6 668.93 39.3
1 -5 6 638.34 40.5
-5 4 6 645.34 37.3
-5 4 6 666.83 39.2
-4 -1 6 617.54 36.9
-1 5 6 682.23 37.1
-4 -1 6 644.24 37
5 -4 6 644.74 36.7
-1 5 6 666.73 35.7
0 -5 -6 1298.97 67.49
0 5 -6 1421.36 71.79
0 -5 -6 1367.96 67.89
-5 5 -6 1248.18 70.69
0 5 -6 1310.27 70.09
-5 0 -6 1335.87 65.39
-5 0 -6 1230.58 65.69
5 -5 -6 1193.28 70.79
5 0 -6 1285.47 67.99
5 -5 -6 1349.86 69.49
5 0 -6 1210.78 68.49
0 -5 6 1355.16 71.29
-5 5 6 1315.07 69.29
-5 5 6 1343.37 71.89
0 -5 6 1365.26 72.29
0 5 6 1266.47 67.79
5 -5 6 1280.67 72.99
-5 0 6 1264.97 68.99
0 5 6 1322.57 67.09
-5 0 6 1332.97 69.29
5 -5 6 1302.57 69.79
6 -1 -6 284.17 22.8
5 -6 -6 303.97 23.3
-6 1 -6 318.87 19.7
6 -1 -6 289.17 21
5 -6 -6 290.77 26.8
-5 6 -6 287.67 25
1 5 -6 302.87 23.4
-1 -5 -6 300.87 19.5
-6 1 -6 286.97 19.7
-5 6 -6 310.27 26.6
1 5 -6 309.47 24.4
-1 -5 -6 314.67 20
1 5 6 300.97 17.1
-1 -5 6 293.77 23.7
-6 1 6 281.87 21.1
6 -1 6 269.27 18.4
-5 6 6 277.17 20.9
-1 -5 6 262.37 22
5 -6 6 276.57 22.5
-5 6 6 298.87 24.2
5 -6 6 263.07 24.9
-6 1 6 289.87 21.2
6 -1 6 321.77 16.5
1 5 6 258.37 17.1
2 4 -6 221.18 19.8
6 -2 -6 272.57 22
-6 2 -6 254.17 19.3
-6 2 -6 294.67 20.3
-2 -4 -6 280.47 17.5
2 4 -6 295.77 22.5
4 -6 -6 303.27 25.4
4 -6 -6 283.27 21.8
-2 -4 -6 289.77 17.4
-4 6 -6 277.77 25
6 -2 -6 294.07 20.5
-4 6 -6 296.67 23.8
4 -6 6 230.88 23.3
4 -6 6 257.77 21.8
6 -2 6 235.08 18.5
-4 6 6 257.47 21.9
-6 2 6 233.28 19.2
-6 2 6 252.77 19.8
-4 6 6 232.38 18.6
-2 -4 6 245.68 19.9
6 -2 6 267.37 15.7
-2 -4 6 270.27 21
3 -6 -6 789.52 47.9
6 -3 -6 717.23 45.1
-6 3 -6 764.82 43.8
-3 -3 -6 781.22 39
3 -6 -6 842.72 47.4
-3 6 -6 806.12 48.1
6 -3 -6 776.32 46.2
-3 6 -6 725.93 45.9
3 3 -6 759.92 43.7
-6 3 -6 725.23 44.3
-6 3 6 738.23 44.8
-3 6 6 840.62 46.1
-3 -3 6 778.82 44.3
-3 -3 6 782.22 43.9
-6 3 6 752.52 43.9
3 -6 6 725.03 48.7
6 -3 6 770.12 45.1
3 -6 6 783.92 46.6
6 -3 6 824.62 42
-4 -2 -6 462.05 23.5
-4 -2 -6 466.05 23.5
-2 6 -6 500.95 33.4
2 -6 -6 465.45 29.6
-6 4 -6 456.85 30.2
4 2 -6 423.76 28.1
6 -4 -6 407.16 31.2
2 -6 -6 436.06 28.8
-2 6 -6 455.35 31.4
6 -4 -6 460.25 28.9
-6 4 6 355.26 24.1
-6 4 6 338.27 25.4
-2 6 6 356.96 22.6
6 -4 6 352.16 22.6
-4 -2 6 327.17 23.7
-4 -2 6 324.37 24.1
2 -6 6 342.77 25.8
-2 6 6 370.36 24.9
2 -6 6 324.27 28.1
6 -4 6 348.47 26
6 -5 -6 567.14 38.7
5 1 -6 567.24 34.4
-1 6 -6 568.34 36.9
-6 5 -6 538.85 37.4
-1 6 -6 688.23 39.9
1 -6 -6 603.44 35.4
1 -6 -6 589.64 35
-5 -1 -6 564.24 31
6 -5 -6 587.64 36
-5 -1 -6 616.84 33.2
6 -5 6 548.15 32.3
-5 -1 6 466.85 31.5
-6 5 6 519.75 32.6
-1 6 6 546.75 32.2
-6 5 6 533.35 35.1
-5 -1 6 489.85 31.7
1 -6 6 540.35 34.6
-1 6 6 518.15 30.3
6 -5 6 537.45 35.9
1 -6 6 598.24 37.1
0 6 -6 26.8 8.3
-6 0 -6 31.6 5.6
0 6 -6 48.2 11.7
6 -6 -6 26.3 12.5
6 0 -6 26.5 7.2
-6 0 -6 40 6.3
-6 6 -6 26.7 9.7
0 -6 -6 29.5 7
0 -6 -6 29.8 7.3
-6 6 -6 50.49 16.7
6 -6 -6 34.8 9.4
0 6 6 40.1 7.4
-6 6 6 26.3 7.9
6 -6 6 51.79 9.8
-6 0 6 43 9.1
-6 0 6 23.8 7.3
0 -6 6 43.1 9.2
0 -6 6 22.3 8.8
-6 6 6 48.1 11.8
6 -6 6 47.5 12.1
0 6 6 40.5 6.6
-6 7 -6 612.84 40.4
-7 1 -6 552.54 33.7
-1 -6 -6 594.54 34.4
6 -7 -6 577.44 38
1 6 -6 677.23 40.2
-7 1 -6 597.94 33
-6 7 -6 524.75 42.9
-1 -6 -6 582.64 34.1
1 6 -6 515.05 35.8
7 -1 -6 559.14 34.7
6 -7 -6 566.74 42.6
-7 1 6 504.65 32.8
-6 7 6 489.65 33.1
6 -7 6 482.35 34.4
7 -1 6 546.35 27.7
-1 -6 6 582.24 36.6
6 -7 6 475.65 37.6
-7 1 6 522.75 32.9
1 6 6 494.75 29.1
1 6 6 547.35 28.9
-6 7 6 518.45 37.1
7 -1 6 469.25 32.1
-1 -6 6 558.54 35
-2 -5 -6 415.56 25
-7 2 -6 388.16 26.4
7 -2 -6 397.76 26.9
2 5 -6 465.65 30.7
-5 7 -6 405.46 31.6
5 -7 -6 391.36 29.1
7 -2 -6 370.26 29.2
-7 2 -6 447.76 26.7
-2 -5 -6 414.36 25.1
5 -7 -6 371.46 33.5
7 -2 6 391.66 22.4
5 -7 6 432.06 30.1
-7 2 6 387.96 26.8
7 -2 6 383.76 25.4
-5 7 6 358.16 26.4
-2 -5 6 418.46 28.2
5 -7 6 346.57 31.3
-7 2 6 375.66 27.1
-2 -5 6 391.46 28.8
-5 7 6 392.96 30.1
7 -3 -6 636.24 36.3
-3 -4 -6 591.74 32.9
4 -7 -6 626.54 41
-4 7 -6 610.44 40.2
3 4 -6 601.74 37.8
-4 7 -6 648.74 42.9
-3 -4 -6 583.34 32.3
4 -7 -6 567.64 37.7
-7 3 -6 578.64 36.7
7 -3 -6 574.14 39.5
-7 3 -6 630.64 37
4 -7 6 610.84 43.1
7 -3 6 659.03 34.8
-3 -4 6 529.05 43.7
-4 7 6 689.13 41.1
-7 3 6 592.74 37.8
-7 3 6 640.84 38.7
-3 -4 6 593.64 38.3
7 -3 6 600.44 38
4 -7 6 667.33 41.1
-4 7 6 640.94 37.6
3 -7 -6 3107.89 159.28
-4 -3 -6 3010.2 153.28
-7 4 -6 2983.2 159.18
7 -4 -6 3274.57 158.18
-3 7 -6 3353.36 164.18
-7 4 -6 2969.7 159.28
4 3 -6 3033 158.08
7 -4 -6 3000.4 160.88
3 -7 -6 3182.48 159.88
4 3 -6 3058.99 158.08
-4 -3 -6 3305.97 154.08
-3 7 -6 3166.68 161.08
-4 -3 6 3022.4 153.08
-7 4 6 3087.99 154.88
7 -4 6 3134.29 151.58
-4 -3 6 3025.2 153.28
-7 4 6 2952.9 153.28
-3 7 6 2912.31 152.88
-3 7 6 3163.58 155.58
7 -4 6 2834.52 154.98
3 -7 6 3095.59 156.38
3 -7 6 2969.7 158.98
-7 5 -6 3129.59 169.98
5 2 -6 3122.09 167.18
-2 7 -6 3827.92 174.38
-2 7 -6 3299.97 170.68
-5 -2 -6 3335.47 163.48
7 -5 -6 3349.66 168.48
-5 -2 -6 3374.36 163.28
2 -7 -6 3298.87 168.98
2 -7 -6 3333.97 168.68
7 -5 -6 3217.48 171.28
5 2 -6 3281.87 168.28
-5 -2 6 2941.91 157.08
-7 5 6 3168.58 159.98
-2 7 6 3175.18 158.78
7 -5 6 3091.19 156.58
-7 5 6 3031.8 157.68
-5 -2 6 3076.99 157.08
2 -7 6 3195.08 160.58
2 -7 6 3270.87 162.98
-2 7 6 3029.6 156.38
6 1 -6 2021.2 106.89
6 1 -6 2005.9 108.09
7 -6 -6 2064.69 109.59
-6 -1 -6 1981.2 103.99
7 -6 -6 1914.41 114.69
1 -7 -6 2150.68 108.39
-7 6 -6 1976.2 110.79
-6 -1 -6 2320.57 103.79
1 -7 -6 2140.39 108.09
-1 7 -6 2153.38 109.99
-6 -1 6 2027.4 105.79
-6 -1 6 1935.21 105.29
7 -6 6 2002.4 105.79
1 -7 6 2208.88 108.99
-7 6 6 1967.7 106.19
-1 7 6 2075.39 105.99
1 -7 6 2152.78 110.39
7 -6 6 1990.9 110.39
-1 7 6 1991 103.99
-7 7 -6 58.99 19.1
-7 7 -6 77.09 15.6
7 0 -6 89.49 13.9
0 7 -6 117.49 20.6
7 0 -6 64.79 12.4
0 7 -6 79.49 12.7
0 -7 -6 70.59 10.8
-7 0 -6 75.49 11.6
7 -7 -6 54.89 12.1
-7 0 -6 68.69 12.3
0 -7 -6 97.79 14.5
7 -7 -6 79.79 18.8
7 -7 6 78.19 15.5
-7 0 6 68.79 13.4
0 7 6 45.5 8.9
0 -7 6 47.4 11.2
-7 0 6 39 9.7
-7 7 6 41.1 9.7
0 -7 6 35.1 11.2
7 -7 6 66.09 11.4
-7 7 6 42.7 12.6
0 7 6 68.09 11
-1 -7 -6 382.56 26.5
-8 1 -6 385.86 24.4
7 -8 -6 335.97 30.2
-8 1 -6 355.06 25.5
7 -8 -6 393.66 37.9
1 7 -6 477.95 38.3
-1 -7 -6 364.76 26.5
-7 8 -6 388.66 33.5
8 -1 -6 324.67 26
-8 1 6 271.87 23.9
-8 1 6 287.37 23.5
-7 8 6 257.57 28.4
-1 -7 6 314.37 28.1
-1 -7 6 325.27 26.4
8 -1 6 273.57 19.2
7 -8 6 276.57 25.9
1 7 6 328.77 19.2
7 -8 6 279.97 30.2
-7 8 6 291.17 25.2
1 7 6 263.87 19.3
-2 -6 -6 895.01 48.4
6 -8 -6 778.92 52.39
-6 8 -6 925.81 55.79
-8 2 -6 827.62 49.7
8 -2 -6 879.31 49.9
2 6 -6 1018.4 54.69
-8 2 -6 887.31 48.7
8 -2 -6 849.91 53.09
2 6 -6 828.02 51.49
6 -8 -6 882.51 58.19
-2 -6 6 917.81 52.29
-8 2 6 836.42 49.6
-6 8 6 815.92 49.8
-8 2 6 785.72 49.3
6 -8 6 863.21 52.19
-6 8 6 942.91 54.69
6 -8 6 791.62 54.99
-2 -6 6 902.31 50.99
8 -2 6 792.42 47.7
8 -2 6 877.61 46.6
3 5 -6 36.5 10.6
3 5 -6 18.1 10.2
-3 -5 -6 39.4 7.4
-5 8 -6 38.8 11.8
5 -8 -6 56.69 12.3
8 -3 -6 21.2 11.9
-8 3 -6 53.39 10.5
-3 -5 -6 36.8 7
-8 3 -6 35.6 9.9
5 -8 -6 22.4 10.7
8 -3 -6 35.9 9.2
-3 -5 6 52.39 11.1
5 -8 6 50.59 12.2
-3 -5 6 27.8 9.8
5 -8 6 48.8 14.6
-8 3 6 46 11.2
8 -3 6 55.19 9.7
8 -3 6 44.9 9.5
-5 8 6 30.3 9.2
-8 3 6 39.3 10.1
-5 8 6 39.5 12.6
4 -8 -6 1262.57 71.49
-4 8 -6 1401.86 77.39
8 -4 -6 1269.07 73.59
4 4 -6 1333.67 70.99
4 -8 -6 1236.58 71.89
-8 4 -6 1235.48 70.89
-4 -4 -6 1235.38 65.49
-8 4 -6 1305.67 70.69
4 4 -6 1218.98 69.79
-4 -4 -6 1302.67 64.69
-4 8 -6 1268.87 72.89
8 -4 -6 1257.37 69.19
-4 8 6 1292.27 70.79
4 -8 6 1260.37 70.89
-8 4 6 1236.08 67.49
8 -4 6 1142.79 68.39
4 -8 6 1219.08 73.39
-4 -4 6 1239.48 67.79
-4 -4 6 1130.69 66.69
-8 4 6 1207.78 68.39
8 -4 6 1252.27 64.59
-5 -3 -6 3981.6 199.38
8 -5 -6 3898.01 208.28
5 3 -6 3950.1 203.98
8 -5 -6 4060.49 204.58
3 -8 -6 3967.4 206.08
3 -8 -6 4010.5 205.78
-8 5 -6 3842.22 206.08
5 3 -6 4155.68 204.68
-5 -3 -6 4331.67 200.28
-8 5 -6 3853.41 206.28
-3 8 -6 4516.75 211.88
-3 8 -6 4117.29 207.78
-3 8 6 3945.91 199.58
8 -5 6 3853.21 203.18
-5 -3 6 3953 200.18
8 -5 6 3878.31 198.38
-3 8 6 4177.08 202.88
3 -8 6 3972 203.48
-8 5 6 3816.82 200.58
-8 5 6 4087.29 202.48
3 -8 6 4035.5 206.48
-5 -3 6 3975.2 199.88
2 -8 -6 2287.17 117.69
8 -6 -6 2313.77 122.29
-6 -2 -6 2206.38 111.89
-8 6 -6 2217.88 119.89
6 2 -6 2149.78 117.49
-2 8 -6 2374.26 119.49
-6 -2 -6 2307.57 111.59
8 -6 -6 2274.77 117.59
6 2 -6 2163.18 116.39
2 -8 -6 2319.17 117.99
-8 6 -6 2038.4 119.49
-2 8 6 2244.18 125.19
2 -8 6 2445.26 124.09
-2 8 6 2217.08 116.69
-6 -2 6 2261.27 117.59
8 -6 6 2202.68 117.29
2 -8 6 2364.26 121.69
-8 6 6 2222.08 118.69
-6 -2 6 2191.68 117.79
-8 6 6 2359.76 121.69
1 -8 -6 212.88 21.6
8 -7 -6 216.08 23.8
8 -7 -6 217.98 32.7
-7 -1 -6 229.38 16.3
1 -8 -6 234.68 22
-7 -1 -6 217.58 17
-8 7 -6 228.78 29.4
7 1 -6 201.08 19.7
7 1 -6 213.48 22.1
-1 8 -6 259.07 28.5
-1 8 -6 260.07 24.1
-8 7 -6 223.18 26.6
-7 -1 6 213.08 20.6
-8 7 6 211.68 22.4
-1 8 6 225.08 18.6
1 -8 6 241.28 24.7
1 -8 6 242.58 26.8
8 -7 6 214.48 21.9
-7 -1 6 201.88 21
-8 7 6 199.48 25.4
8 -7 6 233.98 26.7
0 -8 -6 249.28 22.8
0 -8 -6 269.67 23.4
-8 0 -6 248.48 20.2
8 -8 -6 303.67 36.8
0 8 -6 308.47 30.3
8 -8 -6 238.08 26.2
0 8 -6 291.57 24
-8 8 -6 277.67 29.8
-8 0 -6 241.88 18.7
8 0 -6 244.28 24.5
8 0 -6 244.78 21.5
-8 0 6 240.28 23.2
0 8 6 252.77 19
8 -8 6 218.08 23.2
8 -8 6 217.98 27.7
-8 8 6 219.78 23.9
-8 8 6 236.28 27.7
0 8 6 216.18 20.1
-8 0 6 187.58 21.1
0 -8 6 287.67 27.7
0 -8 6 245.98 25.2
-1 -8 -6 463.45 32.2
-1 -8 -6 456.95 32.3
8 -9 -6 425.66 36.1
-9 1 -6 465.35 31.3
-9 1 -6 483.15 29.5
1 8 -6 488.25 34.5
-8 9 -6 435.26 39.2
9 -1 -6 454.75 35.8
-8 9 6 392.26 33
1 8 6 457.05 26.4
8 -9 6 453.45 39.5
8 -9 6 424.66 37.3
-8 9 6 439.46 39
-1 -8 6 455.85 35.9
-9 1 6 412.46 32.4
9 -1 6 400.46 25.6
-1 -8 6 505.95 35.3
-9 1 6 440.76 34.9
9 -2 -6 710.13 46.3
-9 2 -6 814.12 45.7
-2 -7 -6 857.01 46.3
7 -9 -6 760.42 52.89
-9 2 -6 773.42 47.4
-2 -7 -6 821.82 46.7
7 -9 -6 666.53 49.99
-7 9 -6 828.62 54.09
2 7 -6 814.02 49.3
2 7 -6 983.4 53.69
-9 2 6 753.22 46.1
7 -9 6 772.52 49.6
-7 9 6 762.22 47.4
-2 -7 6 719.33 60.69
-9 2 6 750.72 46.7
-7 9 6 818.62 52.99
9 -2 6 717.13 43.5
7 -9 6 743.33 53.19
-9 3 -6 434.86 29
-3 -6 -6 415.96 27.1
6 -9 -6 401.66 34.4
3 6 -6 468.15 33.2
6 -9 -6 390.16 33.1
-3 -6 -6 408.06 26.9
9 -3 -6 410.86 34.9
-6 9 -6 450.45 35.9
3 6 -6 371.96 30.3
-9 3 -6 382.56 30.2
9 -3 -6 402.06 29.3
-6 9 6 382.26 31.7
-6 9 6 430.76 37.9
-3 -6 6 476.15 34.6
-9 3 6 440.66 32.4
9 -3 6 420.46 30.6
6 -9 6 473.65 39.7
-9 3 6 460.75 32.9
-3 -6 6 445.56 33
6 -9 6 479.35 36
5 -9 -6 115.49 20.8
5 -9 -6 109.59 17.6
9 -4 -6 106.29 18.2
-5 9 -6 168.08 24.2
9 -4 -6 118.59 18.5
4 5 -6 138.79 20.3
-4 -5 -6 131.19 13.8
-9 4 -6 140.79 19
-4 -5 -6 128.59 12.6
4 5 -6 102.69 18.6
5 -9 6 134.49 23.2
-5 9 6 74.79 13.2
-5 9 6 95.29 17.7
-4 -5 6 90.69 14.9
5 -9 6 77.49 18.2
-9 4 6 74.29 13.3
9 -4 6 105.39 17.5
-4 -5 6 74.49 13.1
-9 4 6 103.89 15.6
-4 9 -6 1593.94 88.39
-4 9 -6 1437.06 83.09
5 4 -6 1449.95 80.19
-9 5 -6 1425.16 80.89
-9 5 -6 1446.66 82.09
9 -5 -6 1371.56 84.69
9 -5 -6 1441.76 79.39
4 -9 -6 1421.66 82.19
-5 -4 -6 1597.74 75.29
4 -9 -6 1484.45 81.99
-5 -4 -6 1399.56 73.79
5 4 -6 1436.36 79.59
4 -9 6 1467.05 83.09
9 -5 6 1467.35 76.79
9 -5 6 1366.56 81.59
-5 -4 6 1430.46 78.99
-5 -4 6 1464.45 79.79
-9 5 6 1433.76 80.19
-9 5 6 1474.85 81.49
4 -9 6 1394.56 86.29
-4 9 6 1535.25 83.39
6 3 -6 1627.64 90.09
-3 9 -6 1754.42 94.49
-9 6 -6 1604.14 93.49
-6 -3 -6 1628.84 85.29
3 -9 -6 1660.13 94.39
3 -9 -6 1762.72 93.19
-9 6 -6 1671.13 94.39
6 3 -6 1687.63 90.79
9 -6 -6 1691.23 91.69
-6 -3 -6 1823.92 86.09
9 -6 -6 1702.23 97.89
-3 9 6 1680.83 92.09
-9 6 6 1855.51 96.69
-6 -3 6 1803.82 93.09
9 -6 6 1649.93 97.09
9 -6 6 1767.42 91.89
-6 -3 6 1447.06 101.39
3 -9 6 1758.82 99.79
-9 6 6 1753.62 94.19
-3 9 6 1852.51 96.49
3 -9 6 1808.12 97.39
-2 9 -6 479.45 35
-7 -2 -6 454.45 27.3
2 -9 -6 469.05 34.1
-9 7 -6 457.55 37.8
9 -7 -6 421.56 34.3
-9 7 -6 443.06 37.1
2 -9 -6 473.85 34.6
7 2 -6 431.16 33
-2 9 -6 591.34 42
-7 -2 -6 441.06 26.4
9 -7 -6 439.66 43.7
-2 9 6 418.76 29.5
-9 7 6 479.55 36.6
2 -9 6 446.86 35.8
-7 -2 6 418.76 30.9
9 -7 6 423.96 31
-9 7 6 401.76 33.1
-7 -2 6 448.66 32.1
9 -7 6 438.26 36.8
2 -9 6 481.15 38.6
1 -9 -6 190.68 21.5
-8 -1 -6 170.88 15.3
9 -8 -6 156.98 23.5
8 1 -6 142.49 21.2
-9 8 -6 161.78 28.1
1 -9 -6 157.48 21.3
-9 8 -6 107.59 19
-8 -1 -6 171.18 16.4
9 -8 -6 214.08 35.4
-1 9 -6 173.08 22.1
-1 9 -6 260.17 30.2
-9 8 6 166.28 23.3
-8 -1 6 178.58 21.9
9 -8 6 172.68 27.1
-1 9 6 196.08 18.4
1 -9 6 202.38 27.7
-8 -1 6 182.88 20.6
9 -8 6 168.28 21.2
1 -9 6 199.18 25
-9 8 6 184.88 26.6
-9 0 -6 228.18 21
-9 9 -6 218.58 30.1
9 0 -6 253.27 26.7
9 -9 -6 262.57 28.5
0 -9 -6 265.07 24.7
0 -9 -6 225.78 24.5
-9 0 -6 233.28 19.3
-9 9 6 258.97 30
9 -9 6 209.78 31.4
0 9 6 289.37 20.6
0 -9 6 292.67 30.2
-9 0 6 219.68 23.5
9 -9 6 262.97 27.1
-9 9 6 237.38 27.1
-9 0 6 244.28 25.2
0 -9 6 299.37 28.8
-1 -9 -6 40.1 11
-9 10 -6 20.9 24.4
-10 1 -6 32 9.4
9 -10 -6 48.7 16.1
-10 1 -6 35.6 11
9 -10 -6 29.9 17.1
-9 10 -6 55.89 19
10 -1 -6 25.2 13
-1 -9 -6 34.8 11.1
1 9 -6 20.7 11.4
-9 10 6 12.3 15.1
-9 10 6 6.4 11.5
9 -10 6 26.1 14.9
9 -10 6 8.8 12.9
-1 -9 6 8.8 12.4
-10 1 6 -2.2 11.4
-1 -9 6 14.7 11.5
1 9 6 18.1 6.7
-10 1 6 -2.5 9.4
8 -10 -6 117.59 21.8
-2 -8 -6 137.79 18.6
-2 -8 -6 140.69 17.9
-10 2 -6 119.29 19.7
2 8 -6 146.79 21.1
-8 10 -6 110.89 29.5
10 -2 -6 112.59 19.1
-8 10 -6 138.69 22.6
8 -10 -6 132.69 19.9
-2 -8 6 115.89 18.6
-8 10 6 84.19 15.3
-2 -8 6 98.69 16.8
10 -2 6 68.99 10.5
-8 10 6 118.59 21.3
-10 2 6 79.89 14
-10 2 6 68.79 14.3
8 -10 6 76.09 16.7
8 -10 6 85.59 19.8
-10 3 -6 197.88 20.6
7 -10 -6 189.08 25.9
7 -10 -6 166.88 26.8
-10 3 -6 221.28 23.1
3 7 -6 179.28 22.2
-7 10 -6 115.49 29.8
-3 -7 -6 195.18 18.6
-3 -7 -6 199.38 19.4
-7 10 -6 185.78 28.8
-3 -7 6 164.18 22.5
10 -3 6 158.78 18.7
7 -10 6 206.28 31.2
-3 -7 6 147.99 24.8
-7 10 6 141.89 22.1
7 -10 6 162.78 25.9
-7 10 6 166.68 26.8
-10 3 6 156.28 23.1
-10 3 6 150.58 21.6
4 6 -6 241.78 23.9
6 -10 -6 200.28 26.8
10 -4 -6 189.08 28.5
-10 4 -6 231.08 22.9
6 -10 -6 228.68 28.4
-6 10 -6 244.38 30
-10 4 -6 194.48 24.5
-4 -6 -6 209.38 18
-4 -6 -6 251.27 19.6
-4 -6 6 266.17 26
-10 4 6 238.18 26.1
-6 10 6 235.08 29.6
10 -4 6 257.07 24.3
6 -10 6 248.18 32.7
6 -10 6 274.37 29.5
-6 10 6 213.18 24.3
-10 4 6 201.58 32.1
-4 -6 6 223.18 26.7
-5 10 -6 7.1 12.5
-10 5 -6 -3.6 10.4
5 -10 -6 -5.9 10.6
10 -5 -6 -6.8 13.7
5 5 -6 17.5 11.1
-10 5 -6 4.2 11.6
-5 -5 -6 1.4 6.5
-5 -5 -6 13.1 6.3
10 -5 -6 -12.3 8.5
5 -10 -6 3 10.8
-5 10 -6 5.5 23.2
-5 10 6 15.8 8.9
-10 5 6 2.4 11.8
5 -10 6 10.3 12
-5 -5 6 1.5 9.8
-10 5 6 17.4 12.8
10 -5 6 0.7 9.5
-5 -5 6 13 11.1
5 -10 6 2 13.4
10 -6 -6 177.48 26.9
-6 -4 -6 166.98 15
4 -10 -6 133.09 23.8
-6 -4 -6 146.49 13.2
-4 10 -6 142.29 24.8
-10 6 -6 116.39 19
4 -10 -6 147.69 23.7
10 -6 -6 144.89 20.9
-6 -4 6 182.98 22.2
-6 -4 6 205.08 24
10 -6 6 189.18 25.2
-10 6 6 182.08 25
4 -10 6 230.08 31.7
-4 10 6 190.88 23.5
-10 6 6 194.48 25.1
4 -10 6 173.88 33.9
-10 7 -6 12.6 13.9
10 -7 -6 2.1 10.4
3 -10 -6 12 11.9
-10 7 -6 1.9 13.7
7 3 -6 6.7 10.3
-3 10 -6 15.5 11
-7 -3 -6 17 6.7
3 -10 -6 16 12.3
-7 -3 -6 5.8 6.7
-3 10 -6 10 13
-7 -3 6 23 10.9
-3 10 6 12.9 9.3
-7 -3 6 17.4 11.9
3 -10 6 33.7 15.5
3 -10 6 18.1 11.9
-10 7 6 25.9 14.4
-10 7 6 15.8 13
-8 -2 -6 280.27 19
10 -8 -6 217.48 27.3
-8 -2 -6 262.77 19.9
2 -10 -6 283.07 28.2
-10 8 -6 250.97 31.6
-2 10 -6 230.48 27.3
8 2 -6 268.67 26.4
2 -10 -6 279.87 27.5
-10 8 -6 278.37 32.7
10 -8 -6 240.78 41.4
2 -10 6 331.77 31.4
-2 10 6 256.57 23.2
10 -8 6 301.27 32.8
-8 -2 6 259.57 24.8
-10 8 6 230.18 28
2 -10 6 281.27 32.1
-10 8 6 265.07 30.7
-8 -2 6 249.88 26
-9 -1 -6 435.36 26.9
-10 9 -6 392.76 39.3
10 -9 -6 370.76 38.3
-1 10 -6 440.26 33.1
1 -10 -6 442.66 34.3
-9 -1 -6 389.56 28.1
1 -10 -6 464.85 35
-10 9 -6 430.26 39.7
9 1 -6 398.76 34.2
1 -10 6 521.15 39
-9 -1 6 410.26 32.1
-1 10 6 442.86 30.1
-10 9 6 466.15 39.5
1 -10 6 494.05 39.7
-10 9 6 394.26 36.1
-9 -1 6 386.46 33.8
10 -9 6 433.96 41.5
10 -10 -6 33.6 17.6
10 0 -6 16.1 13.6
10 -10 -6 54.19 21.1
0 10 -6 36.3 17.2
-10 10 -6 35.8 19.4
-10 0 -6 42.6 9.7
-10 10 -6 13.4 19.1
0 -10 -6 34.5 12.5
0 -10 -6 23.8 12.8
-10 0 -6 37.9 10.8
-10 10 6 24.6 15.5
-10 0 6 23.4 13.6
0 10 6 14.6 8
0 -10 6 43.2 15.8
-10 10 6 8.9 13
10 -10 6 8.1 13.9
-10 0 6 24.7 10.9
0 -10 6 32.4 13.7
-11 1 -6 72.19 12.1
10 -11 -6 78.79 21.2
-11 1 -6 84.29 17.1
10 -11 -6 77.49 19.5
-10 11 -6 72.49 23.3
-1 -10 -6 83.49 15.8
1 10 -6 80.49 15.3
-1 -10 -6 86.19 23.7
-10 11 -6 80.99 21.7
11 -1 -6 59.89 16.6
-10 11 6 72.09 18.5
-1 -10 6 70.79 16.3
-11 1 6 59.99 15.5
10 -11 6 23.3 17.4
-1 -10 6 77.69 17.5
-11 1 6 67.79 14.1
9 -11 -6 30.3 15.6
-2 -9 -6 46.2 11.7
-9 11 -6 39.2 17.6
-9 11 -6 57.59 28.1
2 9 -6 40.5 12.6
11 -2 -6 53.89 16.9
-2 -9 -6 57.09 12.4
-11 2 -6 29.6 12.4
9 -11 -6 37.4 19.7
-11 2 -6 53.19 11.7
9 -11 6 30.8 18
-11 2 6 33.5 14.5
-2 -9 6 50.79 15.6
-2 -9 6 60.79 17
11 -2 6 34.6 8.1
-11 2 6 33.5 12
-9 11 6 39.2 15.5
-3 -8 -6 10 8.5
-11 3 -6 24.7 12.4
8 -11 -6 7.1 12.3
-8 11 -6 -2.6 13.9
-8 11 -6 -9.1 29.9
-11 3 -6 5.2 9.8
-3 -8 -6 9.7 9.3
8 -11 -6 9.5 16
3 8 -6 9.5 10.9
-11 3 6 11.8 11
-3 -8 6 13.2 12.5
8 -11 6 6.8 12.5
11 -3 6 15.6 8.4
8 -11 6 -2.3 14.7
-11 3 6 14.2 12.9
-8 11 6 -1.3 12.4
-3 -8 6 19.2 13.8
-11 4 -6 171.78 22.1
-7 11 -6 194.98 31.5
11 -4 -6 299.07 32
7 -11 -6 190.48 28.7
-4 -7 -6 208.48 19.6
-7 11 -6 127.09 32.7
7 -11 -6 208.18 30.1
-11 4 -6 196.58 26.3
4 7 -6 203.08 24.7
-4 -7 -6 188.48 18.7
-11 4 6 169.38 25
-4 -7 6 170.38 27.3
11 -4 6 198.98 22.9
-11 4 6 186.88 26.3
-7 11 6 204.68 25.5
7 -11 6 192.18 29.1
7 -11 6 224.48 34.5
-4 -7 6 213.68 25.8
11 -5 -6 137.39 25.4
6 -11 -6 115.29 18.8
-5 -6 -6 118.49 15.5
-5 -6 -6 153.28 15
-6 11 -6 32.4 28.1
-11 5 -6 133.99 20.8
5 6 -6 132.69 22.1
6 -11 -6 106.99 19.5
-11 5 -6 141.99 21
-6 11 -6 157.98 23.1
-5 -6 6 121.79 18.6
-11 5 6 125.59 19.3
6 -11 6 121.79 20.6
11 -5 6 95.89 16.8
-5 -6 6 140.99 23
-11 5 6 98.19 16.7
6 -11 6 143.79 24.2
-6 11 6 126.59 21.1
5 -11 -6 126.59 20.5
11 -6 -6 182.98 29
-6 -5 -6 132.99 13.8
5 -11 -6 94.79 19.8
-5 11 -6 155.98 26.5
-11 6 -6 107.99 20
-6 -5 -6 146.09 15.9
-11 6 -6 124.09 22.4
11 -6 6 131.39 22.9
-11 6 6 77.69 15.9
-6 -5 6 88.99 15.7
-6 -5 6 86.39 16.3
5 -11 6 123.59 25
-11 6 6 123.89 19.5
5 -11 6 150.18 21.6
-7 -4 -6 62.49 9.5
4 -11 -6 46 15
-11 7 -6 44.6 15.4
-4 11 -6 31.8 14.3
-7 -4 -6 43.1 8.2
11 -7 -6 36.1 23.5
-11 7 -6 70.59 18.8
4 -11 -6 54.49 14.9
7 4 -6 53.19 13.5
-7 -4 6 6.9 10.6
-11 7 6 30.4 15.2
-4 11 6 11.5 9.6
4 -11 6 12 14.5
4 -11 6 11.4 14.1
-11 7 6 15 13.9
-7 -4 6 27.5 13.4
11 -7 6 0.5 12
-8 -3 -6 181.68 17.1
8 3 -6 180.58 23.4
3 -11 -6 188.68 27.8
3 -11 -6 170.98 25.6
-11 8 -6 194.48 31.6
-8 -3 -6 157.48 16.1
11 -8 -6 184.88 31.7
-11 8 -6 185.68 27.3
-3 11 -6 175.58 26.2
-3 11 6 135.69 20.2
-11 8 6 137.39 21.4
-8 -3 6 151.58 22.4
-11 8 6 116.99 23.3
3 -11 6 155.38 23.4
-8 -3 6 164.28 24.1
3 -11 6 123.79 21.4
-2 11 -6 139.39 23.5
-11 9 -6 123.89 22.5
2 -11 -6 174.98 26.9
9 2 -6 158.38 23.4
-11 9 -6 184.28 27.4
-9 -2 -6 183.98 17.6
2 -11 -6 181.28 26.2
-9 -2 -6 168.88 16.4
-9 -2 6 175.08 24.8
-11 9 6 137.79 22.7
2 -11 6 134.79 21.3
-11 9 6 180.38 27.6
11 -9 6 117.09 22.1
2 -11 6 182.18 27.7
-9 -2 6 153.58 22.3
-2 11 6 168.28 20.4
11 -10 -6 96.29 21.6
10 1 -6 158.68 24.6
-11 10 -6 151.98 25.9
-10 -1 -6 123.69 15.8
1 -11 -6 120.59 22.3
-11 10 -6 68.29 21
-10 -1 -6 138.39 17.9
1 -11 -6 163.58 25
-11 10 6 107.09 20.9
1 -11 6 139.59 22.9
11 -10 6 82.99 20.4
-10 -1 6 122.29 21.4
-1 11 6 108.59 17.3
1 -11 6 134.39 21.7
-10 -1 6 97.09 17.6
-11 10 6 168.98 29.1
11 0 -6 -1.7 12.9
-11 0 -6 10.7 9.2
0 -11 -6 1 12.3
-11 11 -6 -10.8 17.2
11 -11 -6 24.4 18.9
0 -11 -6 10.6 12.8
0 11 -6 6.3 11.8
-11 11 -6 -7.6 19
-11 0 -6 0.5 10
11 -11 6 39.8 20.7
-11 11 6 25.1 16.5
0 -11 6 18.9 14.5
-11 0 6 9.3 11.3
0 -11 6 15.9 17.3
0 11 6 18.6 8.8
-11 0 6 28.4 14.4
12 -2 -6 628.84 49.2
-10 12 -6 457.45 51.99
-3 -9 -6 343.47 26.8
9 -12 -6 287.77 35.8
-12 3 -6 268.47 30.1
3 9 -6 256.17 28.4
12 -3 -6 311.07 39.3
-9 12 -6 231.58 37
9 -12 -6 241.88 37
-12 3 -6 259.47 26.6
-3 -9 -6 262.47 25.5
-9 12 6 277.67 30.7
-12 3 6 225.68 26.4
12 -3 6 190.18 20.4
-3 -9 6 237.18 30.3
9 -12 6 282.57 40.7
-12 3 6 210.68 30.1
-3 -9 6 204.48 38.6
-4 -8 -6 11.6 9.8
-12 4 -6 8.7 10.9
-4 -8 -6 5.3 8.6
8 -12 -6 -9.9 12.8
8 -12 -6 9.8 16.7
12 -4 -6 22.4 20
-8 12 -6 14.8 18.7
4 8 -6 1.2 11.9
-4 -8 6 14.4 13.7
-8 12 6 4.4 11.3
-4 -8 6 16.6 14.7
8 -12 6 29.1 19.1
12 -4 6 -2.6 9.3
-12 4 6 -3.5 12.4
8 -12 6 -1.4 13.3
-12 4 6 1.5 10.8
-5 -7 -6 186.88 19
7 -12 -6 152.78 25.4
-7 12 -6 206.58 32.9
-5 -7 -6 176.28 18.6
-12 5 -6 188.98 24.7
5 7 -6 235.68 28.2
-12 5 -6 190.38 29.9
7 -12 -6 210.38 31.3
12 -5 -6 216.38 35.8
-5 -7 6 207.18 28.5
12 -5 6 190.18 24.3
-12 5 6 151.78 25.7
7 -12 6 177.58 31.8
-12 5 6 174.28 27.6
-7 12 6 143.49 24.4
-5 -7 6 161.08 25.9
7 -12 6 170.08 29.3
-6 -6 -6 297.17 20.7
6 6 -6 196.48 28.2
-6 12 -6 293.97 35.1
12 -6 -6 275.77 42
-12 6 -6 254.67 33.8
-12 6 -6 285.07 28.5
6 -12 -6 265.67 34.4
6 -12 -6 278.77 33
-6 -6 6 351.06 33.3
-12 6 6 317.07 33.1
-12 6 6 286.97 33.4
6 -12 6 305.77 43
-6 -6 6 300.37 31.7
6 -12 6 334.37 35.7
12 -6 6 278.07 31.9
-6 12 6 302.27 29.6
5 -12 -6 204.28 32.4
-7 -5 -6 235.78 19.5
-12 7 -6 204.38 32.9
5 -12 -6 240.68 32.4
7 5 -6 211.18 23.9
12 -7 -6 258.87 43.1
-5 12 -6 146.99 34.9
-12 7 -6 179.98 29
-7 -5 -6 233.08 17.8
-12 7 6 178.18 28.5
-7 -5 6 187.18 27.1
-12 7 6 191.98 30.2
-7 -5 6 192.98 28.4
5 -12 6 215.88 30.9
12 -7 6 259.77 31.4
-5 12 6 225.78 25.7
5 -12 6 246.58 37.9
-8 -4 -6 192.28 16.7
-12 8 -6 156.18 26.3
12 -8 -6 194.28 38.2
4 -12 -6 192.08 30.3
4 -12 -6 122.59 28.6
-12 8 -6 188.08 33.4
8 4 -6 187.78 23.7
-8 -4 -6 202.88 17.8
-4 12 -6 204.68 29
-12 8 6 177.18 29.8
-4 12 6 137.89 22.5
12 -8 6 172.38 30.4
-12 8 6 118.99 21.7
-8 -4 6 162.58 25.5
4 -12 6 186.28 28.5
4 -12 6 217.18 31.1
-8 -4 6 209.88 29.4
-12 9 -6 133.09 23.9
-3 12 -6 124.29 19.8
3 -12 -6 157.28 27.9
-9 -3 -6 192.48 18.2
9 3 -6 156.68 23.5
3 -12 -6 124.99 26.6
-9 -3 -6 156.38 17
-12 9 -6 222.38 34.9
12 -9 6 177.08 31.7
-12 9 6 165.68 28.8
-9 -3 6 146.29 26
3 -12 6 183.78 30.5
3 -12 6 226.68 34.4
-3 12 6 178.88 23.1
-12 9 6 136.99 23.7
-9 -3 6 148.79 24.7
-12 10 -6 61.69 27.4
10 2 -6 155.38 25.2
-12 10 6 123.29 23.8
0 0 -7 39.9 5.1
0 0 7 7.2 2.8
1 0 -7 4635.54 222.28
0 1 -7 4533.45 222.38
1 -1 -7 4605.04 222.08
0 -1 -7 4504.15 221.38
0 -1 -7 4603.84 221.48
-1 1 -7 4113.59 222.28
-1 0 -7 4707.23 221.38
1 0 -7 4590.14 222.28
0 1 -7 4559.14 222.58
-1 0 -7 4268.87 221.28
-1 1 -7 4472.35 222.28
1 -1 -7 4570.14 222.08
0 -1 7 4651.93 231.58
1 -1 7 4266.27 231.78
1 0 7 4156.08 230.98
0 -1 7 4721.23 231.98
1 0 7 4702.73 230.38
-1 0 7 4817.92 231.58
-1 1 7 4957.2 231.48
0 1 7 5214.48 230.58
-1 0 7 4681.63 231.48
0 1 7 4876.11 230.78
1 1 -7 6113.49 289.47
-1 -1 -7 6017.7 287.27
-1 2 -7 5571.44 289.87
-2 1 -7 5115.69 288.97
-1 -1 -7 5933.51 287.27
-2 1 -7 5303.87 289.07
1 -2 -7 6509.95 288.67
-1 2 -7 5843.42 290.07
1 1 -7 6215.58 289.37
2 -1 -7 6010.8 289.27
1 -2 -7 5660.53 288.47
2 -1 -7 6266.87 289.17
-1 -1 7 6056.69 297.97
-1 2 7 6319.57 297.57
1 1 7 5621.84 296.07
1 1 7 6727.13 295.77
2 -1 7 5877.81 297.27
-2 1 7 6142.89 297.77
-2 1 7 6109.99 298.07
1 -2 7 5689.53 298.57
-1 -1 7 6157.78 298.07
2 -1 7 5899.31 297.27
1 -2 7 5732.23 298.67
-1 2 7 6397.56 296.97
0 2 -7 6341.67 301.27
-2 0 -7 5950.4 299.17
-2 0 -7 5339.97 298.97
-2 2 -7 5711.03 301.37
0 -2 -7 6572.84 299.17
2 -2 -7 6485.85 300.37
2 -2 -7 6205.38 300.67
0 -2 -7 6113.09 299.17
0 2 -7 6099.09 301.27
-2 2 -7 5757.82 301.37
2 0 -7 6484.65 300.67
2 0 -7 6284.07 300.67
2 0 7 6539.95 313.97
-2 0 7 6310.27 315.97
-2 0 7 6449.45 316.07
2 -2 7 6145.69 316.37
-2 2 7 6631.74 315.47
0 -2 7 6199.78 316.77
2 0 7 6276.57 313.77
-2 2 7 6675.33 316.37
0 2 7 6930.11 314.27
0 -2 7 6008 316.47
0 2 7 6562.24 314.57
-1 -2 -7 3208.48 148.39
-2 3 -7 2923.01 152.38
-1 -2 -7 2988.4 148.29
3 -1 -7 2831.62 150.88
-3 1 -7 2836.02 149.99
1 2 -7 3121.89 151.38
3 -1 -7 3158.88 150.88
-2 3 -7 2965.2 152.48
2 -3 -7 3115.39 150.38
1 2 -7 3067.89 151.08
-3 1 -7 3024.9 150.28
-3 1 7 3308.87 157.68
-3 1 7 3248.48 157.18
-1 -2 7 3201.58 157.68
-1 -2 7 3159.48 157.68
3 -1 7 3324.57 155.38
3 -1 7 2992.1 155.98
-2 3 7 3418.56 157.88
1 2 7 2885.11 154.08
2 -3 7 2882.21 159.18
2 -3 7 3149.88 158.38
1 -3 -7 1122.89 60.09
-3 2 -7 1150.78 61.49
3 -2 -7 1264.47 61.09
-1 3 -7 1173.18 62.59
-1 3 -7 1116.49 62.69
2 1 -7 1205.08 61.39
-3 2 -7 1142.89 61.59
2 1 -7 1202.58 61.09
-2 -1 -7 1132.59 57.99
-2 -1 -7 1189.58 58.09
1 -3 -7 1229.58 60.29
-1 3 7 1111.19 54.89
-2 -1 7 993.2 55.09
1 -3 7 1046 56.59
-2 -1 7 1071.69 55.39
-3 2 7 1097.39 55.09
-1 3 7 1078.09 53.79
-3 2 7 1147.49 56.29
1 -3 7 928.41 56.59
3 -2 7 1039 54.59
-3 3 -7 965.7 53.59
0 3 -7 983.3 53.79
3 0 -7 1055.99 52.79
0 -3 -7 1036.9 50.79
-3 0 -7 958.5 50.09
3 -3 -7 1034.6 52.29
0 3 -7 920.51 53.39
-3 0 -7 941.11 50.29
3 0 -7 1008 52.29
-3 3 7 1162.48 58.59
-3 0 7 1053.79 57.39
0 -3 7 1113.99 58.89
0 3 7 1098.09 55.59
-3 0 7 1160.28 57.89
3 -3 7 1047.8 57.79
-3 3 7 1099.79 56.89
0 3 7 1113.09 55.19
0 -3 7 1024.4 58.79
4 -1 -7 93.19 10.7
3 -4 -7 72.79 12.7
-1 -3 -7 97.39 7.6
1 3 -7 96.19 11.7
1 3 -7 81.99 11.3
-4 1 -7 80.59 8.9
-3 4 -7 99.19 12.9
4 -1 -7 86.89 11.4
-1 -3 -7 86.89 7.8
3 -4 -7 98.69 11.1
-4 1 -7 82.69 8.8
-3 4 -7 94.89 12.7
-3 4 7 145.59 14
-4 1 7 143.79 12.9
-3 4 7 122.49 11.6
-1 -3 7 138.39 13.8
3 -4 7 137.09 15.8
-1 -3 7 157.18 13.8
-4 1 7 153.78 13.3
4 -1 7 152.58 9.3
3 -4 7 137.39 13.9
4 -1 7 126.09 10.5
-2 4 -7 550.64 32.2
-4 2 -7 486.55 29.2
4 -2 -7 475.45 30
2 2 -7 524.85 29.7
2 -4 -7 501.75 29.7
2 -4 -7 490.65 28.9
2 2 -7 510.25 30
-4 2 -7 490.15 29.2
-2 4 -7 469.95 31.5
4 -2 -7 536.75 29.4
2 -4 7 493.35 31.3
4 -2 7 437.66 30
-2 4 7 527.55 28.6
-2 -2 7 527.45 29.9
-2 4 7 510.25 30.1
2 -4 7 500.75 32.9
-4 2 7 534.05 29.7
-2 -2 7 502.15 29.9
-4 2 7 545.55 30.7
4 -2 7 526.05 27.8
-1 4 -7 1142.89 60.49
3 1 -7 1063.09 58.39
-4 3 -7 1078.19 59.69
3 1 -7 1118.79 58.29
4 -3 -7 1122.59 58.29
4 -3 -7 1080.09 59.09
-1 4 -7 1147.79 60.89
1 -4 -7 1092.59 57.59
1 -4 -7 1110.29 57.49
-4 3 -7 1081.59 59.29
-3 -1 7 997.7 55.49
-1 4 7 1073.39 56.29
-3 -1 7 1112.79 55.89
-4 3 7 1045.6 55.39
4 -3 7 893.41 57.19
-1 4 7 1073.19 54.09
1 -4 7 1073.59 57.49
1 -4 7 1065.09 58.49
4 -3 7 1057.59 54.99
-4 3 7 1101.29 56.99
0 4 -7 848.42 47.8
-4 4 -7 860.71 49
-4 0 -7 823.82 43.6
0 -4 -7 862.61 45.2
4 -4 -7 827.62 47.6
4 -4 -7 860.01 46.5
0 4 -7 911.41 48.9
-4 4 -7 784.82 47.8
4 0 -7 833.52 46.6
0 -4 -7 804.12 44.5
4 0 -7 904.51 46.2
-4 4 7 785.52 43.8
4 -4 7 721.83 45
4 -4 7 776.12 42.5
-4 4 7 770.92 41.7
0 4 7 718.03 40
0 4 7 769.32 39.4
-4 0 7 725.83 41.9
-4 0 7 792.92 42.4
0 -4 7 760.52 44.1
0 -4 7 784.52 43.7
4 -5 -7 137.69 16.6
-4 5 -7 160.28 17.5
-1 -4 -7 174.18 12
5 -1 -7 141.59 14.6
-5 1 -7 184.18 13.3
-4 5 -7 149.09 17.9
5 -1 -7 166.18 16.2
4 -5 -7 175.98 16.1
1 4 -7 155.88 19.3
1 4 -7 155.78 16.2
-1 -4 -7 173.28 12.1
4 -5 7 112.79 16.9
1 4 7 118.69 7.9
-1 -4 7 119.39 14.8
-1 -4 7 109.79 14.6
5 -1 7 138.39 8.6
5 -1 7 112.39 10.6
-4 5 7 142.59 13.2
4 -5 7 124.49 14.8
-5 1 7 124.29 13.6
-5 1 7 152.08 14.5
1 4 7 136.29 8.4
2 3 -7 1143.39 63.39
3 -5 -7 1185.68 63.29
3 -5 -7 1154.98 63.99
-2 -3 -7 1175.08 59.09
2 3 -7 1211.68 63.69
-2 -3 -7 1187.68 59.09
-3 5 -7 1212.48 66.29
-5 2 -7 1161.38 62.59
5 -2 -7 1215.98 63.99
-3 5 -7 1150.68 65.29
5 -2 -7 1230.38 62.79
3 -5 7 1135.29 65.59
-5 2 7 1133.19 60.69
5 -2 7 1252.17 58.49
-2 -3 7 1147.19 61.19
3 -5 7 1182.58 63.19
-2 -3 7 1146.89 61.69
-5 2 7 1177.48 61.69
-3 5 7 1139.99 62.19
5 -2 7 970.5 60.49
2 -5 -7 2472.35 127.19
3 2 -7 2562.14 127.29
5 -3 -7 2624.14 126.89
-2 5 -7 2455.15 129.49
-2 5 -7 2741.83 130.69
2 -5 -7 2482.15 126.79
3 2 -7 2408.56 128.69
5 -3 -7 2384.96 127.79
-5 3 -7 2410.66 127.59
-3 -2 7 2503.25 131.09
-3 -2 7 2616.74 131.09
2 -5 7 2747.93 135.69
-5 3 7 2580.74 130.99
5 -3 7 2703.53 129.79
2 -5 7 2500.25 132.99
-5 3 7 2686.13 132.49
-2 5 7 2586.04 131.69
5 -3 7 2391.76 132.49
-2 5 7 2614.04 129.99
-5 4 -7 1500.55 84.59
4 1 -7 1576.24 83.49
-1 5 -7 1701.33 86.49
5 -4 -7 1452.95 84.49
-4 -1 -7 1630.14 79.09
4 1 -7 1583.94 82.89
1 -5 -7 1568.74 83.19
-1 5 -7 1694.73 85.59
-5 4 -7 1515.55 85.19
1 -5 -7 1460.55 82.09
-4 -1 -7 1826.02 78.89
5 -4 -7 1649.33 83.49
-1 5 7 1774.92 89.19
-1 5 7 1601.34 89.99
-5 4 7 1852.91 92.79
1 -5 7 1840.02 94.69
5 -4 7 1753.52 90.39
-5 4 7 1749.62 90.79
1 -5 7 1799.82 92.99
-4 -1 7 1756.62 90.89
-4 -1 7 1734.73 90.89
-5 0 -7 1328.27 66.59
0 5 -7 1323.37 71.29
5 -5 -7 1341.67 70.29
-5 5 -7 1233.08 71.69
-5 5 -7 1331.97 73.09
5 0 -7 1193.68 69.59
0 -5 -7 1303.67 68.09
0 -5 -7 1390.06 68.49
-5 0 -7 1391.26 66.29
0 5 -7 1387.86 72.59
5 0 -7 1291.37 68.99
5 -5 -7 1185.78 71.59
0 5 7 974.5 54.59
-5 0 7 1011.5 56.59
-5 5 7 1008.6 56.29
5 -5 7 1016.2 60.49
0 -5 7 1168.38 59.09
0 -5 7 1071.09 59.59
-5 0 7 1081.89 56.99
5 -5 7 1011.9 56.99
0 5 7 1049.7 53.89
-5 5 7 1097.29 59.29
1 5 -7 40.5 9.7
5 -6 -7 49.5 12.8
1 5 -7 40.2 9.3
-1 -5 -7 48.9 7.2
-5 6 -7 32.5 10.3
6 -1 -7 35.9 9.8
-6 1 -7 50.89 7.6
-1 -5 -7 52.29 8.9
5 -6 -7 48.4 10.4
-5 6 -7 39.6 10.1
6 -1 -7 46 8.2
-6 1 -7 66.09 10.4
-5 6 7 49.8 11.1
6 -1 7 42.1 5.7
-6 1 7 43.1 9.1
1 5 7 45.2 6.4
-6 1 7 24.6 7.6
-1 -5 7 28.9 9
6 -1 7 40.3 6.4
-5 6 7 38.7 7.9
5 -6 7 31 10.5
-1 -5 7 44.5 9.3
5 -6 7 37.4 8.9
1 5 7 48.1 6.7
-4 6 -7 600.54 40.7
-2 -4 -7 597.14 32.5
6 -2 -7 617.54 37.7
4 -6 -7 665.63 37.6
4 -6 -7 556.34 38.7
6 -2 -7 630.64 36.1
-6 2 -7 572.74 35.4
-6 2 -7 613.54 35.5
2 4 -7 606.64 37.2
2 4 -7 623.64 37.9
-2 -4 -7 655.03 32.7
-4 6 -7 539.35 42.3
4 -6 7 607.04 43.7
-6 2 7 642.34 39.3
4 -6 7 693.93 41.9
-4 6 7 658.43 38.6
-6 2 7 714.03 40.4
-4 6 7 762.92 42.6
-2 -4 7 668.03 40.8
-2 -4 7 687.73 40.2
6 -2 7 630.94 38.6
6 -2 7 708.53 35.9
-3 6 -7 1816.92 95.19
3 3 -7 1805.52 92.59
6 -3 -7 1743.63 93.29
-6 3 -7 1747.53 92.59
3 -6 -7 1728.93 92.79
-3 6 -7 1814.62 96.39
3 3 -7 1758.42 92.49
6 -3 -7 1695.73 93.49
-3 -3 -7 1826.92 87.19
3 -6 -7 1770.42 93.89
6 -3 7 1766.42 96.39
-3 -3 7 1783.52 95.69
6 -3 7 1922.01 93.29
3 -6 7 1812.62 100.59
-6 3 7 1882.11 96.59
-3 -3 7 1820.72 95.39
-3 6 7 1920.81 97.19
3 -6 7 1886.61 98.29
-6 3 7 1770.92 95.29
4 2 -7 867.01 49.1
2 -6 -7 894.01 50.89
2 -6 -7 838.62 49.1
-2 6 -7 865.51 51.99
4 2 -7 862.81 49.4
-2 6 -7 1035.7 54.29
6 -4 -7 941.21 49.7
-6 4 -7 825.62 50.59
6 -4 -7 841.22 51.79
-6 4 7 1190.58 63.09
6 -4 7 1036.9 64.09
-2 6 7 1175.98 61.89
-2 6 7 1153.08 59.79
6 -4 7 1127.29 59.59
-6 4 7 1101.79 60.99
2 -6 7 1087.99 71.49
-4 -2 7 1171.48 61.09
-4 -2 7 1073.09 60.99
2 -6 7 1134.59 63.49
5 1 -7 1487.75 80.19
-5 -1 -7 1529.75 76.49
-6 5 -7 1417.76 82.69
6 -5 -7 1361.76 83.09
1 -6 -7 1558.84 80.39
6 -5 -7 1541.35 81.59
-1 6 -7 1524.65 82.89
-5 -1 -7 1711.73 76.29
5 1 -7 1460.45 80.89
1 -6 -7 1540.75 80.59
-1 6 -7 1688.23 85.19
-1 6 7 1230.48 64.29
-5 -1 7 1214.18 64.59
-6 5 7 1197.98 66.99
1 -6 7 1281.17 69.19
-5 -1 7 1144.19 64.29
-6 5 7 1199.38 64.69
6 -5 7 1199.38 64.29
6 -5 7 1091.49 67.19
-1 6 7 1193.48 62.49
1 -6 7 1231.18 66.89
6 0 -7 1175.58 63.39
-6 0 -7 1235.48 60.49
-6 0 -7 1185.18 60.89
0 6 -7 1324.67 68.19
0 6 -7 1216.28 66.19
6 -6 -7 1074.69 67.29
0 -6 -7 1167.58 62.79
6 -6 -7 1211.88 65.69
-6 6 -7 1125.59 67.09
0 -6 -7 1198.88 62.99
6 0 -7 1036.8 64.09
-6 6 7 946.41 56.09
-6 6 7 941.01 53.09
-6 0 7 983.6 53.29
0 -6 7 997.6 55.09
6 -6 7 942.71 53.39
6 -6 7 904.11 57.19
0 6 7 893.31 50.59
-6 0 7 930.71 52.79
0 6 7 934.91 49.9
0 -6 7 1015.2 56.69
6 -7 -7 67.99 16.2
-7 1 -7 49.3 8.4
-6 7 -7 32.4 18.5
7 -1 -7 40 9.5
-1 -6 -7 50.79 8.6
-1 -6 -7 49.7 8.3
-7 1 -7 54.99 8.1
6 -7 -7 41 11.8
-6 7 -7 72.09 14.6
7 -1 -7 38.5 11.2
1 6 -7 62.79 12.5
1 6 -7 43 11
1 6 7 36.6 6
6 -7 7 30.4 9.3
6 -7 7 27 12.3
-7 1 7 42.1 10
-6 7 7 45.4 12.5
1 6 7 42.5 5.9
7 -1 7 44 6.6
-7 1 7 35.7 8.6
-1 -6 7 46.1 10.7
-6 7 7 41.2 9.9
-1 -6 7 58.99 11.9
7 -1 7 50.59 6.2
-5 7 -7 994.3 58.49
5 -7 -7 931.71 58.69
7 -2 -7 955.6 56.09
-5 7 -7 1031.2 60.89
7 -2 -7 952.5 53.69
-7 2 -7 1008.9 53.09
2 5 -7 903.11 54.99
5 -7 -7 937.31 55.79
-7 2 -7 964.9 53.49
-2 -5 -7 958.8 51.49
2 5 -7 1032 57.29
-2 -5 7 882.71 52.39
5 -7 7 871.21 55.99
-2 -5 7 928.21 52.29
-7 2 7 839.72 50.49
7 -2 7 806.12 48.7
-5 7 7 825.22 49.8
-5 7 7 962.1 54.49
5 -7 7 946.11 53.29
7 -2 7 945.51 46.2
-7 2 7 865.01 50.49
-3 -4 -7 2195.18 115.19
-3 -4 -7 2472.75 115.59
-7 3 -7 2144.39 119.59
-7 3 -7 2335.67 120.19
3 4 -7 2364.06 121.09
-4 7 -7 2428.86 125.49
7 -3 -7 2357.56 119.39
4 -7 -7 2248.77 120.79
4 -7 -7 2514.25 124.09
7 -3 -7 2204.58 121.49
4 -7 7 2093.49 113.09
-4 7 7 1990.9 107.39
7 -3 7 2016.1 108.69
-4 7 7 2264.17 111.39
-7 3 7 2068.19 108.29
-7 3 7 2007.2 108.89
4 -7 7 2104.29 114.39
7 -3 7 2171.08 105.29
-3 -4 7 2057.19 108.59
-3 -4 7 2110.69 109.29
-7 4 -7 1217.98 69.49
7 -4 -7 1179.68 70.69
-3 7 -7 1251.77 71.39
7 -4 -7 1306.17 68.29
-3 7 -7 1386.66 74.39
4 3 -7 1222.08 68.19
3 -7 -7 1263.27 69.19
-7 4 7 1337.87 72.19
-3 7 7 1455.55 74.19
7 -4 7 1352.86 69.89
-4 -3 7 1295.57 71.79
3 -7 7 1345.17 75.09
7 -4 7 1296.47 73.79
3 -7 7 1397.16 78.39
-4 -3 7 1297.97 71.99
-7 4 7 1328.97 73.49
-3 7 7 1261.97 76.29
7 -5 -7 603.44 38
-5 -2 -7 590.54 31.4
5 2 -7 617.54 37
7 -5 -7 589.94 41.2
-2 7 -7 706.53 43.5
-2 7 -7 629.34 40.4
2 -7 -7 605.44 38
2 -7 -7 605.44 37.8
-7 5 -7 573.24 39.8
7 -5 7 649.74 39.3
7 -5 7 610.04 43.6
-5 -2 7 661.23 40.3
-7 5 7 705.03 43.3
-7 5 7 678.93 41.1
-2 7 7 728.53 41.6
2 -7 7 682.83 43.2
-5 -2 7 666.33 40.4
-2 7 7 630.84 38.5
2 -7 7 765.72 46.2
-7 6 -7 937.51 58.29
-6 -1 -7 1047.6 49.99
1 -7 -7 927.01 54.49
-1 7 -7 1094.19 60.39
7 -6 -7 948.01 61.79
7 -6 -7 890.21 59.19
1 -7 -7 1007.2 54.89
-1 7 -7 957.1 57.09
6 1 -7 949.11 54.29
-6 -1 -7 971.8 50.39
1 -7 7 991.7 57.29
-1 7 7 985.8 53.89
-6 -1 7 1013.4 54.59
-7 6 7 911.41 56.09
-7 6 7 988.9 57.99
7 -6 7 920.11 58.59
1 -7 7 1023.3 59.19
7 -6 7 962.8 54.19
-6 -1 7 908.11 54.09
-1 7 7 950.5 51.89
-7 0 -7 1266.47 63.29
0 7 -7 1246.68 69.39
0 7 -7 1444.36 73.19
0 -7 -7 1146.79 66.29
7 0 -7 1188.28 66.49
-7 0 -7 1248.78 64.49
7 -7 -7 1200.78 69.59
0 -7 -7 1308.27 67.19
7 -7 -7 1112.29 72.89
-7 7 -7 1144.39 71.39
-7 7 7 1057.49 63.79
0 7 7 1097.59 56.79
0 -7 7 1166.28 62.69
7 -7 7 1055.59 65.49
0 -7 7 1158.58 64.19
-7 0 7 993.3 59.49
0 7 7 1039.3 57.59
-7 0 7 1020.4 59.49
7 -7 7 1070.19 60.79
-7 7 7 1072.39 60.49
-1 -7 -7 63.99 16.4
1 7 -7 105.69 16.4
7 -8 -7 101.29 21.7
1 7 -7 93.69 16
-7 8 -7 85.39 16.4
-8 1 -7 63.19 10.7
-8 1 -7 67.89 13.3
-1 -7 -7 70.69 10.6
7 -8 -7 67.49 14.1
-7 8 -7 76.29 24
8 -1 -7 43.8 9.5
-1 -7 7 46.2 12.9
1 7 7 40.7 6.8
-1 -7 7 54.29 12.6
-7 8 7 42.8 11.1
-8 1 7 47.7 10.9
8 -1 7 49.9 6.8
7 -8 7 26.2 13
-7 8 7 61.49 14.7
8 -1 7 50.39 6.9
1 7 7 58.49 7
-8 1 7 35.5 10.5
7 -8 7 56.89 12.8
-8 2 -7 422.96 27
-6 8 -7 419.76 34.7
6 -8 -7 443.36 37.9
8 -2 -7 353.36 27.8
-2 -6 -7 438.76 26.2
6 -8 -7 366.56 31.1
2 6 -7 452.75 32.6
-8 2 -7 413.26 28.2
8 -2 -7 377.06 31.4
-2 -6 -7 398.06 26
6 -8 7 207.08 28
-8 2 7 234.28 22.1
8 -2 7 254.37 18.4
-6 8 7 223.58 26.7
-2 -6 7 267.97 24
-2 -6 7 268.27 25.9
-8 2 7 224.28 22.4
6 -8 7 249.58 25.1
-6 8 7 221.98 21.9
5 -8 -7 1045.6 63.69
-3 -5 -7 1032.1 57.59
-5 8 -7 1190.28 69.89
3 5 -7 1126.59 64.59
-8 3 -7 1102.49 61.49
-3 -5 -7 1186.28 58.29
-8 3 -7 1116.79 62.49
8 -3 -7 1078.89 64.99
8 -3 -7 1067.59 61.59
-5 8 -7 1144.69 66.79
5 -8 -7 1213.48 69.19
8 -3 7 949.31 54.69
5 -8 7 1019.8 58.69
-8 3 7 989.3 55.89
-3 -5 7 985 56.19
5 -8 7 945.51 61.39
-5 8 7 899.31 54.29
-5 8 7 1036.9 58.99
-3 -5 7 941.11 56.49
-8 3 7 888.11 54.69
-4 -4 -7 454.65 25.7
-4 -4 -7 465.05 25
4 -8 -7 492.35 33.5
4 -8 -7 469.75 33.8
8 -4 -7 433.46 35.4
8 -4 -7 468.45 31.4
-4 8 -7 484.15 37.9
4 4 -7 464.05 32.5
-8 4 -7 435.66 32
-4 8 -7 455.85 38.2
4 4 -7 441.16 32.3
-8 4 -7 494.85 33.3
8 -4 7 380.56 26.2
4 -8 7 336.07 39.1
-8 4 7 365.46 28.8
-8 4 7 397.16 30
4 -8 7 411.36 35.8
-4 -4 7 390.56 29.3
8 -4 7 391.76 29.2
-4 8 7 421.06 31.1
-4 -4 7 360.36 33
-5 -3 -7 29.6 4.3
5 3 -7 5.8 7.9
-3 8 -7 14.9 9.4
-8 5 -7 7.4 9.8
-5 -3 -7 15 4.6
3 -8 -7 8.7 8.8
-3 8 -7 24.3 13.7
8 -5 -7 19 12.7
3 -8 -7 14.4 9
-8 5 -7 13.2 12.5
8 -5 -7 10.1 8.5
-8 5 7 11.5 9
-8 5 7 15.2 11.4
3 -8 7 16.5 11.8
-5 -3 7 10.8 9.7
8 -5 7 26.6 9.8
3 -8 7 1.7 9.2
-3 8 7 28.2 8.3
8 -5 7 24.3 8.2
-3 8 7 39.8 11.3
-5 -3 7 11.3 8.9
-2 8 -7 255.77 24.5
-2 8 -7 297.77 29.3
-6 -2 -7 219.88 14.5
6 2 -7 188.98 28.4
8 -6 -7 220.88 23.2
-8 6 -7 220.88 25.5
6 2 -7 226.98 28.8
2 -8 -7 213.98 22
8 -6 -7 230.78 29.4
2 -8 -7 219.88 21.7
-6 -2 -7 217.58 14.1
2 -8 7 374.76 30.1
2 -8 7 368.46 32.6
-2 8 7 330.07 24
-6 -2 7 287.97 27
8 -6 7 366.16 26.1
-8 6 7 336.27 29.9
-6 -2 7 359.56 27
-8 6 7 337.07 27.6
7 1 -7 1307.77 72.99
-1 8 -7 1379.46 76.29
1 -8 -7 1233.28 78.99
-7 -1 -7 1426.96 69.89
1 -8 -7 1411.06 74.49
8 -7 -7 1348.86 75.99
7 1 -7 1298.07 83.19
-7 -1 -7 1434.16 68.99
8 -7 -7 1303.07 80.69
-8 7 -7 1314.77 78.49
-1 8 7 1356.36 71.39
1 -8 7 1422.16 78.99
1 -8 7 1475.25 77.69
-8 7 7 1246.18 74.39
-7 -1 7 1313.87 73.69
-8 7 7 1371.96 78.19
8 -7 7 1251.37 76.09
8 -7 7 1376.56 79.79
-8 0 -7 459.55 27.2
8 0 -7 431.46 43.7
0 8 -7 534.95 38.8
0 8 -7 471.25 34.1
-8 0 -7 456.15 28.6
0 -8 -7 426.96 30.8
8 -8 -7 462.75 43.2
-8 8 -7 455.65 38.1
8 0 -7 406.66 30.5
0 -8 -7 454.25 31.7
8 -8 -7 435.76 35.1
0 -8 7 508.65 37.6
-8 0 7 393.06 31.9
8 -8 7 419.76 43.9
-8 8 7 509.05 38.2
-8 8 7 433.36 33.5
8 -8 7 436.16 38.5
0 8 7 488.65 28.4
-8 0 7 452.85 35.1
0 -8 7 520.05 36
-8 9 -7 40.2 25.2
-1 -8 -7 61.39 11.5
-1 -8 -7 53.69 11.4
8 -9 -7 69.19 24.8
-9 1 -7 35.1 9.5
-8 9 -7 33.2 14.5
9 -1 -7 27 12.3
8 -9 -7 57.59 15.1
-9 1 -7 34.6 8.8
-8 9 7 50.09 16.1
-8 9 7 41.2 12.9
-9 1 7 41.6 11.5
8 -9 7 31.6 15.4
-1 -8 7 40.8 13.3
8 -9 7 37.6 11.5
-1 -8 7 56.89 15.4
1 8 7 48.4 7
-9 1 7 27.8 11.2
-2 -7 -7 75.49 10.8
-7 9 -7 56.19 15
9 -2 -7 38.9 10
7 -9 -7 65.59 14.4
-9 2 -7 64.89 10.7
-9 2 -7 65.79 11.6
2 7 -7 55.39 13.4
9 -2 -7 64.59 12.8
-7 9 -7 30.9 24.5
-2 -7 -7 77.69 10.8
2 7 -7 91.69 16.1
-2 -7 7 83.79 14.4
7 -9 7 73.99 17.4
7 -9 7 86.59 14.6
-9 2 7 78.99 12.4
-7 9 7 82.39 20.5
-7 9 7 65.39 12.6
-2 -7 7 77.19 21.8
-9 2 7 84.49 14.7
9 -2 7 92.89 12.9
9 -3 -7 670.83 41.4
-6 9 -7 745.23 49.1
-3 -6 -7 631.54 37.6
9 -3 -7 655.73 45.9
6 -9 -7 606.94 45.5
3 6 -7 621.74 42.8
3 6 -7 789.82 45.8
6 -9 -7 579.84 44
-9 3 -7 693.93 40.8
-9 3 -7 657.53 42.3
-3 -6 -7 715.33 38.3
-6 9 7 521.75 36.1
-3 -6 7 572.34 39.9
9 -3 7 484.45 34.4
-3 -6 7 570.84 38.9
-9 3 7 514.55 36.8
6 -9 7 582.84 40.5
6 -9 7 510.15 43.4
-6 9 7 601.54 42
-9 3 7 492.75 36.3
-4 -5 -7 868.61 46.4
5 -9 -7 809.92 54.79
4 5 -7 829.72 52.49
9 -4 -7 815.02 53.49
5 -9 -7 844.02 54.59
-4 -5 -7 923.31 47.4
-9 4 -7 913.61 54.29
-9 4 -7 897.91 52.19
-5 9 -7 989.7 57.89
4 5 -7 986.7 55.09
9 -4 -7 877.61 56.89
5 -9 7 1000.3 58.99
9 -4 7 873.31 54.99
-9 4 7 901.01 55.29
-5 9 7 898.81 54.29
-9 4 7 953.3 56.29
-5 9 7 945.81 58.59
-4 -5 7 925.71 56.09
-4 -5 7 950.9 55.69
5 -9 7 943.21 62.79
5 4 -7 455.55 32.7
-5 -4 -7 439.96 24.5
4 -9 -7 467.05 34.2
9 -5 -7 427.06 31.8
-9 5 -7 378.06 32.6
4 -9 -7 432.46 34.4
-4 9 -7 466.45 36.7
-5 -4 -7 431.16 25.3
9 -5 -7 466.35 38.6
5 4 -7 449.66 32.4
-4 9 -7 521.95 40.9
4 -9 7 541.75 43
-5 -4 7 451.15 34.6
-5 -4 7 536.85 37
9 -5 7 551.64 37.8
-9 5 7 485.35 35.9
-4 9 7 496.55 37.7
4 -9 7 516.95 39.5
-9 5 7 571.94 37.8
-4 9 7 473.55 33.6
-9 6 -7 468.25 39.5
-6 -3 -7 474.25 26.5
6 3 -7 482.05 34.4
9 -6 -7 444.96 34.4
-3 9 -7 577.84 42.8
3 -9 -7 469.25 35.1
-3 9 -7 502.65 37.5
6 3 -7 435.66 32.4
3 -9 -7 477.05 36.2
-6 -3 -7 539.65 27.5
9 -6 -7 435.56 40.6
-9 6 7 386.36 38
-6 -3 7 377.66 29.1
-9 6 7 373.96 30.7
9 -6 7 352.76 32.3
3 -9 7 410.06 33.4
-3 9 7 423.96 31.3
3 -9 7 405.76 36.9
-6 -3 7 308.27 40.9
-3 9 7 357.16 27.2
9 -6 7 387.96 27.3
9 -7 -7 551.14 40.4
2 -9 -7 589.34 40
-7 -2 -7 589.64 32.2
-2 9 -7 748.73 48.6
-7 -2 -7 581.54 32.7
-2 9 -7 620.24 42.1
7 2 -7 577.94 39.6
2 -9 -7 605.94 40.1
9 -7 -7 571.14 48.7
-9 7 -7 545.65 43.7
-7 -2 7 651.03 41.1
-2 9 7 608.84 39.1
-9 7 7 626.94 42.9
9 -7 7 621.64 40.6
9 -7 7 651.33 46.1
2 -9 7 706.03 47.9
-9 7 7 684.03 46.4
-7 -2 7 618.14 41.7
2 -9 7 717.03 46.3
1 -9 -7 454.15 33.5
8 1 -7 423.66 34.3
-8 -1 -7 458.55 27.4
9 -8 -7 428.06 36
1 -9 -7 485.15 34.1
-9 8 -7 457.95 39.5
-1 9 -7 424.46 34.7
-8 -1 -7 462.55 28.5
-1 9 -7 613.54 44
9 -8 -7 533.55 46.7
1 -9 7 491.05 39
-9 8 7 439.66 37.1
1 -9 7 452.35 36.2
-8 -1 7 400.06 32.5
-1 9 7 456.75 29
-9 8 7 397.96 33.7
9 -8 7 453.15 39
9 -8 7 382.96 31.9
-8 -1 7 429.36 31.7
0 -9 -7 91.09 14.4
-9 0 -7 109.79 13.9
-9 9 -7 75.39 18.3
0 -9 -7 118.59 18.7
9 0 -7 93.89 16.5
9 -9 -7 81.39 25.7
-9 0 -7 80.09 11.7
9 -9 -7 54.89 16.1
0 9 -7 130.89 19
-9 9 -7 47.2 26
9 -9 7 100.69 27.5
9 -9 7 71.39 17.9
-9 0 7 87.89 16.8
0 9 7 78.39 13.1
0 -9 7 59.59 16.3
0 -9 7 79.29 15
-9 9 7 65.49 15.8
-9 9 7 98.29 18.5
-9 0 7 87.79 14.8
-9 10 -7 102.49 28.3
9 -10 -7 160.88 25.1
10 -1 -7 154.68 25.5
-10 1 -7 156.08 19.9
-9 10 -7 211.68 32.3
-1 -9 -7 166.48 20.9
1 9 -7 169.88 30.2
9 -10 -7 94.69 18.1
-10 1 -7 152.18 17.4
-1 -9 -7 181.98 21.4
-1 -9 7 132.89 19.8
-10 1 7 148.99 23
-1 -9 7 196.98 27.1
-9 10 7 162.18 27.5
-9 10 7 99.59 16.6
-10 1 7 137.59 21.1
9 -10 7 125.39 24.4
2 8 -7 224.18 25.1
8 -10 -7 203.08 31.1
-10 2 -7 220.88 23.4
8 -10 -7 196.88 28
-10 2 -7 232.18 20.8
10 -2 -7 163.08 28.7
-2 -8 -7 238.18 21.4
-8 10 -7 261.37 33
-2 -8 -7 254.57 21.6
-8 10 7 152.88 25.2
-2 -8 7 199.68 27.6
10 -2 7 168.58 15.9
-8 10 7 220.58 29.4
-10 2 7 170.68 24.3
8 -10 7 123.29 22
8 -10 7 198.98 26.1
-2 -8 7 204.18 25.4
-10 2 7 170.28 22
7 -10 -7 70.09 15.2
10 -3 -7 65.09 16
3 7 -7 75.79 13.8
7 -10 -7 56.29 15.9
-10 3 -7 71.69 13.6
-7 10 -7 43.2 27.4
-7 10 -7 59.99 16.5
-3 -7 -7 95.79 14.2
-3 -7 -7 72.39 10.9
-10 3 -7 75.89 12.5
-10 3 7 79.69 14.9
7 -10 7 98.29 16.1
-7 10 7 125.59 22.3
-7 10 7 89.59 15.8
-3 -7 7 102.39 16.8
7 -10 7 93.59 20.3
-10 3 7 98.69 16
-3 -7 7 120.69 19.2
10 -3 7 93.99 15.8
-4 -6 -7 399.26 23.4
6 -10 -7 249.88 34.9
-10 4 -7 347.97 27.8
4 6 -7 335.97 29
-10 4 -7 340.67 30.7
10 -4 -7 356.66 35.2
-4 -6 -7 322.57 22.3
6 -10 -7 319.37 32.3
-6 10 -7 343.27 35.3
-10 4 7 365.16 32
6 -10 7 454.55 41.2
-10 4 7 309.77 42.9
-4 -6 7 406.66 34
6 -10 7 471.45 36.8
-6 10 7 386.06 31.2
-4 -6 7 371.76 32.2
10 -4 7 367.46 30
-5 -5 -7 1042.2 53.19
-5 -5 -7 957.7 52.09
5 5 -7 996.3 59.59
5 -10 -7 1032.1 62.39
-10 5 -7 1031.6 59.59
-10 5 -7 1037 62.49
10 -5 -7 994 65.59
-5 10 -7 1064.19 64.89
5 -10 -7 994.7 62.89
10 -5 -7 930.71 58.69
-5 -5 7 1172.38 65.69
-5 -5 7 1126.49 64.79
-10 5 7 1149.08 66.09
-10 5 7 986.5 64.29
10 -5 7 989.9 64.79
5 -10 7 1180.78 68.79
5 -10 7 1090.69 72.79
-4 10 -7 814.52 55.89
-6 -4 -7 829.62 43.9
6 4 -7 847.82 51.79
10 -6 -7 856.81 59.79
10 -6 -7 788.32 51.49
-6 -4 -7 882.71 44.9
-10 6 -7 820.52 55.79
-10 6 -7 764.62 52.59
4 -10 -7 838.62 55.59
-4 10 -7 998.4 62.09
4 -10 -7 855.51 54.39
-6 -4 7 658.83 44.5
-4 10 7 703.63 43.8
4 -10 7 730.43 49.9
4 -10 7 767.42 53.59
-6 -4 7 753.12 46.6
-10 6 7 687.33 46.5
-10 6 7 562.24 57.89
10 -6 7 701.73 48.3
-10 7 -7 514.45 43.3
-3 10 -7 600.04 43
-7 -3 -7 570.04 32.1
-7 -3 -7 627.14 33
10 -7 -7 539.25 40.2
-3 10 -7 689.03 50.19
10 -7 -7 580.24 49.7
-10 7 -7 554.84 45
3 -10 -7 594.54 42
7 3 -7 551.64 39.4
3 -10 -7 608.54 42.1
-7 -3 7 506.55 37.2
-7 -3 7 583.24 39.3
3 -10 7 543.05 44.8
-3 10 7 536.65 35.9
10 -7 7 539.65 42.4
3 -10 7 599.94 43
-10 7 7 545.85 42.3
-10 7 7 500.45 39.4
-8 -2 -7 176.68 15.6
-2 10 -7 203.48 25.9
-8 -2 -7 193.18 15.2
8 2 -7 155.48 23.3
2 -10 -7 197.18 24.8
10 -8 -7 186.58 27.5
2 -10 -7 190.98 24.2
10 -8 -7 208.48 31.5
-10 8 -7 198.88 30.4
2 -10 7 185.88 28.9
-10 8 7 159.48 26.7
-8 -2 7 169.58 22.8
-8 -2 7 138.39 20.3
-2 10 7 134.39 18
-10 8 7 106.19 17
10 -8 7 157.78 26.9
2 -10 7 129.39 20.3
1 -10 -7 50.99 13.2
-10 9 -7 6.9 19.5
-10 9 -7 48.8 16.8
10 -9 -7 38.7 27.9
10 -9 -7 85.39 28.3
-9 -1 -7 72.09 9.4
-1 10 -7 55.39 14.4
-9 -1 -7 57.29 9.4
9 1 -7 54.79 14.5
1 -10 -7 73.49 14.6
-1 10 7 74.89 11
-9 -1 7 58.29 14.7
1 -10 7 91.39 17.5
1 -10 7 81.89 18.8
-10 9 7 70.29 19.6
10 -9 7 62.59 17.8
-9 -1 7 52.69 12.7
-10 9 7 49.3 14.8
-10 0 -7 156.28 17
0 -10 -7 162.68 24.1
-10 10 -7 149.88 24.8
-10 10 -7 82.99 25.6
10 0 -7 154.78 25
10 -10 -7 133.39 24.8
-10 0 -7 174.18 19.2
0 -10 -7 189.38 29
0 -10 7 155.48 23.5
-10 0 7 122.59 20.8
0 10 7 159.88 16
0 -10 7 219.18 27.8
-10 10 7 126.49 20.5
-10 10 7 140.49 23.8
-10 0 7 131.19 19.3
10 -10 7 142.19 25.6
-11 1 -7 437.96 48.6
-1 -10 -7 524.25 38.6
10 -11 -7 473.85 47.3
10 -11 -7 462.65 51.29
-10 11 -7 452.25 45.7
1 10 -7 506.25 38.3
-1 -10 -7 506.35 36.8
-11 1 -7 474.85 32.2
11 -1 -7 527.95 43.1
-11 1 7 440.66 37.1
10 -11 7 436.66 45.7
-1 -10 7 482.05 39.7
-10 11 7 377.06 36.9
-1 -10 7 546.55 41.2
-11 1 7 318.07 32.4
9 -11 -7 567.44 46.3
-9 11 -7 583.34 60.99
-11 2 -7 604.34 41.1
2 9 -7 585.94 41.9
-11 2 -7 614.04 38.1
9 -11 -7 540.55 48.4
-2 -9 -7 614.84 38.5
-2 -9 -7 649.04 39.5
11 -2 -7 519.25 46.1
-2 -9 7 661.23 44.5
-11 2 7 525.85 41.5
-11 2 7 442.86 38.1
9 -11 7 558.34 51.29
-2 -9 7 659.13 45.4
-9 11 7 524.55 41.9
8 -11 -7 268.97 32.5
-11 3 -7 317.77 29.8
-3 -8 -7 323.27 24.8
8 -11 -7 274.57 35.2
-3 -8 -7 320.77 24.8
-11 3 -7 336.07 33.9
-8 11 -7 338.97 37.6
3 8 -7 307.57 28.9
-11 3 7 372.06 31.8
-3 -8 7 409.16 34.3
-3 -8 7 353.86 35.1
-11 3 7 385.66 34
8 -11 7 412.46 36.7
8 -11 7 381.26 41.9
11 -3 7 331.17 26.2
-8 11 7 291.87 31.9
-7 11 -7 9.8 16
-4 -7 -7 15.6 8.4
11 -4 -7 9.9 14.6
7 -11 -7 4.5 14.5
4 7 -7 -0.6 11.1
-11 4 -7 36.7 11.7
-11 4 -7 36.1 14
-7 11 -7 24.4 27.8
7 -11 -7 58.39 15.5
-4 -7 -7 36.6 8.6
-7 11 7 14.9 10.7
7 -11 7 7.8 12.3
-11 4 7 19.3 14.1
-4 -7 7 20.5 11.9
-11 4 7 10.6 11.5
7 -11 7 -8 15.2
-4 -7 7 36.7 15.4
11 -4 7 11.8 9.6
-6 11 -7 103.89 20.8
6 -11 -7 102.29 19.8
6 -11 -7 99.39 18
-11 5 -7 109.29 16.6
-6 11 -7 25 29.9
-5 -6 -7 118.29 13
5 6 -7 129.29 18
-11 5 -7 119.49 19.4
-5 -6 -7 106.59 13.5
11 -5 -7 129.39 23.6
-11 5 7 107.79 18.4
-11 5 7 90.69 17.1
-5 -6 7 95.99 16.9
-5 -6 7 74.79 16.5
6 -11 7 116.79 21.1
11 -5 7 95.39 15.6
6 -11 7 152.28 27.2
-6 11 7 79.89 13.8
-6 -5 -7 297.87 19.7
-6 -5 -7 273.47 18.7
5 -11 -7 287.77 31.6
6 5 -7 286.47 28.7
-11 6 -7 246.98 28.1
11 -6 -7 313.47 38.8
-11 6 -7 318.57 33.8
5 -11 -7 326.87 32.7
-5 11 -7 285.97 33.9
-5 11 7 223.78 24.7
-6 -5 7 258.67 27.3
-6 -5 7 270.17 29.1
11 -6 7 239.88 28.1
5 -11 7 324.27 39
-11 6 7 207.48 31.8
-11 6 7 208.58 28.1
5 -11 7 265.97 31.8
4 -11 -7 244.88 28.6
-7 -4 -7 204.38 15
-11 7 -7 215.78 31.3
-11 7 -7 196.58 26.3
4 -11 -7 181.68 28
11 -7 -7 192.28 41.7
-4 11 -7 230.78 29.1
7 4 -7 199.88 24.4
4 -11 7 193.78 29.1
11 -7 7 237.88 28.7
-4 11 7 187.98 22.5
4 -11 7 188.28 33.4
-7 -4 7 163.48 24.2
-11 7 7 233.38 28.3
-11 7 7 140.89 26.2
-7 -4 7 235.78 27.8
-11 8 -7 243.38 34.4
3 -11 -7 226.58 28.3
3 -11 -7 265.97 29.6
8 3 -7 193.98 25.4
-3 11 -7 206.28 28.3
-8 -3 -7 229.98 16.7
-11 8 -7 207.38 29.8
11 -8 -7 229.88 35.1
-8 -3 7 232.18 27.5
-3 11 7 196.98 22.5
3 -11 7 190.18 29.6
3 -11 7 219.38 32.8
-11 8 7 202.38 29.7
-8 -3 7 203.68 24.9
-11 8 7 154.08 27.9
-11 9 -7 83.19 22
11 -9 -7 67.89 32.3
2 -11 -7 91.59 17.6
2 -11 -7 103.69 18.6
-9 -2 -7 86.59 13.2
9 2 -7 80.69 16.4
-9 -2 -7 94.19 16
-11 9 -7 80.09 20.4
-2 11 -7 87.39 17.4
11 -9 7 84.09 22
-11 9 7 81.59 17.8
2 -11 7 70.49 17.5
2 -11 7 109.29 19.7
-9 -2 7 74.99 16.8
-9 -2 7 82.49 14.7
-11 9 7 85.69 20.7
-2 11 7 80.09 13.2
10 1 -7 58.99 16.5
-10 -1 -7 84.69 11.7
-11 10 -7 51.59 20.9
1 -11 -7 35.9 19.3
-1 11 -7 54.99 12.9
1 -11 -7 98.39 17.8
-10 -1 -7 82.89 11.7
-11 10 -7 87.09 22.4
11 -10 -7 60.39 21.6
-11 10 7 79.59 20
-10 -1 7 97.09 16.1
1 -11 7 81.19 19.8
1 -11 7 109.29 20
11 -10 7 129.59 24.1
-11 10 7 87.79 19.1
-10 -1 7 101.99 16.8
-1 11 7 110.39 16.9
-11 11 -7 266.27 38.7
0 -11 -7 220.48 26.7
0 11 -7 211.28 27
0 -11 -7 223.28 27.5
-11 11 -7 156.28 28.7
-11 0 -7 226.88 20.2
11 -11 -7 189.88 37.3
11 0 -7 206.68 30.9
-11 0 -7 223.08 22.2
-11 0 7 179.28 24.5
0 -11 7 310.97 41.5
11 -11 7 157.28 44.6
-11 11 7 191.58 26.4
0 -11 7 212.28 35.4
-11 0 7 179.58 28.2
-10 12 -7 103.79 30.5
3 9 -7 399.36 35.6
-3 -9 -7 431.66 31.6
12 -3 -7 467.45 44.7
9 -12 -7 384.76 43.4
-9 12 -7 430.96 51.49
-12 3 -7 440.36 36.9
-3 -9 -7 465.15 32
9 -12 -7 394.96 41.2
-12 3 -7 478.25 33.5
9 -12 7 407.26 46.4
-12 3 7 337.07 36.1
-3 -9 7 426.96 36.8
-12 3 7 341.07 32.7
-9 12 7 365.16 35.6
-3 -9 7 448.76 51.69
-8 12 -7 380.16 42.8
-4 -8 -7 420.46 30.8
-12 4 -7 365.86 31.3
8 -12 -7 332.07 39.6
8 -12 -7 430.36 39.6
4 8 -7 380.16 34.3
-12 4 -7 418.86 38.6
-4 -8 -7 405.56 27.7
-12 4 7 314.77 31.4
-8 12 7 297.77 32.7
8 -12 7 330.17 44.4
-12 4 7 348.47 35.2
-4 -8 7 409.76 34.7
-4 -8 7 400.26 37.2
12 -4 7 303.47 27.4
8 -12 7 305.87 46.6
7 -12 -7 94.09 19.9
5 7 -7 92.19 17
-5 -7 -7 111.99 17.8
-12 5 -7 75.29 15
-7 12 -7 107.69 22.8
7 -12 -7 54.09 17.8
-5 -7 -7 80.69 13.7
-12 5 -7 61.29 19.2
12 -5 -7 84.59 23.2
7 -12 7 62.49 22.4
-5 -7 7 53.79 17.3
-12 5 7 68.39 17.3
-12 5 7 63.89 15.7
-5 -7 7 61.79 15.4
7 -12 7 47 17.8
-7 12 7 44.8 13.3
12 -5 7 71.39 14.9
-6 -6 -7 10.4 6.4
-6 12 -7 22 17.5
6 6 -7 1.2 12
-12 6 -7 15.9 12.1
6 -12 -7 -4.3 13.7
6 -12 -7 21.6 15.3
12 -6 -7 20.5 19.1
-6 -6 -7 4.3 6.4
-12 6 -7 7.4 15.6
-12 6 7 0.9 13
-6 -6 7 -3.1 12.6
-12 6 7 -13.4 12.6
6 -12 7 -4.5 16.1
-6 12 7 0.8 6
-6 -6 7 4.2 14.1
12 -6 7 10.7 11.6
6 -12 7 1.5 13.2
12 -7 -7 5.8 22.8
-7 -5 -7 8.1 5.8
-12 7 -7 2 13.3
7 5 -7 30.4 13.1
-12 7 -7 0.4 14.7
5 -12 -7 6.7 15.8
5 -12 -7 -5.8 12.2
-5 12 -7 11.2 13.2
-12 7 7 -12.4 12.9
-5 12 7 16.4 11.4
-7 -5 7 -1.2 12.2
-12 7 7 -3 12.7
5 -12 7 1.6 12.6
5 -12 7 17.4 20.3
-7 -5 7 15.2 15
12 -7 7 12.1 12.6
4 -12 -7 16.1 15
8 4 -7 23 19.7
-12 8 -7 29.8 18.8
-4 12 -7 13.5 14.7
12 -8 -7 -0.8 24.8
-12 8 -7 18.7 14.8
4 -12 -7 20.9 14.8
-8 -4 -7 25 6.2
-8 -4 7 10.9 13
-4 12 7 17.4 11.3
-12 8 7 8.2 14.6
4 -12 7 35.1 16.8
-8 -4 7 11.6 22.2
-12 8 7 24.2 15
12 -8 7 -6.8 13.4
4 -12 7 12.8 19
-12 9 -7 -4.2 13.7
-12 9 -7 35.9 20
-9 -3 -7 42.2 8.4
9 3 -7 38.2 14.5
3 -12 -7 35.8 15.9
-9 -3 -7 30.7 7.2
3 -12 -7 53.19 17.7
-3 12 -7 5.7 13.3
-12 9 7 1.4 15.8
-9 -3 7 28 13.9
3 -12 7 41.2 20.5
3 -12 7 17.6 16.4
-9 -3 7 33.8 15.3
-12 9 7 29.8 17.1
-3 12 7 27.7 16
10 2 -7 16.6 13.5
-12 10 7 -18.4 15.2
0 0 -8 9.5 3.4
0 0 -8 0.9 2.9
0 0 8 0 2.8
1 0 -8 572.24 32.4
0 1 -8 599.54 32.5
1 0 -8 601.34 32.4
0 -1 -8 640.04 31.7
-1 1 -8 591.04 32.3
-1 1 -8 581.94 32.6
-1 0 -8 545.85 31.3
1 -1 -8 625.44 32.2
0 1 -8 590.34 32.7
0 -1 -8 615.04 31.6
1 -1 -8 605.44 32.3
-1 0 -8 614.94 31.5
0 -1 8 776.62 40.3
-1 0 8 737.53 39.8
1 -1 8 704.03 40.2
1 0 8 780.32 38.6
-1 1 8 786.12 39.6
0 1 8 796.42 38.6
0 1 8 759.92 38.8
1 0 8 673.53 39.1
0 -1 8 742.43 39.8
-1 0 8 738.03 39.7
2 -1 -8 1309.37 63.89
2 -1 -8 1227.48 63.89
-1 -1 -8 1294.07 61.89
-1 2 -8 1228.48 64.59
-1 -1 -8 1225.08 61.89
-1 2 -8 1071.09 64.19
1 1 -8 1259.37 63.99
-2 1 -8 1168.08 63.69
1 1 -8 1259.77 64.19
1 -2 -8 1325.27 63.19
-1 -1 8 1432.16 73.39
-2 1 8 1467.95 73.19
-2 1 8 1461.85 73.49
2 -1 8 1359.26 72.59
-1 2 8 1420.56 72.29
1 -2 8 1388.86 74.29
-1 2 8 1535.45 72.99
1 1 8 1303.87 71.39
1 -2 8 1358.36 73.89
-1 -1 8 1492.45 73.59
2 -1 8 1422.96 72.39
1 1 8 1566.04 70.99
-2 2 -8 2582.24 138.99
-2 0 -8 2766.32 136.59
2 -2 -8 2987.7 137.99
2 0 -8 2753.42 138.19
0 -2 -8 2769.72 136.69
2 0 -8 2871.21 138.19
-2 2 -8 2582.24 138.99
0 2 -8 2678.63 138.69
0 2 -8 2832.92 138.69
0 -2 -8 2968.9 136.69
-2 0 -8 2596.24 136.49
-2 0 8 2773.52 139.39
0 -2 8 2747.03 140.19
-2 2 8 2842.62 139.59
0 -2 8 2754.72 139.99
0 2 8 2905.31 137.39
-2 0 8 2835.22 139.49
2 0 8 2768.62 137.09
2 -2 8 2643.64 139.59
2 0 8 2705.73 137.29
-2 2 8 2909.31 138.79
0 2 8 2807.52 137.69
1 2 -8 2088.49 104.59
-2 3 -8 1997.6 106.09
3 -1 -8 2040.6 104.49
2 -3 -8 1968.2 103.89
-3 1 -8 1900.31 103.49
2 -3 -8 2229.08 103.99
-3 1 -8 1778.72 104.69
-1 -2 -8 2128.79 101.69
1 2 -8 2096.49 104.89
-2 3 -8 2086.39 106.09
-1 -2 -8 2169.38 102.69
3 -1 -8 2205.48 104.39
-1 -2 8 1905.51 93.79
3 -1 8 1814.02 91.69
1 2 8 1721.63 90.09
-3 1 8 1966.2 93.89
-3 1 8 1855.71 93.19
2 -3 8 1774.22 94.29
1 2 8 1963.1 89.99
-1 -2 8 1805.82 93.69
-2 3 8 1929.81 93.69
2 -3 8 1551.94 94.39
3 -1 8 1861.31 91.19
2 1 -8 4398.86 214.38
1 -3 -8 4707.43 213.48
3 -2 -8 4637.94 214.28
-1 3 -8 4248.77 215.98
-3 2 -8 3998.3 214.58
-1 3 -8 4426.76 215.88
-2 -1 -8 4137.19 211.18
-3 2 -8 3580.14 217.48
-2 -1 -8 4489.65 211.38
2 1 -8 4555.94 214.38
1 -3 8 4295.57 215.28
-3 2 8 4642.24 214.68
3 -2 8 4431.16 213.28
3 -2 8 3623.24 213.78
1 -3 8 3995.2 215.18
-3 2 8 4543.55 213.68
-1 3 8 4545.85 213.28
-2 -1 8 4309.47 213.98
-1 3 8 4495.65 212.28
-2 -1 8 4261.07 213.88
-3 3 -8 2218.78 117.99
0 -3 -8 2533.05 114.39
0 3 -8 2358.66 117.39
0 -3 -8 2313.87 114.09
3 0 -8 2394.96 116.39
-3 0 -8 2043.6 113.79
0 3 -8 2250.47 117.09
3 -3 -8 2449.85 115.99
-3 3 -8 2037.7 118.39
-3 0 -8 2249.18 113.89
3 0 -8 2380.36 115.99
3 0 8 2565.34 118.79
0 3 8 2468.45 119.99
3 0 8 2599.04 118.79
0 -3 8 2361.16 123.69
0 -3 8 2269.77 123.49
-3 0 8 2419.06 122.59
-3 3 8 2496.65 123.29
-3 0 8 2252.07 122.19
-3 3 8 2507.05 121.89
0 3 8 2440.66 120.39
3 -3 8 2316.77 122.79
-3 4 -8 414.36 28.5
-4 1 -8 397.46 24.6
-4 1 -8 432.06 25.2
3 -4 -8 479.25 26.8
3 -4 -8 396.76 26.8
4 -1 -8 450.35 26.6
-1 -3 -8 473.65 23.5
4 -1 -8 449.66 27.3
1 3 -8 446.26 27.7
-1 -3 -8 419.96 23.4
1 3 -8 427.16 27.3
-3 4 -8 387.76 28.1
-1 -3 8 336.77 22
3 -4 8 299.67 24.1
4 -1 8 314.17 18.3
4 -1 8 287.17 18.4
-3 4 8 315.07 20
3 -4 8 315.87 22.4
-4 1 8 323.57 21.5
-3 4 8 335.17 22.3
-1 -3 8 300.67 22
-4 1 8 338.57 21.3
2 2 -8 2356.96 118.49
-2 -2 -8 2241.18 114.29
4 -2 -8 2432.76 118.19
-2 -2 -8 2402.06 114.39
4 -2 -8 2322.57 118.79
-2 4 -8 2300.47 120.59
2 -4 -8 2347.47 117.79
-4 2 -8 2254.67 118.19
-4 2 -8 2204.48 117.99
2 2 -8 2371.76 118.69
-2 4 -8 2443.06 120.79
2 -4 -8 2333.77 117.99
2 -4 8 1719.53 96.29
-2 -2 8 1811.02 95.29
-2 4 8 1846.62 93.89
-2 4 8 1905.61 98.59
-4 2 8 2041 96.09
-2 -2 8 1858.71 95.19
4 -2 8 1804.12 93.49
-4 2 8 1877.51 94.89
2 -4 8 1866.41 98.29
-4 3 -8 2250.77 119.59
-3 -1 -8 2130.69 114.59
3 1 -8 2304.77 118.49
-1 4 -8 2504.35 121.09
4 -3 -8 2421.36 118.69
1 -4 -8 2389.46 117.69
1 -4 -8 2424.86 117.89
-4 3 -8 2252.97 119.69
-1 4 -8 2441.56 121.09
4 -3 -8 2286.67 119.29
3 1 -8 2366.06 118.89
4 -3 8 2607.74 135.89
1 -4 8 2806.82 137.89
-4 3 8 2855.31 137.19
-1 4 8 2650.14 134.99
-3 -1 8 2637.14 135.79
-4 3 8 2784.42 135.59
-3 -1 8 2808.42 135.99
1 -4 8 2646.44 138.29
-1 4 8 2857.31 134.09
4 -3 8 2288.87 138.29
-4 4 -8 1029.3 59.49
-4 4 -8 1051.99 59.99
4 -4 -8 1114.89 58.09
4 0 -8 1108.89 57.69
4 -4 -8 1077.79 62.19
4 0 -8 1129.09 58.49
0 -4 -8 1090.19 56.19
-4 0 -8 1026.2 54.99
0 4 -8 1089.19 59.69
0 -4 -8 1068.19 55.89
0 4 -8 1091.49 60.19
4 -4 8 923.01 57.29
0 -4 8 1032.7 55.69
-4 4 8 1029.7 53.59
-4 4 8 1094.89 55.99
0 -4 8 965.3 56.09
4 -4 8 962.4 55.49
0 4 8 954.1 51.49
-4 0 8 989.2 53.99
-4 0 8 1049.89 54.49
0 4 8 1019 51.19
1 4 -8 684.03 41.2
-1 -4 -8 695.53 36.9
5 -1 -8 724.83 41
-4 5 -8 714.93 43.5
-4 5 -8 665.73 42.5
4 -5 -8 719.83 40.6
4 -5 -8 672.73 41.4
5 -1 -8 739.73 40.1
1 4 -8 561.94 48.5
-5 1 -8 715.03 38.3
-4 5 8 679.83 40.9
-5 1 8 659.33 39.1
-1 -4 8 707.53 40.8
5 -1 8 672.43 36
5 -1 8 701.63 34.7
4 -5 8 677.73 41.4
-5 1 8 714.73 39.7
-1 -4 8 656.93 40.8
4 -5 8 646.84 43.8
-4 5 8 687.53 38.4
2 3 -8 231.38 19.6
5 -2 -8 259.47 18.9
5 -2 -8 255.47 20.1
-2 -3 -8 258.07 13.9
3 -5 -8 266.77 20.1
2 3 -8 225.98 19.9
3 -5 -8 206.18 22.6
-5 2 -8 247.38 18.2
-3 5 -8 228.98 21.2
-3 5 -8 229.08 21.3
-2 -3 -8 250.57 13.9
-2 -3 8 236.28 19.7
5 -2 8 273.47 15.7
-3 5 8 237.78 19.8
5 -2 8 186.18 17.5
-2 -3 8 265.77 19.5
-5 2 8 252.07 18.8
-5 2 8 262.37 19.8
3 -5 8 236.28 22.9
3 -5 8 259.47 21.1
-5 3 -8 2102.79 115.89
-2 5 -8 2300.37 118.39
3 2 -8 2276.17 115.89
5 -3 -8 2357.36 115.49
-2 5 -8 2444.36 118.99
5 -3 -8 2181.08 116.29
2 -5 -8 2250.37 115.49
-5 3 -8 2243.38 116.19
2 -5 -8 2222.58 115.09
-5 3 8 2013 98.89
-5 3 8 1916.41 97.29
5 -3 8 1924.71 95.69
5 -3 8 1738.33 98.99
-2 5 8 1920.41 95.89
-3 -2 8 1818.72 97.39
-2 5 8 1836.02 97.59
2 -5 8 1859.01 99.49
-3 -2 8 1913.71 97.59
2 -5 8 1981.2 101.89
4 1 -8 1134.89 62.59
1 -5 -8 1119.49 61.19
-5 4 -8 1122.89 63.89
1 -5 -8 1204.58 61.99
-4 -1 -8 1076.29 57.59
4 1 -8 1175.58 62.19
-1 5 -8 1209.98 64.79
5 -4 -8 1197.58 62.59
5 -4 -8 1111.69 63.59
-4 -1 -8 1139.49 57.89
-1 5 -8 1281.07 65.49
-5 4 -8 1191.08 64.39
5 -4 8 1171.18 60.49
-5 4 8 1142.29 62.89
1 -5 8 1188.88 63.29
-4 -1 8 1085.39 60.99
1 -5 8 1153.98 64.69
-1 5 8 1099.09 58.89
-1 5 8 1083.59 60.09
-5 4 8 1143.39 60.99
-4 -1 8 1192.68 61.39
0 5 -8 1821.92 94.39
-5 5 -8 1604.44 93.49
-5 0 -8 1906.41 88.19
5 -5 -8 1676.03 93.29
5 0 -8 1754.92 91.09
5 0 -8 1648.44 91.79
-5 5 -8 1780.32 94.89
0 5 -8 1845.52 93.69
5 -5 -8 1824.42 92.29
0 -5 -8 1743.13 89.79
-5 0 -8 1719.33 88.39
5 -5 8 1595.54 84.49
0 -5 8 1738.03 86.19
-5 5 8 1549.05 86.29
0 -5 8 1654.13 87.19
0 5 8 1640.24 80.99
-5 0 8 1586.34 83.99
0 5 8 1503.25 81.59
5 -5 8 1512.95 87.89
-5 0 8 1685.23 84.49
-5 5 8 1606.34 83.69
5 -6 -8 2888.61 154.68
-6 1 -8 3021.5 150.68
6 -1 -8 2971.5 151.88
-5 6 -8 2835.92 155.28
-6 1 -8 3171.58 150.28
6 -1 -8 2789.62 152.98
-5 6 -8 3080.79 157.18
1 5 -8 3112.19 155.28
1 5 -8 3024.8 154.08
-1 -5 -8 3038.4 149.99
5 -6 -8 2943.41 153.38
-1 -5 -8 3174.38 150.08
6 -1 8 2834.42 146.79
-6 1 8 2901.91 149.69
-1 -5 8 2883.11 151.98
-1 -5 8 3127.29 151.68
5 -6 8 2998.6 151.38
-6 1 8 3061.19 150.38
1 5 8 2726.33 144.79
-5 6 8 2943.41 152.48
6 -1 8 3097.99 144.99
5 -6 8 2757.22 154.68
1 5 8 3145.19 145.49
-5 6 8 2962.8 149.39
-2 -4 -8 1170.58 61.39
-2 -4 -8 1154.28 58.29
4 -6 -8 1073.09 63.99
-4 6 -8 1087.79 65.19
4 -6 -8 1159.58 63.09
2 4 -8 1189.78 64.19
-6 2 -8 1191.28 61.99
-4 6 -8 1083.69 66.39
6 -2 -8 1202.48 62.29
2 4 -8 1110.39 63.29
6 -2 -8 1192.08 63.89
-6 2 8 1157.28 62.29
-4 6 8 1184.78 64.09
6 -2 8 1233.48 57.99
4 -6 8 1145.39 64.09
-4 6 8 1113.59 60.69
6 -2 8 1005.8 60.69
-2 -4 8 1154.38 63.29
4 -6 8 1078.99 66.99
-2 -4 8 1176.48 62.79
-6 2 8 1091.29 61.49
3 3 -8 938.61 51.09
-3 6 -8 959.5 54.89
3 -6 -8 892.71 52.09
6 -3 -8 888.71 51.99
-3 6 -8 885.31 53.69
3 3 -8 903.81 51.19
6 -3 -8 870.61 51.89
3 -6 -8 915.71 50.89
-6 3 -8 864.91 50.89
-3 -3 8 857.71 47.4
6 -3 8 869.51 44.6
-3 -3 8 794.62 47.6
-6 3 8 884.91 48.7
-3 6 8 783.02 45.8
-6 3 8 820.72 47.1
3 -6 8 856.31 52.69
-3 6 8 841.02 48.5
6 -3 8 752.42 47.7
3 -6 8 885.81 50.29
4 2 -8 1501.85 81.09
4 2 -8 1488.35 81.59
-6 4 -8 1490.05 82.69
2 -6 -8 1482.25 80.89
6 -4 -8 1624.14 81.69
-2 6 -8 1550.24 84.19
-2 6 -8 1742.33 85.89
6 -4 -8 1445.56 82.99
2 -6 -8 1559.34 82.09
6 -4 8 1354.86 69.59
-6 4 8 1345.37 71.29
-4 -2 8 1310.77 71.39
-2 6 8 1358.56 69.59
-6 4 8 1374.46 72.99
-2 6 8 1307.27 71.39
2 -6 8 1348.57 73.69
-4 -2 8 1311.27 71.09
6 -4 8 1272.27 73.49
6 -5 -8 198.78 22.3
-1 6 -8 182.88 20.7
1 -6 -8 177.08 16.4
5 1 -8 173.18 18.2
6 -5 -8 176.88 18.5
5 1 -8 161.98 17.2
-5 -1 -8 224.28 11.7
-6 5 -8 154.88 19.8
1 -6 -8 179.18 16.7
-5 -1 -8 180.48 11.8
-1 6 -8 203.88 21.3
6 -5 8 187.58 17.2
-5 -1 8 225.98 18.9
-6 5 8 156.98 26.5
-6 5 8 198.28 18.8
-5 -1 8 196.18 18.6
-1 6 8 208.18 17
1 -6 8 235.68 23.3
1 -6 8 206.88 21
-1 6 8 203.58 15.2
-6 6 -8 986.9 63.09
6 0 -8 1004.6 60.79
0 -6 -8 1152.78 59.09
0 -6 -8 1073.99 58.89
6 -6 -8 1062.69 61.49
6 0 -8 1058.89 59.79
-6 0 -8 1160.58 56.29
0 6 -8 1224.98 64.49
6 -6 -8 1050.29 63.59
-6 0 -8 1153.98 57.09
0 6 -8 1104.99 62.59
0 -6 8 1083.99 58.59
6 -6 8 978.2 54.79
-6 6 8 954.9 54.19
-6 0 8 963.9 54.39
0 6 8 854.11 51.19
0 -6 8 1052.39 56.89
6 -6 8 953.1 59.09
0 6 8 964 50.59
-6 0 8 947.51 54.09
-6 6 8 971.7 57.29
-7 1 -8 2218.28 106.69
-7 1 -8 2176.68 107.89
6 -7 -8 1986.3 111.09
1 6 -8 2393.26 113.79
7 -1 -8 1940.71 110.59
-6 7 -8 2012.6 113.39
-1 -6 -8 2033.5 107.09
-1 -6 -8 2248.88 107.69
7 -1 -8 2055.79 108.99
6 -7 -8 1974 113.49
1 6 -8 2134.19 111.49
-1 -6 8 1780.02 89.59
6 -7 8 1674.83 88.99
7 -1 8 1677.13 80.99
1 6 8 1516.15 81.59
6 -7 8 1657.93 93.49
1 6 8 1486.05 81.49
1 6 8 1684.93 81.79
-7 1 8 1636.54 87.19
-6 7 8 1609.54 86.99
-6 7 8 1677.13 90.99
-7 1 8 1560.54 86.99
-1 -6 8 1796.02 90.79
2 5 -8 2958.4 159.98
5 -7 -8 2994.9 161.68
-7 2 -8 3210.18 158.28
-5 7 -8 3137.49 164.48
5 -7 -8 2997.3 160.08
7 -2 -8 3176.18 158.58
7 -2 -8 2940.11 160.08
2 5 -8 3241.38 161.88
-2 -5 -8 3103.29 155.48
-5 7 -8 3097.69 162.88
-2 -5 -8 3418.46 155.68
-7 2 -8 3210.08 157.48
-7 2 8 2994.1 155.48
5 -7 8 3209.78 158.38
7 -2 8 2586.54 153.58
-5 7 8 3097.69 158.48
-5 7 8 3023.1 154.98
5 -7 8 3020.9 161.78
7 -2 8 3208.28 151.18
-2 -5 8 3189.48 157.78
-2 -5 8 3170.38 157.48
-7 2 8 3079.29 155.98
4 -7 -8 644.84 44.8
7 -3 -8 731.63 41.8
3 4 -8 754.62 43.6
-7 3 -8 725.03 42.5
-4 7 -8 745.43 47.8
4 -7 -8 618.74 42.2
7 -3 -8 677.03 43.8
-3 -4 -8 789.62 36.5
-4 7 -8 678.33 45.4
-3 -4 -8 639.14 36.1
3 4 -8 709.93 43.1
4 -7 8 553.74 40.8
-7 3 8 504.25 34
7 -3 8 560.24 30.4
-4 7 8 560.14 36.7
-3 -4 8 529.65 35.2
-7 3 8 538.85 35
-3 -4 8 529.55 34.5
4 -7 8 534.95 37.2
7 -3 8 515.05 34.1
7 -4 -8 184.98 22.6
4 3 -8 215.58 19.5
-3 7 -8 205.18 22.6
-3 7 -8 198.78 23.8
7 -4 -8 198.98 18.8
3 -7 -8 196.38 22.8
-7 4 -8 152.98 19.5
3 -7 -8 205.98 19.3
4 3 -8 189.58 18.9
-4 -3 8 123.09 17.1
7 -4 8 149.09 13.9
-7 4 8 134.99 18.3
3 -7 8 118.49 18.4
-3 7 8 142.09 18
7 -4 8 114.79 16.7
-7 4 8 129.09 17.3
-4 -3 8 129.29 16.9
-3 7 8 138.69 14.6
3 -7 8 148.99 19.7
-2 7 -8 236.28 24.1
2 -7 -8 197.98 19.5
-7 5 -8 180.08 21.1
5 2 -8 186.28 18.4
5 2 -8 197.78 18.8
-2 7 -8 185.88 21.7
7 -5 -8 175.08 19.7
7 -5 -8 169.38 24.2
2 -7 -8 214.08 19
-5 -2 8 183.88 18.2
-2 7 8 163.18 15.4
7 -5 8 161.08 16.2
-5 -2 8 189.98 18.7
2 -7 8 184.58 23.6
2 -7 8 179.68 21.1
7 -5 8 139.29 24.3
-2 7 8 170.98 17.8
-7 5 8 161.88 20.9
-7 5 8 155.98 18.5
-7 6 -8 252.67 25.1
-6 -1 -8 246.68 14.8
-1 7 -8 265.57 26
-6 -1 -8 238.88 15.2
6 1 -8 239.88 20.9
1 -7 -8 232.98 20.7
7 -6 -8 220.18 26.3
7 -6 -8 218.48 33.7
-1 7 -8 267.27 24.6
1 -7 -8 233.08 20.5
6 1 -8 221.98 20.5
-1 7 8 187.88 17
7 -6 8 179.18 22.3
1 -7 8 191.28 23.6
1 -7 8 185.98 22
7 -6 8 170.18 18.1
-1 7 8 173.78 15.2
-7 6 8 167.48 24.4
-6 -1 8 166.88 18.6
-7 6 8 197.28 22.9
-6 -1 8 185.38 19.1
0 -7 -8 753.02 43.3
-7 0 -8 744.33 40.7
7 -7 -8 697.93 46.3
-7 0 -8 785.32 39.7
0 7 -8 876.61 49.99
-7 7 -8 741.83 49.3
0 7 -8 786.62 47.2
7 0 -8 736.23 45.7
7 -7 -8 655.93 49.7
0 -7 -8 704.83 42.7
7 0 -8 681.03 43.5
7 -7 8 675.03 41.9
-7 0 8 662.13 41.1
0 -7 8 699.93 45.6
0 -7 8 706.73 43.9
7 -7 8 665.63 46.8
-7 7 8 672.73 45
-7 0 8 607.84 40.5
0 7 8 656.83 38
-7 7 8 662.13 41.4
-1 -7 -8 154.68 24.7
8 -1 -8 141.49 20.4
7 -8 -8 144.49 23.2
1 7 -8 169.48 22.8
-7 8 -8 152.68 25.2
-8 1 -8 154.68 14.9
-8 1 -8 153.78 19.9
-1 -7 -8 146.29 16.4
-7 8 -8 88.19 25
7 -8 -8 157.88 21.8
1 7 -8 128.49 20.9
8 -1 -8 135.29 17.9
-8 1 8 155.98 20.1
7 -8 8 164.78 21.4
-7 8 8 173.98 24.4
-1 -7 8 172.88 22.2
-7 8 8 156.38 20
7 -8 8 142.59 25.6
1 7 8 178.88 12.1
-8 1 8 141.09 19.2
-1 -7 8 168.48 23.6
2 6 -8 772.02 48
-2 -6 -8 845.82 43.3
6 -8 -8 754.22 48.9
-6 8 -8 773.12 51.69
-8 2 -8 799.32 44.2
8 -2 -8 760.92 45.7
-8 2 -8 786.12 45.8
8 -2 -8 704.63 48.2
-2 -6 -8 751.52 43.3
6 -8 -8 741.43 52.89
2 6 -8 863.61 51.49
-2 -6 8 769.52 47.3
8 -2 8 718.23 37.9
-8 2 8 702.33 44.1
-6 8 8 753.82 47.9
-8 2 8 687.43 44
6 -8 8 753.62 51.49
-6 8 8 665.33 43.2
8 -2 8 644.94 40.6
6 -8 8 767.92 47.1
-2 -6 8 742.63 45.6
5 -8 -8 468.55 38.7
-3 -5 -8 524.55 27
-8 3 -8 472.95 31.6
3 5 -8 495.15 35.4
-8 3 -8 500.75 32.8
-5 8 -8 469.55 37.1
8 -3 -8 461.95 35.4
8 -3 -8 421.86 31.4
-3 -5 -8 444.16 26.5
5 -8 -8 439.96 33.9
-5 8 -8 491.35 39.7
5 -8 8 454.95 34.5
5 -8 8 443.26 39.1
8 -3 8 453.25 26
-5 8 8 473.95 34.1
-3 -5 8 446.86 32.2
-8 3 8 413.96 31.6
-3 -5 8 450.15 33.2
-8 3 8 440.26 31.3
-5 8 8 403.26 29.6
8 -3 8 405.26 29.7
4 -8 -8 25.1 9.5
-4 8 -8 111.19 18.4
-4 -4 -8 44.6 5.6
8 -4 -8 48.7 14
-8 4 -8 37 11.7
-4 8 -8 40.8 12.9
8 -4 -8 19.7 8.8
-8 4 -8 56.09 11.9
4 4 -8 35 10.8
-4 8 8 64.39 13.7
4 -8 8 39.1 15.1
-8 4 8 58.89 11.8
4 -8 8 52.59 13.5
-4 -4 8 37.1 10.9
-4 -4 8 47.5 9.9
8 -4 8 39.9 10
-8 4 8 57.09 12.8
8 -5 -8 1.9 11
-3 8 -8 12 11.2
5 3 -8 9.5 8.4
-3 8 -8 13.8 12
-8 5 -8 1.4 9
8 -5 -8 -4.2 7.7
3 -8 -8 3.3 8.2
3 -8 -8 9.6 8.2
-8 5 -8 13.5 13.4
-5 -3 8 -0.7 7.9
3 -8 8 3.3 12.1
8 -5 8 12.8 7.4
-3 8 8 -6.2 8.8
-8 5 8 -7.5 9.9
-8 5 8 8.1 9.2
-3 8 8 9.9 6.8
8 -5 8 6.4 8.1
3 -8 8 -3.2 9.8
-5 -3 8 2.3 9.1
-8 6 -8 110.99 17.9
2 -8 -8 141.19 18.3
8 -6 -8 113.29 19.1
8 -6 -8 122.39 19.5
-2 8 -8 173.18 25
-2 8 -8 134.19 20.8
6 2 -8 127.09 18.7
2 -8 -8 135.89 18.7
-6 -2 -8 145.99 9.5
-8 6 8 118.49 20.9
2 -8 8 118.99 17.7
-6 -2 8 76.89 13.3
2 -8 8 117.99 19
8 -6 8 106.99 16.1
-2 8 8 109.59 13.9
-6 -2 8 80.69 12.3
-8 6 8 101.89 17.9
7 1 -8 689.03 44.3
8 -7 -8 634.74 50.99
-8 7 -8 735.63 50.09
1 -8 -8 717.73 45.1
-7 -1 -8 776.92 39.4
1 -8 -8 772.82 45.3
-7 -1 -8 749.03 39.9
8 -7 -8 730.13 47.5
-1 8 -8 730.13 47.8
-1 8 -8 927.91 52.99
8 -7 8 693.23 47.9
-8 7 8 654.93 46.3
1 -8 8 739.23 48.1
1 -8 8 746.53 46.1
-1 8 8 662.23 41.8
8 -7 8 652.53 41.9
-8 7 8 677.73 43.4
-7 -1 8 642.64 42.8
-1 8 8 658.93 39
-7 -1 8 727.93 42.8
0 -8 -8 437.26 30.5
8 -8 -8 392.06 33.9
8 0 -8 413.56 30.5
-8 0 -8 425.86 27.3
8 -8 -8 411.46 40.7
0 8 -8 519.05 38
0 8 -8 446.56 34
0 -8 -8 422.46 30
-8 0 -8 467.55 26.3
-8 8 -8 401.56 37.8
0 8 8 355.06 22.4
-8 8 8 331.07 28.4
8 -8 8 293.67 33.8
8 -8 8 341.47 28.1
-8 8 8 323.27 32.3
0 -8 8 370.36 30.8
-8 0 8 322.17 26.9
0 -8 8 361.16 32.7
-8 0 8 317.97 34.1
8 -9 -8 198.78 26.1
-1 -8 -8 210.98 19.8
-9 1 -8 195.58 17.5
-1 -8 -8 174.38 20.7
-8 9 -8 194.08 29
1 8 -8 207.18 22.4
-9 1 -8 194.48 19.6
8 -9 -8 251.87 36.4
8 -9 8 167.08 22.8
-9 1 8 144.09 20.9
-8 9 8 126.59 20.2
-1 -8 8 158.28 23.5
1 8 8 160.78 12
-9 1 8 158.68 22.2
-8 9 8 156.78 27
-1 -8 8 185.98 26.4
8 -9 8 163.78 28.4
-9 2 -8 261.17 23
-7 9 -8 239.68 30.7
-9 2 -8 235.98 28.9
7 -9 -8 266.47 33.7
-2 -7 -8 268.17 20.2
-2 -7 -8 271.27 20.4
-7 9 -8 135.09 30.2
9 -2 -8 234.18 26.9
9 -2 -8 197.48 22.1
2 7 -8 329.17 36.4
7 -9 -8 220.08 26.7
-7 9 8 178.38 25.4
-2 -7 8 219.58 29.4
-9 2 8 187.58 23.2
-7 9 8 160.88 21.7
9 -2 8 197.88 16.9
7 -9 8 225.58 25.5
-9 2 8 177.78 21.8
-2 -7 8 211.08 24.6
3 6 -8 304.87 27.9
-3 -6 -8 304.67 20.1
9 -3 -8 282.37 29.6
-3 -6 -8 271.27 19.8
-6 9 -8 320.77 32.6
6 -9 -8 290.97 28.2
9 -3 -8 283.67 25.2
-9 3 -8 282.87 25.8
-9 3 -8 302.47 24
6 -9 8 345.67 31.1
-6 9 8 341.17 30.9
6 -9 8 366.46 36.4
9 -3 8 276.57 25.6
-6 9 8 291.77 26.1
-3 -6 8 358.16 28.9
-3 -6 8 330.17 32.5
-9 3 8 287.07 27.8
-9 3 8 293.87 27.1
-4 -5 -8 633.34 34.9
-4 -5 -8 721.33 35.5
-9 4 -8 652.33 43.6
4 5 -8 669.53 44.6
4 5 -8 663.63 48.6
9 -4 -8 618.34 46.3
9 -4 -8 652.73 45
5 -9 -8 624.74 44.8
-9 4 -8 609.44 41.5
5 -9 -8 670.73 44.1
-5 9 -8 727.93 50.49
-5 9 -8 688.33 47.8
5 -9 8 640.04 48.9
-5 9 8 608.54 43.3
-9 4 8 606.74 41.2
5 -9 8 627.24 44.3
-9 4 8 564.84 40.5
-4 -5 8 633.14 41.3
-4 -5 8 651.43 42.4
9 -4 8 572.94 39.6
-5 9 8 618.94 39.1
-9 5 -8 166.08 23.4
9 -5 -8 169.98 20.6
9 -5 -8 169.38 26.4
-4 9 -8 168.88 27.9
4 -9 -8 171.68 26.6
5 4 -8 133.99 21.7
-4 9 -8 186.38 26
4 -9 -8 153.28 21.8
5 4 -8 178.48 21.3
-9 5 -8 159.48 22.1
4 -9 8 179.48 27.6
-5 -4 8 175.28 21.5
-5 -4 8 182.98 23.3
-4 9 8 217.08 24.2
9 -5 8 172.18 21.6
4 -9 8 154.18 24.1
-9 5 8 152.58 22.4
-9 5 8 183.48 22.9
-4 9 8 163.88 19.5
3 -9 -8 37.7 11.1
-3 9 -8 65.89 18
6 3 -8 46.8 10.8
9 -6 -8 47.5 16.8
9 -6 -8 57.99 12.5
-9 6 -8 15.6 15.1
6 3 -8 35.5 12.1
-3 9 -8 50.19 14
3 -9 -8 38.6 12
-9 6 -8 49.3 15.4
3 -9 8 43.7 15.9
9 -6 8 46 10.8
-3 9 8 33.4 9.4
-6 -3 8 34.1 14.5
3 -9 8 24.4 11.9
-9 6 8 44.4 12.9
-9 6 8 48.5 14.1
9 -6 8 44.1 12.5
9 -7 -8 148.19 23.8
2 -9 -8 157.68 20.9
-9 7 -8 131.09 22.3
2 -9 -8 145.19 20.7
-2 9 -8 131.99 23.4
-7 -2 -8 155.78 11.8
-2 9 -8 186.48 27.8
7 2 -8 159.28 21.5
-7 -2 -8 163.68 11.9
9 -7 -8 149.59 22.6
9 -7 8 120.19 22
-7 -2 8 191.38 22.3
-2 9 8 187.48 18.2
-9 7 8 196.58 25.9
2 -9 8 179.28 26.8
-9 7 8 146.29 23.1
-7 -2 8 179.18 25.6
2 -9 8 222.98 26.7
-8 -1 -8 614.04 32.9
8 1 -8 599.24 41.1
-9 8 -8 566.74 54.29
1 -9 -8 606.54 39.6
1 -9 -8 580.54 39
-1 9 -8 568.04 41.4
-8 -1 -8 603.84 33.7
9 -8 -8 574.84 50.39
9 -8 -8 568.54 42.3
-8 -1 8 563.34 39.4
-1 9 8 611.24 39
9 -8 8 569.74 46
-8 -1 8 612.94 41.1
1 -9 8 694.13 46.5
-9 8 8 571.14 41.4
1 -9 8 648.64 44.1
-9 8 8 564.54 44.5
9 0 -8 532.25 41.4
0 -9 -8 592.04 38.6
-9 9 -8 536.75 51.09
9 -9 -8 601.44 52.49
-9 0 -8 587.24 33.6
-9 0 -8 577.24 35.1
0 -9 -8 603.54 39.2
9 -9 -8 539.75 42.9
0 9 -8 632.24 41.7
-9 9 8 525.65 41.8
0 9 8 646.74 35.3
0 -9 8 692.13 45.3
9 -9 8 636.64 49.8
0 -9 8 657.03 47
-9 0 8 567.74 41.6
-9 0 8 579.54 40.5
-10 1 -8 362.56 25.6
9 -10 -8 314.37 34.1
10 -1 -8 321.37 33
-10 1 -8 354.56 27.7
-9 10 -8 392.56 40.2
-1 -9 -8 352.36 28.7
-1 -9 -8 416.86 28.7
-1 -9 8 325.57 31.4
-9 10 8 264.37 28.8
-1 -9 8 346.87 33.9
-10 1 8 259.57 27.1
-10 1 8 272.67 28.8
9 -10 8 291.57 38.2
-9 10 8 177.58 40.6
2 8 -8 524.65 46.3
8 -10 -8 438.66 41.5
-10 2 -8 489.95 35.2
-2 -8 -8 529.95 32.8
8 -10 -8 446.76 39.3
-8 10 -8 472.15 43.9
-2 -8 -8 520.85 32.8
-10 2 -8 520.45 32.5
8 -10 8 376.26 40.9
-10 2 8 367.16 31.3
8 -10 8 423.66 35.7
-2 -8 8 416.06 34.7
10 -2 8 440.36 31.1
-8 10 8 389.26 32.8
-10 2 8 387.16 33.6
-2 -8 8 422.56 37
-7 10 -8 839.92 57.19
10 -3 -8 724.23 52.99
-3 -7 -8 818.62 44.2
-3 -7 -8 768.52 44
-10 3 -8 803.32 46.6
7 -10 -8 656.53 62.09
3 7 -8 737.43 49.4
-10 3 -8 867.61 50.19
7 -10 -8 775.62 52.59
-3 -7 8 891.91 53.09
10 -3 8 729.23 46.8
-3 -7 8 843.12 54.19
-10 3 8 802.42 51.39
-10 3 8 807.52 50.39
7 -10 8 829.02 54.89
7 -10 8 825.52 60.19
-7 10 8 756.82 50.29
-6 10 -8 765.32 53.19
-4 -6 -8 771.62 40.1
-4 -6 -8 711.63 39.5
6 -10 -8 694.83 49.5
-10 4 -8 787.62 48.7
4 6 -8 659.93 46.8
6 -10 -8 693.63 50.19
10 -4 -8 734.03 51.89
-10 4 -8 742.83 45.1
-10 4 8 700.93 47.6
6 -10 8 790.32 51.79
-4 -6 8 756.82 49.4
-10 4 8 530.05 56.79
6 -10 8 755.92 56.89
-4 -6 8 825.52 53.09
-6 10 8 694.83 46.1
5 -10 -8 232.68 27.4
10 -5 -8 199.88 24.1
-5 10 -8 227.68 29.5
-5 -5 -8 220.98 14.3
-10 5 -8 235.98 28.2
5 5 -8 216.68 25.6
-10 5 -8 204.68 23.9
5 -10 -8 222.38 26.8
10 -5 -8 240.18 31
-10 5 8 219.88 27.1
-10 5 8 241.78 27.5
-5 -5 8 230.48 26
5 -10 8 246.28 29.9
10 -5 8 252.37 25.3
-5 -5 8 234.58 27.7
5 -10 8 255.77 34.8
-10 6 -8 127.59 20.2
-10 6 -8 120.29 19
-4 10 -8 112.29 18.8
4 -10 -8 117.59 17.9
10 -6 -8 112.69 22
10 -6 -8 73.39 12.6
6 4 -8 110.59 17.1
-4 10 -8 182.28 30.1
4 -10 -8 132.49 23.2
4 -10 8 111.99 21.4
10 -6 8 103.39 17.2
-4 10 8 102.29 15
-6 -4 8 100.29 15.8
-6 -4 8 94.39 17
4 -10 8 94.99 17.9
-10 6 8 119.59 18.1
-10 6 8 106.49 18.8
3 -10 -8 257.37 28
-10 7 -8 219.18 29.9
-3 10 -8 355.16 36.2
-3 10 -8 301.77 30
-10 7 -8 275.37 32.3
10 -7 -8 293.07 37.5
10 -7 -8 275.27 27.6
7 3 -8 309.27 27.7
3 -10 -8 283.27 29.1
-7 -3 8 272.57 25.9
10 -7 8 271.97 29.6
-10 7 8 249.08 28
-10 7 8 276.57 30
3 -10 8 207.78 31.9
-7 -3 8 250.97 27.2
-3 10 8 244.28 22.9
3 -10 8 273.87 36.4
8 2 -8 329.97 30.1
2 -10 -8 340.87 30.7
-8 -2 -8 352.56 20.7
10 -8 -8 270.47 39
-8 -2 -8 320.47 20.4
2 -10 -8 324.17 29.9
-10 8 -8 312.47 35.7
10 -8 -8 340.87 43.8
-2 10 -8 355.76 32.2
-8 -2 8 267.17 28.2
10 -8 8 321.77 32.3
2 -10 8 307.37 31.8
2 -10 8 327.87 33.9
-10 8 8 267.27 29.5
-10 8 8 257.87 30.8
-8 -2 8 279.07 26.6
-2 10 8 279.97 23.6
10 -9 -8 387.56 52.79
-1 10 -8 437.56 35.4
1 -10 -8 432.16 33.9
10 -9 -8 402.56 48.3
-9 -1 -8 428.56 25.6
-10 9 -8 391.86 41.8
-9 -1 -8 418.46 26.5
9 1 -8 392.06 33.9
1 -10 -8 411.46 33.4
-10 9 8 392.66 52.19
-9 -1 8 346.67 31
10 -9 8 421.56 40.6
1 -10 8 464.25 38.8
1 -10 8 424.56 36.7
-1 10 8 379.06 26.6
-9 -1 8 343.07 32.9
-10 9 8 390.76 34.6
-10 0 -8 458.05 29.3
10 -10 -8 434.26 48.8
-10 10 -8 475.55 44.8
10 0 -8 428.06 38.7
-10 0 -8 486.85 31.1
0 -10 -8 484.45 35.4
0 -10 -8 468.45 36.6
-10 10 8 359.46 36.2
0 -10 8 517.25 39.7
-10 0 8 451.15 38.6
10 -10 8 423.56 43.6
-10 0 8 428.96 36.4
0 -10 8 452.65 40.6
10 -11 -8 136.19 31.8
11 -1 -8 141.49 22.6
10 -11 -8 134.99 23.3
-10 11 -8 126.09 23.8
-1 -10 -8 207.48 23.1
-1 -10 -8 189.78 23.2
1 10 -8 158.18 25.6
-11 1 -8 205.78 19.5
-11 1 -8 220.38 23.9
10 -11 8 209.88 32
-11 1 8 199.88 25.4
-1 -10 8 242.18 30.3
-11 1 8 225.48 29.2
-1 -10 8 234.68 32.1
-10 11 8 184.58 28.4
2 9 -8 153.78 23.7
-9 11 -8 76.89 30.2
9 -11 -8 155.68 27.9
-11 2 -8 143.49 19
-2 -9 -8 151.28 19.1
11 -2 -8 140.99 22.7
-11 2 -8 146.69 22.6
-9 11 -8 111.19 22.5
-2 -9 -8 172.08 19.6
9 -11 -8 146.09 24.6
-2 -9 8 221.08 29.3
-2 -9 8 200.08 31.3
-11 2 8 182.48 24.6
-9 11 8 163.48 26.3
9 -11 8 205.78 35.6
-11 2 8 189.18 27.5
-11 3 -8 232.58 23.7
11 -3 -8 173.08 26
-11 3 -8 270.17 28
8 -11 -8 229.38 33.2
-3 -8 -8 302.67 22.3
-3 -8 -8 296.37 21.9
3 8 -8 262.97 27.7
8 -11 -8 221.98 31.1
-8 11 -8 281.47 36.3
-3 -8 8 381.66 35.4
-11 3 8 317.57 29.7
8 -11 8 286.67 34.7
-8 11 8 313.77 30.5
-3 -8 8 390.26 33.6
8 -11 8 261.37 38.8
-11 3 8 269.97 31.7
4 7 -8 365.46 33.2
-4 -7 -8 417.46 25.9
-4 -7 -8 408.86 26
-7 11 -8 478.85 42
7 -11 -8 414.76 38.3
-11 4 -8 417.96 35
11 -4 -8 388.46 39.4
-11 4 -8 389.76 30.9
7 -11 -8 364.36 36.1
-11 4 8 404.16 35.5
-7 11 8 405.46 34.1
-4 -7 8 431.46 35.8
-11 4 8 396.56 34.1
7 -11 8 441.56 39.5
7 -11 8 483.85 46.9
-4 -7 8 459.15 38.3
11 -4 8 404.86 31.4
6 -11 -8 154.18 25.1
-5 -6 -8 124.99 13.6
-11 5 -8 129.89 20
-11 5 -8 114.39 17.1
-6 11 -8 103.09 19.4
-5 -6 -8 113.19 12
5 6 -8 119.59 18.1
11 -5 -8 118.39 23.5
6 -11 -8 88.09 20
-5 -6 8 137.09 23.7
11 -5 8 96.89 21.9
-11 5 8 93.69 17.1
6 -11 8 150.98 22.9
-6 11 8 76.09 13.4
-5 -6 8 99.89 17.3
-11 5 8 100.79 17.6
6 -11 8 89.09 20.7
5 -11 -8 148.59 25.9
6 5 -8 107.59 17.8
-11 6 -8 155.28 23.3
5 -11 -8 143.19 21.5
-5 11 -8 122.19 21.3
11 -6 -8 142.89 25.8
-11 6 -8 117.59 20.9
11 -6 8 82.69 16.4
-6 -5 8 86.29 15.8
5 -11 8 122.89 25.2
-11 6 8 91.09 18.7
5 -11 8 101.99 20.7
-11 6 8 77.49 17.3
-6 -5 8 77.79 16.5
-5 11 8 103.29 15.8
4 -11 -8 581.54 42.8
-4 11 -8 486.75 56.69
7 4 -8 595.64 40.3
-11 7 -8 557.34 45.8
-11 7 -8 456.35 41.2
4 -11 -8 611.34 43.9
11 -7 -8 606.14 52.49
-4 11 8 498.85 36.4
-7 -4 8 521.85 39
4 -11 8 588.04 44.1
-11 7 8 446.96 41.6
-11 7 8 491.65 42.1
-7 -4 8 551.14 41.5
4 -11 8 571.54 48.3
11 -7 8 507.55 41.8
11 -8 -8 378.06 47.3
3 -11 -8 471.95 37.4
-11 8 -8 403.76 37.6
-3 11 -8 439.56 37.7
8 3 -8 407.06 34.3
3 -11 -8 428.56 37.1
-11 8 -8 448.76 42.7
-8 -3 8 341.07 33
3 -11 8 353.76 35
-8 -3 8 354.06 31
11 -8 8 294.47 37.4
-3 11 8 314.67 27.3
-11 8 8 338.27 34.3
-11 8 8 317.67 34.4
3 -11 8 412.86 40.3
-2 11 -8 101.69 18.5
-9 -2 -8 87.09 11.8
-11 9 -8 50.49 19.8
2 -11 -8 94.29 18
-11 9 -8 63.59 21.2
-9 -2 -8 105.59 12.1
11 -9 -8 99.89 31
2 -11 -8 96.39 17.2
9 2 -8 83.99 16.5
-11 9 8 83.39 17.7
2 -11 8 69.09 18.2
-11 9 8 122.59 31.4
11 -9 8 67.69 18
-9 -2 8 54.49 13.4
-2 11 8 89.59 13.3
-9 -2 8 65.59 16.1
2 -11 8 87.19 19.5
-11 10 -8 185.58 28.8
-10 -1 -8 163.48 16.9
1 -11 -8 184.38 25.9
-11 10 -8 166.88 28.8
-1 11 -8 146.89 25.8
1 -11 -8 159.08 26.2
-10 -1 -8 180.98 16.1
10 1 -8 153.38 26.9
11 -10 8 124.19 25.9
-10 -1 8 129.69 20.3
-11 10 8 163.48 28.6
-1 11 8 153.78 17.5
1 -11 8 159.48 28.3
-10 -1 8 99.69 17.3
1 -11 8 131.89 21.1
-11 11 -8 174.38 34.1
11 0 -8 200.18 30.3
9 -12 -8 59.79 21.2
-3 -9 -8 52.49 11.6
12 -3 -8 42 19.8
-12 3 -8 80.39 16.1
-12 3 -8 46.6 12.7
9 -12 -8 49.2 18
-3 -9 -8 61.99 11.4
-9 12 -8 41.5 20.5
3 9 -8 81.39 16.5
-9 12 -8 -9.3 29
-3 -9 8 19.1 22
9 -12 8 43.7 24
-12 3 8 42.7 13.4
-12 3 8 48 17.6
-3 -9 8 77.09 22.2
-9 12 8 65.59 16.1
8 -12 -8 205.58 31.8
-12 4 -8 236.88 26.2
8 -12 -8 208.88 34.4
-4 -8 -8 192.58 28.3
4 8 -8 229.38 28.8
-12 4 -8 225.08 29.2
12 -4 -8 255.87 36
-4 -8 -8 191.28 21
-8 12 -8 231.88 37.6
8 -12 8 234.98 41.5
-8 12 8 195.18 27.3
-4 -8 8 181.58 27.6
-12 4 8 201.78 26.6
-4 -8 8 192.78 33.8
-12 4 8 189.48 29.6
7 -12 -8 70.29 20.2
-7 12 -8 82.59 20.2
-12 5 -8 80.89 24.2
-5 -7 -8 105.79 12.9
-12 5 -8 52.59 14.4
-5 -7 -8 87.19 11.8
7 -12 -8 68.29 18
12 -5 -8 60.49 21.7
5 7 -8 83.99 17.5
7 -12 8 73.89 23.6
-5 -7 8 67.59 18.9
12 -5 8 69.39 14.7
-12 5 8 74.99 18.5
-5 -7 8 62.29 16.1
-7 12 8 72.49 15
7 -12 8 52.39 17.6
-12 5 8 66.09 15.8
-6 12 -8 12.6 14.8
-12 6 -8 7.9 12.6
6 6 -8 3.2 12.8
6 -12 -8 5.9 15.7
12 -6 -8 15.8 20
-12 6 -8 17.3 17.4
6 -12 -8 13.3 14.4
-12 6 8 25.1 14
6 -12 8 12.6 14.3
-12 6 8 5 13.5
-6 -6 8 21.4 14.2
6 -12 8 29.1 19.1
-6 -6 8 34.7 16
-12 7 -8 436.66 43.3
12 -7 -8 390.06 54.89
5 -12 -8 420.26 40.1
7 5 -8 471.35 36.3
5 -12 -8 508.15 42
-12 7 -8 418.96 36.9
-5 12 -8 492.95 43
-12 7 8 481.15 42.3
-5 12 8 461.45 37.4
-7 -5 8 547.25 43.3
-7 -5 8 573.84 41.7
5 -12 8 574.04 50.89
12 -7 8 469.55 41.8
5 -12 8 475.65 43.4
-12 7 8 466.05 42.6
4 -12 -8 549.65 43.8
8 4 -8 558.64 40.6
-4 12 -8 527.45 44.5
-12 8 -8 472.65 42.1
12 -8 -8 527.05 56.59
-12 8 -8 552.04 48.8
4 -12 -8 575.14 52.79
-12 8 8 550.94 44.7
-8 -4 8 612.94 62.99
-12 8 8 454.55 43.6
12 -8 8 576.34 47
-8 -4 8 513.05 41.9
-4 12 8 547.55 39.2
4 -12 8 608.84 51.09
4 -12 8 594.74 47.1
3 -12 -8 258.67 31.4
-12 9 -8 265.17 38.6
-12 9 -8 190.18 31
12 -9 -8 219.08 40.5
3 -12 -8 265.37 32.2
-3 12 -8 256.17 32
9 3 -8 206.48 27.6
3 -12 8 224.58 34
-12 9 8 190.78 32.5
-12 9 8 254.97 34.7
-9 -3 8 230.48 28.7
3 -12 8 283.37 38
-9 -3 8 323.47 32.9
12 -9 8 230.68 42.2
-3 12 8 260.97 26.4
0 0 -9 52.29 6.8
0 0 -9 59.59 7.2
0 0 9 60.99 7.7
1 0 -9 128.79 10.9
0 -1 -9 140.59 10
-1 1 -9 126.49 10.7
1 0 -9 148.29 11.4
0 1 -9 140.89 11.6
0 -1 -9 128.99 10
-1 1 -9 131.89 11.1
1 -1 -9 147.69 11.1
-1 0 -9 127.49 9.9
1 -1 -9 149.59 11
-1 0 -9 136.39 10
0 1 -9 139.79 11.1
-1 0 9 153.28 11.7
0 1 9 140.49 10.1
-1 1 9 140.59 11.3
1 0 9 140.59 10.9
0 -1 9 147.29 11.6
0 1 9 165.48 10.7
1 -1 9 131.99 12
1 0 9 154.98 10.2
0 -1 9 150.88 12.2
-1 0 9 140.79 11.6
1 -2 -9 37.8 6.7
-1 -1 -9 37.6 5.2
-1 2 -9 30.4 6.4
2 -1 -9 26.7 5.7
-2 1 -9 32.5 5.3
-1 2 -9 49.1 8.2
1 -2 -9 24.3 5.1
-1 -1 -9 23.5 4.1
1 1 -9 41.8 6.7
-2 1 -9 35 5.5
2 -1 -9 18.7 5
1 1 -9 24.6 5.3
1 -2 9 20.2 4.8
1 1 9 21.4 3.9
-1 -1 9 33.3 5.5
1 -2 9 50.49 8.8
2 -1 9 34.5 6.1
2 -1 9 33.8 5.2
-1 -1 9 35.6 6.2
-1 2 9 42.1 7.1
-2 1 9 29.2 5.5
1 1 9 35.2 4.5
-2 1 9 20.6 5.2
2 -2 -9 385.66 21.7
0 2 -9 340.67 22.6
2 -2 -9 346.67 22
-2 0 -9 349.67 20
2 0 -9 355.66 21.8
0 2 -9 360.46 22.4
-2 2 -9 316.67 22.5
2 0 -9 361.56 22.2
-2 2 -9 353.06 22.9
0 -2 -9 401.06 20.5
0 -2 -9 310.57 21.5
0 -2 9 445.56 27.3
0 2 9 453.55 24.5
-2 0 9 462.45 26.7
-2 2 9 458.95 26.7
2 0 9 445.46 23.8
-2 0 9 472.45 26.7
-2 2 9 464.15 25.7
0 -2 9 448.56 27.1
2 -2 9 424.16 26.7
2 0 9 427.86 24.2
0 2 9 467.45 24.1
-1 -2 -9 590.64 29.4
-3 1 -9 473.55 31.1
1 2 -9 578.84 33.1
1 2 -9 548.35 32.3
2 -3 -9 601.74 31.6
3 -1 -9 593.84 32.3
-3 1 -9 507.15 31.1
2 -3 -9 511.65 31.6
-1 -2 -9 596.04 29.4
-2 3 -9 579.74 33.8
-2 3 -9 563.14 34
-1 -2 9 215.48 16.5
2 -3 9 196.08 16.8
1 2 9 212.08 12.3
-3 1 9 226.98 16.6
3 -1 9 209.18 13.4
1 2 9 239.18 12
-2 3 9 249.78 16.6
-1 -2 9 199.48 16.2
3 -1 9 215.38 13.8
2 -3 9 189.58 16.9
-3 1 9 220.08 16
1 -3 -9 263.77 17
3 -2 -9 263.17 18.8
2 1 -9 271.67 18.5
2 1 -9 256.87 18.6
-2 -1 -9 255.27 14.8
1 -3 -9 283.17 17.4
3 -2 -9 289.47 18.5
-2 -1 -9 290.07 15.1
-3 2 -9 266.47 18.9
-1 3 -9 243.78 19.8
-1 3 -9 270.37 20
-3 2 -9 232.38 18
-2 -1 9 281.37 19.6
3 -2 9 268.37 19.3
-3 2 9 303.17 19.3
3 -2 9 292.07 18.9
1 -3 9 261.67 20.8
1 -3 9 303.07 21.2
-2 -1 9 308.47 20
-3 2 9 314.67 20.3
-1 3 9 317.67 17.6
-1 3 9 299.87 18.6
0 3 -9 2487.05 119.59
3 -3 -9 2343.57 118.59
3 0 -9 2438.76 118.59
-3 0 -9 2188.18 116.09
3 -3 -9 2461.15 118.09
3 0 -9 2502.75 118.29
-3 3 -9 2289.77 119.79
0 -3 -9 2369.36 116.09
-3 3 -9 2128.59 119.19
-3 0 -9 2047.9 115.69
0 3 -9 2190.88 118.89
0 -3 -9 2540.75 116.39
-3 0 9 2498.05 123.49
-3 0 9 2359.26 123.19
0 -3 9 2258.97 124.29
3 0 9 2580.34 119.49
-3 3 9 2548.65 124.19
0 3 9 2525.85 120.59
-3 3 9 2447.85 122.49
3 0 9 2561.24 119.49
3 -3 9 2299.97 123.59
0 3 9 2350.06 122.29
0 -3 9 2371.36 124.59
-4 1 -9 2662.53 141.29
4 -1 -9 2879.71 143.49
1 3 -9 2848.22 143.89
-4 1 -9 2748.82 141.79
-1 -3 -9 2985.1 140.09
-3 4 -9 2802.02 145.39
-1 -3 -9 2804.22 139.89
4 -1 -9 2962.3 142.89
3 -4 -9 2704.23 142.89
1 3 -9 2872.01 143.89
3 -4 -9 2963.9 142.99
-3 4 -9 2768.82 145.19
4 -1 9 2845.62 132.69
-1 -3 9 2655.13 136.59
3 -4 9 2510.95 138.89
-1 -3 9 2684.03 137.09
-4 1 9 2797.42 136.49
-4 1 9 2651.83 135.79
-3 4 9 2720.33 138.09
3 -4 9 2642.14 137.19
-3 4 9 2705.43 134.79
4 -1 9 2682.83 133.19
2 -4 -9 703.63 38
-4 2 -9 642.94 38.4
2 2 -9 698.73 39.2
-2 -2 -9 700.33 34.3
4 -2 -9 717.33 38.6
2 -4 -9 647.54 37.9
2 2 -9 705.23 38.9
-2 4 -9 682.93 40.8
-2 4 -9 702.83 41.1
4 -2 -9 618.44 38.8
-4 2 -9 675.93 38.3
-2 -2 -9 657.63 34.3
-4 2 9 701.73 37.3
2 -4 9 618.94 39.7
-2 4 9 730.43 37.8
-2 -2 9 673.23 37.6
-2 4 9 586.74 37.5
-4 2 9 707.33 38.3
4 -2 9 647.74 35
2 -4 9 625.74 38.7
-2 -2 9 648.34 37.6
4 -2 9 601.14 36.7
-3 -1 -9 533.75 28.2
1 -4 -9 555.84 31.1
-4 3 -9 545.75 33.6
-1 4 -9 596.14 34.9
-3 -1 -9 514.15 27.6
1 -4 -9 551.94 31
4 -3 -9 524.15 32.9
4 -3 -9 569.94 32.3
3 1 -9 552.84 32.8
-4 3 -9 498.85 32.9
-1 4 -9 561.04 34.7
3 1 -9 550.24 32.3
-1 4 9 467.05 25.3
-3 -1 9 443.06 27.8
-4 3 9 467.65 29
-4 3 9 453.15 27.3
-3 -1 9 477.75 28
4 -3 9 382.66 30.5
1 -4 9 441.86 30
4 -3 9 455.45 26.9
1 -4 9 452.45 29.5
-1 4 9 445.76 26.5
4 0 -9 3391.76 162.98
-4 4 -9 3154.68 164.98
-4 0 -9 2994.2 160.18
0 -4 -9 3312.27 161.08
4 -4 -9 3353.36 163.18
-4 0 -9 3395.86 160.08
-4 4 -9 3139.69 164.98
4 0 -9 3290.17 163.48
0 4 -9 3331.97 165.28
0 -4 -9 3171.28 160.88
0 4 -9 3261.77 164.58
4 -4 -9 3089.39 163.38
0 -4 9 3466.55 166.08
-4 4 9 3271.67 163.58
-4 0 9 3205.48 164.08
4 -4 9 2960.7 167.08
4 -4 9 3268.17 164.68
0 4 9 3350.36 161.58
0 -4 9 3012.1 165.88
-4 4 9 3413.96 166.58
-4 0 9 3409.16 164.58
0 4 9 3310.87 161.18
5 -1 -9 4190.28 209.08
4 -5 -9 4147.79 209.38
1 4 -9 3979.5 209.48
-1 -4 -9 4309.57 205.88
-4 5 -9 4067.39 211.08
4 -5 -9 4456.25 209.18
5 -1 -9 4055.89 208.88
-1 -4 -9 4235.58 205.48
-4 5 -9 4172.28 211.78
-5 1 -9 4053.19 206.78
-5 1 9 4273.67 213.58
4 -5 9 4274.17 214.68
-5 1 9 4151.78 213.08
-1 -4 9 4360.26 214.88
-4 5 9 4187.28 214.78
-1 -4 9 4061.49 214.68
4 -5 9 4090.19 217.68
5 -1 9 4670.93 208.98
-4 5 9 4221.28 212.28
5 -1 9 4347.37 209.58
5 -2 -9 4407.06 212.28
5 -2 -9 4019.2 212.78
3 -5 -9 4209.48 213.48
3 -5 -9 4273.27 212.78
2 3 -9 4436.96 213.48
-2 -3 -9 4062.79 208.18
-5 2 -9 4125.79 211.98
-5 2 -9 4267.47 211.68
-3 5 -9 4054.69 215.88
2 3 -9 4354.06 219.48
-2 -3 -9 4321.07 208.38
-3 5 -9 4499.75 215.78
-5 2 9 4479.55 210.58
-2 -3 9 4252.87 210.18
-2 -3 9 4195.58 210.48
3 -5 9 4343.47 214.28
5 -2 9 4441.86 206.78
3 -5 9 4040.7 211.38
-3 5 9 4124.49 210.58
-5 2 9 4079.49 209.28
5 -2 9 3809.82 208.78
3 2 -9 97.69 17.1
-5 3 -9 117.29 14.5
5 -3 -9 137.69 14.4
3 2 -9 119.39 15
5 -3 -9 109.39 15.1
-2 5 -9 165.58 17.6
-5 3 -9 118.99 13.9
2 -5 -9 122.19 14.4
-2 5 -9 162.28 17.5
2 -5 -9 127.19 13.6
-3 -2 9 186.38 16.3
2 -5 9 178.18 19.5
2 -5 9 157.88 17.8
-5 3 9 177.58 16.1
-5 3 9 208.48 17.9
-3 -2 9 162.98 16.2
5 -3 9 156.08 16.8
5 -3 9 178.58 13.5
-2 5 9 178.68 13.8
-2 5 9 170.38 16.2
1 -5 -9 740.03 40.7
-5 4 -9 688.53 43.4
5 -4 -9 604.44 46.8
-1 5 -9 800.02 45.1
4 1 -9 750.62 41.9
-5 4 -9 719.63 43.6
1 -5 -9 746.03 41
-4 -1 -9 659.53 36.5
-1 5 -9 815.52 45.2
5 -4 -9 763.52 42.2
4 1 -9 741.63 42.5
-5 4 9 701.93 40.4
-4 -1 9 646.44 38.1
5 -4 9 581.54 40.9
1 -5 9 657.53 41.5
-5 4 9 674.13 38
1 -5 9 682.73 40.3
-1 5 9 631.34 36.7
5 -4 9 663.53 37.3
-4 -1 9 605.94 38.1
-1 5 9 660.23 35.5
0 5 -9 2184.38 111.09
-5 0 -9 2016.4 105.79
5 0 -9 2101.79 109.59
-5 5 -9 2135.49 112.39
5 -5 -9 1967.1 110.29
0 -5 -9 2075.49 107.39
5 -5 -9 2218.98 109.79
0 -5 -9 2030.3 106.89
-5 5 -9 2101.59 111.79
5 0 -9 2144.69 108.69
0 5 -9 2295.27 112.19
0 5 9 2232.18 109.79
0 -5 9 2243.48 116.39
5 -5 9 2187.78 113.59
-5 0 9 2167.68 113.29
-5 0 9 2296.27 113.79
-5 5 9 2180.88 112.79
0 5 9 2203.18 110.39
5 -5 9 2088.99 117.79
-5 5 9 2217.88 115.59
0 -5 9 2210.18 114.99
1 5 -9 480.75 33.8
5 -6 -9 441.06 33.5
-1 -5 -9 470.95 27.8
-5 6 -9 467.35 35.2
-5 6 -9 493.35 35.9
5 -6 -9 494.65 32.6
6 -1 -9 474.35 30.8
6 -1 -9 465.55 32.4
-1 -5 -9 499.65 28.1
1 5 -9 500.05 33.6
-6 1 -9 493.85 29
-6 1 9 451.55 31.3
-1 -5 9 459.65 33.9
-5 6 9 471.35 30.5
-5 6 9 441.16 33.3
5 -6 9 506.45 33.3
5 -6 9 469.15 36.9
-6 1 9 471.65 31.7
6 -1 9 509.65 24.8
-1 -5 9 513.45 33.4
6 -1 9 501.65 25.4
4 -6 -9 3302.37 170.88
2 4 -9 3464.85 171.38
2 4 -9 3307.47 170.78
6 -2 -9 3484.45 169.48
-4 6 -9 3380.76 173.78
-6 2 -9 3320.17 168.98
-2 -4 -9 3328.67 165.38
6 -2 -9 3217.68 170.48
-4 6 -9 3311.77 172.88
4 -6 -9 3429.56 170.48
-2 -4 -9 3375.36 165.38
6 -2 9 2946.61 163.18
4 -6 9 3416.36 167.38
6 -2 9 3473.35 160.88
-4 6 9 3372.26 166.78
4 -6 9 3171.18 170.18
-4 6 9 3193.58 163.48
-2 -4 9 3272.27 165.68
-2 -4 9 3251.47 166.18
-6 2 9 3161.38 164.38
-6 2 9 3301.77 165.38
3 -6 -9 1270.17 70.49
6 -3 -9 1300.07 72.89
6 -3 -9 1244.98 71.59
-3 6 -9 1232.88 78.79
3 3 -9 1300.27 71.19
3 3 -9 1303.67 70.99
3 -6 -9 1318.97 71.29
-3 6 -9 1513.15 75.49
-6 3 -9 1327.07 70.99
-3 -3 9 1225.28 65.59
-3 6 9 1168.68 65.69
6 -3 9 1274.17 61.99
-6 3 9 1146.69 64.59
6 -3 9 1079.19 65.49
3 -6 9 1166.88 67.29
-3 -3 9 1172.48 64.79
3 -6 9 1371.66 71.09
-6 3 9 1269.37 66.19
-3 6 9 1072.99 63.89
2 -6 -9 69.29 12.4
-2 6 -9 105.69 17.4
4 2 -9 68.39 11.2
-2 6 -9 74.69 13.5
6 -4 -9 62.59 12
-6 4 -9 77.09 12.2
4 2 -9 82.19 13.4
2 -6 -9 85.19 15.1
6 -4 -9 87.69 14.1
-2 6 9 56.29 10.2
2 -6 9 90.19 16.1
-4 -2 9 91.19 12
6 -4 9 55.79 10.7
6 -4 9 68.79 11
2 -6 9 69.49 11.7
-6 4 9 60.49 11.8
-2 6 9 67.29 10.5
-6 4 9 69.89 11
-4 -2 9 61.29 9.9
5 1 -9 295.07 24.5
-1 6 -9 352.36 27.2
1 -6 -9 318.67 22.5
5 1 -9 327.87 23.6
-5 -1 -9 286.07 17.4
1 -6 -9 317.47 24
-6 5 -9 348.27 26.8
-1 6 -9 385.06 28.1
-6 5 -9 293.57 26.3
6 -5 -9 309.77 24.3
6 -5 -9 322.17 27
6 -5 9 360.16 23.6
-6 5 9 315.47 26.7
1 -6 9 336.87 28.5
-1 6 9 310.97 20.7
-6 5 9 336.17 24.2
-5 -1 9 338.07 24.7
-1 6 9 302.37 22.3
-5 -1 9 314.87 24.1
1 -6 9 349.67 26.8
6 -6 -9 80.79 15
0 -6 -9 96.79 12.7
6 0 -9 95.19 16.2
6 -6 -9 68.79 12.6
-6 6 -9 76.39 14.3
-6 6 -9 67.99 12.8
-6 0 -9 80.79 10.1
0 6 -9 99.49 14.6
0 -6 -9 77.09 12.2
0 6 -9 102.49 17.6
6 0 -9 55.39 9.5
-6 0 -9 85.89 9.6
6 -6 9 74.59 14.7
-6 6 9 92.69 14.6
0 6 9 93.19 9.4
-6 6 9 53.89 9.5
0 -6 9 61.59 13.1
-6 0 9 72.49 11.9
6 -6 9 65.19 10.6
0 6 9 78.49 10.3
0 -6 9 72.69 13.1
-6 0 9 68.29 11.3
-1 -6 -9 1274.97 70.89
7 -1 -9 1170.88 70.49
-6 7 -9 1226.98 73.79
-1 -6 -9 1236.08 66.39
-7 1 -9 1305.77 67.39
1 6 -9 1328.07 71.99
7 -1 -9 1221.18 68.79
-6 7 -9 1329.37 75.69
6 -7 -9 1212.08 73.09
-7 1 -9 1177.38 69.99
1 6 -9 1458.55 73.89
6 -7 -9 1303.27 71.69
-6 7 9 1296.57 71.79
-7 1 9 1305.07 72.39
-6 7 9 1359.46 75.89
6 -7 9 1340.37 79.09
-1 -6 9 1417.56 74.49
-1 -6 9 1398.66 75.99
-7 1 9 1260.87 72.09
6 -7 9 1225.18 73.39
2 5 -9 135.99 20.3
-2 -5 -9 158.18 12.3
-2 -5 -9 129.29 11.9
2 5 -9 150.38 20.1
-7 2 -9 134.99 15.5
7 -2 -9 130.79 17.4
-7 2 -9 132.89 16
5 -7 -9 142.19 19.2
-5 7 -9 121.19 21.5
5 -7 -9 133.19 23.1
7 -2 -9 138.99 19.5
-5 7 -9 161.28 22.4
7 -2 9 131.19 13.8
-7 2 9 141.49 17.7
-5 7 9 118.49 20.1
7 -2 9 137.79 10.6
-2 -5 9 133.39 19.9
-2 -5 9 133.09 20.3
-7 2 9 129.89 18
5 -7 9 130.49 20
-5 7 9 110.09 16
5 -7 9 124.09 20.1
3 4 -9 47.1 11.3
7 -3 -9 40.4 9.6
-7 3 -9 39.1 12.2
3 4 -9 41 10
7 -3 -9 53.09 12.4
4 -7 -9 50.29 13.8
-7 3 -9 51.39 9.9
-4 7 -9 56.09 13.9
-3 -4 -9 40.5 5.8
-4 7 -9 61.99 14.4
4 -7 -9 38.1 9.5
7 -3 9 31.2 6.1
-7 3 9 37.5 9.8
7 -3 9 25.5 8.3
-3 -4 9 18.9 10.4
-3 -4 9 37.6 10.2
4 -7 9 32.9 11.3
-7 3 9 29.4 10.1
-4 7 9 28.4 10.8
4 -7 9 32 10.1
4 3 -9 30 10
-3 7 -9 17 15.7
7 -4 -9 21.4 9
3 -7 -9 15.9 11.6
-7 4 -9 23.5 9
4 3 -9 23.5 8.6
-7 4 -9 19.4 13.3
-3 7 -9 28.1 10.7
7 -4 -9 18.1 9.7
3 -7 -9 18.9 8.3
-4 -3 9 28.9 9.4
7 -4 9 19.9 6.5
-3 7 9 24.1 7.1
7 -4 9 26.5 9.2
-7 4 9 33.6 9.4
-7 4 9 31.6 10.8
3 -7 9 17 10.6
-3 7 9 23.2 9.7
-4 -3 9 19.9 8.6
3 -7 9 38.2 17.5
5 2 -9 216.48 22.4
-7 5 -9 252.87 24.3
-2 7 -9 290.67 25.4
7 -5 -9 261.47 22.7
5 2 -9 236.58 21.5
2 -7 -9 253.57 21.5
-2 7 -9 278.87 26.8
7 -5 -9 270.77 26.3
7 -5 9 240.98 23.9
-2 7 9 221.68 20.6
-7 5 9 234.58 21.9
2 -7 9 285.47 27.5
-5 -2 9 223.38 21
2 -7 9 268.67 24.3
-7 5 9 222.58 23.7
7 -5 9 247.68 19.2
-5 -2 9 216.08 21.4
-2 7 9 242.38 18.6
-7 6 -9 57.39 18.1
7 -6 -9 85.29 15.4
-1 7 -9 89.29 16.2
7 -6 -9 86.69 16.7
6 1 -9 66.29 11.4
1 -7 -9 66.59 10.8
-6 -1 -9 70.39 8.1
-1 7 -9 76.59 13.8
-6 -1 -9 83.19 7.8
1 -7 -9 62.29 10.5
-7 6 -9 64.19 13.8
6 1 -9 76.29 13.3
-7 6 9 63.29 14.8
1 -7 9 75.89 15.7
7 -6 9 90.49 15.9
-7 6 9 64.99 11.7
1 -7 9 50.19 11.8
-1 7 9 59.39 8.5
-6 -1 9 53.09 10
-1 7 9 60.39 10
7 -6 9 73.79 11.4
-6 -1 9 38.1 10
7 -7 -9 1510.45 92.79
0 -7 -9 1666.73 87.29
7 0 -9 1518.05 89.69
7 0 -9 1604.54 88.29
-7 7 -9 1626.54 93.39
0 -7 -9 1692.23 87.49
0 7 -9 1916.51 94.29
-7 0 -9 1674.13 85.19
-7 0 -9 1755.22 83.99
0 7 -9 1678.93 91.19
7 -7 -9 1654.43 90.99
0 -7 9 1848.32 93.49
0 7 9 1453.75 84.19
-7 7 9 1582.64 91.49
-7 0 9 1667.53 88.39
7 -7 9 1673.33 88.79
0 -7 9 1753.12 90.89
-7 7 9 1577.64 87.99
0 7 9 1671.83 83.99
-7 0 9 1597.54 88.09
7 -7 9 1690.23 94.69
-1 -7 -9 2555.34 130.99
8 -1 -9 2397.26 135.09
7 -8 -9 2413.76 138.99
1 7 -9 2650.53 135.79
8 -1 -9 2462.05 132.69
-8 1 -9 2605.34 131.29
-8 1 -9 2698.43 129.79
7 -8 -9 2434.96 135.69
-7 8 -9 2500.65 138.69
1 7 -9 2892.11 138.59
-1 -7 -9 2731.53 131.39
-8 1 9 2238.18 122.79
-1 -7 9 2580.74 125.59
-8 1 9 2211.68 122.69
-7 8 9 2209.18 122.49
-7 8 9 2308.47 126.99
-1 -7 9 2635.04 127.59
7 -8 9 2292.97 124.39
7 -8 9 2387.66 130.59
-2 -6 -9 1747.83 85.09
-8 2 -9 1688.23 86.29
-8 2 -9 1503.05 93.69
-6 8 -9 1760.72 96.29
2 6 -9 1730.53 105.99
-2 -6 -9 1717.53 85.49
-6 8 -9 1734.53 94.59
8 -2 -9 1614.84 90.79
6 -8 -9 1599.34 94.09
8 -2 -9 1525.65 87.79
2 6 -9 1663.03 90.79
6 -8 -9 1600.84 90.89
-8 2 9 1530.35 86.19
-2 -6 9 1686.93 89.59
6 -8 9 1711.43 89.39
-6 8 9 1443.66 85.09
6 -8 9 1642.84 94.39
-6 8 9 1664.63 90.19
8 -2 9 1525.95 82.49
8 -2 9 1625.74 80.09
-8 2 9 1530.35 86.29
-2 -6 9 1654.53 88.19
-3 -5 -9 514.25 26.6
5 -8 -9 451.25 34
-5 8 -9 485.05 39.3
8 -3 -9 497.25 36
-8 3 -9 457.65 31.7
-5 8 -9 479.05 38
3 5 -9 452.95 34.1
8 -3 -9 453.35 32.3
3 5 -9 493.35 35.5
-8 3 -9 502.95 33.3
-3 -5 -9 470.05 26.3
5 -8 -9 428.46 37.4
-3 -5 9 437.36 33.6
8 -3 9 428.36 30.3
-8 3 9 425.86 32.2
-5 8 9 404.66 29.9
5 -8 9 486.05 35.7
-5 8 9 440.96 34.3
-8 3 9 469.75 32.2
8 -3 9 448.16 26.1
-3 -5 9 487.05 33.6
-4 8 -9 37.3 11.8
4 -8 -9 59.39 15.7
4 -8 -9 41.3 11.4
8 -4 -9 41.6 10.3
4 4 -9 33.8 10
-8 4 -9 41.8 13.3
-4 8 -9 51.19 15.3
-8 4 -9 56.59 11.7
4 4 -9 99.29 16.4
8 -4 -9 25.2 12.9
-4 8 9 15.3 7.5
4 -8 9 18 11.6
8 -4 9 22.4 8.9
4 -8 9 34.8 12.6
-4 8 9 55.29 14.9
-4 -4 9 20 9.3
-8 4 9 20.5 10.2
-8 4 9 17.3 10.7
-4 -4 9 22.1 10.6
-3 8 -9 492.35 36.7
3 -8 -9 443.96 31.2
8 -5 -9 341.87 42.2
-3 8 -9 442.16 35.4
8 -5 -9 389.56 30
5 3 -9 353.06 32.8
3 -8 -9 386.56 30.1
-8 5 -9 413.56 32.6
-8 5 9 334.17 28.7
-3 8 9 363.76 26.1
8 -5 9 392.36 30.8
-5 -3 9 341.67 28.2
-5 -3 9 343.67 28.8
-3 8 9 408.06 29.4
3 -8 9 424.56 35.5
3 -8 9 382.06 33.1
-8 5 9 391.96 32.4
8 -5 9 390.26 25.6
2 -8 -9 2.7 9.3
6 2 -9 9.1 7.7
-8 6 -9 -4.9 9.3
6 2 -9 -7.6 4.1
-2 8 -9 9 10.7
8 -6 -9 22 9.5
2 -8 -9 2 8.1
-2 8 -9 13.3 11.1
8 -6 -9 0.9 12.1
-8 6 -9 16 16.1
8 -6 9 22.5 8.5
-6 -2 9 6.1 10.1
-8 6 9 20.8 10
8 -6 9 17.9 11
2 -8 9 24.8 14
-8 6 9 25.6 12
-2 8 9 15.6 7.1
-6 -2 9 9.9 9
2 -8 9 10.6 11.2
1 -8 -9 75.99 12.3
-8 7 -9 78.69 16
7 1 -9 45.5 10.8
-1 8 -9 86.69 15.6
8 -7 -9 66.79 13
-7 -1 -9 78.39 9.1
8 -7 -9 91.49 19.2
-1 8 -9 74.39 15.2
1 -8 -9 70.69 12.3
-8 7 -9 30.3 20.9
-7 -1 -9 76.39 9.5
-7 -1 9 67.99 13.2
-8 7 9 64.69 12
8 -7 9 115.29 19
1 -8 9 119.39 17.2
-1 8 9 86.69 12.5
-8 7 9 124.49 19.3
1 -8 9 94.89 16.4
8 -7 9 78.09 12.6
-1 8 9 43.1 11.4
-7 -1 9 99.99 17.6
8 0 -9 791.42 51.59
8 -8 -9 848.92 55.19
-8 8 -9 829.72 57.79
0 -8 -9 940.81 51.09
-8 0 -9 875.91 47.8
0 8 -9 1010.4 58.59
0 -8 -9 875.71 50.59
8 -8 -9 759.72 58.49
0 8 -9 883.01 54.79
-8 0 -9 920.51 46.8
0 -8 9 973.3 56.09
-8 8 9 740.03 49.6
-8 8 9 819.92 54.19
8 -8 9 869.81 57.29
-8 0 9 788.62 49.1
0 8 9 812.32 43.9
0 -8 9 898.01 52.99
8 -8 9 786.42 49.99
-8 0 9 624.74 59.09
8 -9 -9 583.04 51.09
-9 1 -9 626.34 34.9
-1 -8 -9 594.44 37.4
1 8 -9 620.64 42.1
-1 -8 -9 604.14 37
8 -9 -9 525.95 42.7
-8 9 -9 597.54 46.9
9 -1 -9 568.24 41.2
-9 1 -9 585.74 36.6
-9 1 9 453.05 35.5
8 -9 9 553.84 44.6
-1 -8 9 488.05 37.5
8 -9 9 486.65 37.1
-8 9 9 474.95 40
-1 -8 9 492.15 39.8
-9 1 9 470.55 34.9
-8 9 9 445.26 36
7 -9 -9 1795.82 99.79
9 -2 -9 1555.04 89.99
-9 2 -9 1768.62 88.19
-2 -7 -9 1747.63 87.49
7 -9 -9 1526.45 93.39
2 7 -9 1716.73 92.89
-7 9 -9 1770.82 98.49
9 -2 -9 1539.95 93.39
-2 -7 -9 1706.53 87.69
-9 2 -9 1721.33 90.19
7 -9 9 1562.74 92.09
-7 9 9 1547.45 89.59
9 -2 9 1556.24 79.19
-2 -7 9 1767.92 91.69
-9 2 9 1471.95 85.69
-2 -7 9 1635.94 87.39
-9 2 9 1442.86 84.59
7 -9 9 1678.53 94.69
-7 9 9 1357.06 83.89
6 -9 -9 656.93 49
6 -9 -9 624.84 45.1
-3 -6 -9 691.03 36.8
-9 3 -9 663.73 43
-9 3 -9 658.43 40.6
9 -3 -9 649.74 46.4
3 6 -9 719.63 45.8
9 -3 -9 639.54 42
-6 9 -9 645.94 48.3
-3 -6 -9 680.53 36.7
-6 9 9 706.63 47.3
6 -9 9 741.63 47.6
-3 -6 9 696.43 54.69
-6 9 9 623.94 41.9
6 -9 9 665.93 51.89
-9 3 9 666.63 43.4
-9 3 9 643.64 43.3
9 -3 9 595.04 40.3
-3 -6 9 703.03 45.1
9 -4 -9 90.29 17.4
5 -9 -9 81.29 15.3
-5 9 -9 135.69 22
-4 -5 -9 90.59 8
-9 4 -9 87.79 14.5
-5 9 -9 67.79 15.6
9 -4 -9 84.69 18.4
4 5 -9 74.09 15.3
-9 4 -9 102.39 16
5 -9 -9 93.89 15.4
-4 -5 9 51.29 13.9
-5 9 9 111.29 17.7
-4 -5 9 58.09 12.8
-9 4 9 70.79 13.9
-9 4 9 74.39 14.8
5 -9 9 95.49 20.6
5 -9 9 82.89 16.3
9 -4 9 94.49 14.1
-4 9 -9 34.4 13.7
5 4 -9 1.1 13.6
9 -5 -9 16.4 9.4
4 -9 -9 18.1 10.9
-4 9 -9 19.1 13.9
9 -5 -9 16 13.1
-9 5 -9 15.5 12.7
5 4 -9 20.4 10.5
-9 5 -9 15.3 10.7
4 -9 -9 21.7 10.2
-5 -4 9 18.6 14.3
-4 9 9 27.5 9
-4 9 9 38.4 15.1
9 -5 9 10.8 9.5
-9 5 9 19.6 10.8
4 -9 9 22.7 15.7
-9 5 9 13.8 18.4
-5 -4 9 12.5 10.4
4 -9 9 18.2 13.2
3 -9 -9 85.19 14.7
3 -9 -9 66.89 13.7
9 -6 -9 72.09 12.7
-3 9 -9 68.29 14.4
6 3 -9 54.09 13
9 -6 -9 95.39 17.7
-9 6 -9 77.39 15.6
6 3 -9 90.79 19.5
-9 6 -9 67.29 19.7
-3 9 -9 92.19 19.7
3 -9 9 85.09 18.1
-6 -3 9 61.29 12.9
-6 -3 9 88.59 14.4
-9 6 9 60.19 15.1
-9 6 9 77.59 15
9 -6 9 80.69 15.2
3 -9 9 85.99 15.4
-3 9 9 61.29 11
-2 9 -9 35.8 16
9 -7 -9 36.3 11.9
-9 7 -9 34 18.2
2 -9 -9 32.8 11.3
2 -9 -9 30.7 11.3
7 2 -9 15.9 11.5
-2 9 -9 20.1 12.7
9 -7 -9 47.2 17.6
-9 7 -9 35.4 15.1
-9 7 9 33.9 14.6
2 -9 9 43.5 14.8
-7 -2 9 40.2 10.7
2 -9 9 29 12.8
-7 -2 9 18.6 11.8
-9 7 9 14.6 10.6
-2 9 9 36.4 9
-1 9 -9 13.7 11.5
9 -8 -9 -7.7 17.6
-9 8 -9 2.3 14.2
-9 8 -9 -8 20.2
8 1 -9 4.7 11.1
-1 9 -9 -3.5 12.5
1 -9 -9 -0.4 9.1
1 -9 -9 -5.9 8.5
-8 -1 -9 2.1 5.4
-8 -1 -9 10.6 5.5
9 -8 -9 8.6 10.3
-9 8 9 -5.9 11.8
1 -9 9 1.6 11.7
-9 8 9 1.7 11.2
-1 9 9 13.1 7.4
1 -9 9 -9.5 11.8
-8 -1 9 -5.3 10.8
-8 -1 9 10.6 9.5
9 -8 9 -5.8 10.4
-9 0 -9 13.4 7.6
0 -9 -9 13.7 9.7
-9 9 -9 42.4 24.4
9 -9 -9 5.9 12.4
-9 0 -9 10.3 7
0 -9 -9 12.5 10.1
0 9 -9 -3.1 11.3
9 0 -9 11.1 12.2
-9 9 -9 25.2 15.5
9 -9 -9 17.8 22
-9 0 9 -0.1 11.3
-9 9 9 4.5 12.8
0 -9 9 10.9 14.6
0 9 9 0.3 5.5
9 -9 9 8 12.6
0 -9 9 15 12.6
-9 9 9 4.9 12
-9 0 9 3 10.1
-10 1 -9 58.29 10.1
9 -10 -9 11 14.6
1 9 -9 27.5 10
-9 10 -9 46.7 27.7
-1 -9 -9 47.9 11.4
-1 -9 -9 55.59 12.4
10 -1 -9 32.2 14.6
-10 1 -9 58.19 11.7
-9 10 -9 63.39 18.5
9 -10 9 52.89 20.5
-1 -9 9 57.49 17.8
-10 1 9 27.8 12.4
-10 1 9 37.7 14.8
-9 10 9 41.5 12.4
-1 -9 9 73.09 17.3
10 -2 -9 323.87 32.4
-8 10 -9 304.97 37.4
-2 -8 -9 343.17 24.1
-10 2 -9 323.57 27.2
-2 -8 -9 325.27 24.4
8 -10 -9 247.48 31
-10 2 -9 330.27 24.5
-8 10 9 238.58 26.9
-10 2 9 281.07 28.4
8 -10 9 269.47 31.7
-2 -8 9 275.67 32.7
-10 2 9 243.88 26.2
8 -10 9 282.37 36.4
-2 -8 9 303.27 30.3
7 -10 -9 173.48 29
7 -10 -9 213.08 28.2
-10 3 -9 251.57 25.3
-3 -7 -9 228.68 18.3
-7 10 -9 241.78 33.2
-10 3 -9 176.98 25
3 7 -9 217.48 25.8
-3 -7 -9 231.58 17.9
10 -3 -9 221.68 29
-10 3 9 223.58 24.7
-7 10 9 200.08 24.2
10 -3 9 204.08 19.7
-3 -7 9 228.28 29.6
7 -10 9 272.47 28.9
7 -10 9 258.47 36.7
-10 3 9 204.08 26.4
-3 -7 9 252.17 27.4
-4 -6 -9 16.3 5.5
10 -4 -9 7.2 13.2
-6 10 -9 21.8 16.1
6 -10 -9 31.3 13.9
-4 -6 -9 7.8 5.5
-10 4 -9 13 11.1
6 -10 -9 13.5 12.7
-10 4 -9 2.2 10.2
4 6 -9 13 11.6
10 -4 9 15.7 9.2
-10 4 9 18.9 11.8
-10 4 9 -9.2 17.8
-4 -6 9 15.3 13.3
-6 10 9 15.8 10.3
6 -10 9 3.7 14.9
6 -10 9 -3.1 12.8
-4 -6 9 17.4 12.3
5 -10 -9 260.77 30.2
-5 10 -9 340.27 35
-10 5 -9 294.97 30.8
5 5 -9 326.97 29.7
-5 10 -9 373.76 37.4
10 -5 -9 294.77 33.7
10 -5 -9 286.57 27.8
5 -10 -9 316.77 30.3
-10 5 -9 291.67 27.7
-5 -5 9 359.46 31.9
10 -5 9 307.17 28.2
-5 10 9 275.07 26.2
5 -10 9 352.96 38.3
-5 -5 9 285.47 29.1
5 -10 9 311.77 32.7
-10 5 9 304.87 39.9
-10 5 9 302.77 29.5
6 4 -9 248.78 26.9
-10 6 -9 271.17 30.6
10 -6 -9 254.27 25.9
4 -10 -9 236.58 26.6
10 -6 -9 207.08 32.9
-4 10 -9 235.98 29.7
4 -10 -9 235.88 28.1
-10 6 -9 226.08 27.2
-4 10 -9 317.37 34.2
-4 10 9 261.87 23.5
4 -10 9 262.27 34.3
-6 -4 9 256.67 28.4
-10 6 9 250.97 29.3
-10 6 9 222.18 27.5
10 -6 9 222.38 26.8
-6 -4 9 224.48 26
4 -10 9 250.77 30
3 -10 -9 76.59 15
10 -7 -9 45.5 19.8
3 -10 -9 88.59 15.9
10 -7 -9 78.49 16.3
-3 10 -9 85.29 17.2
-10 7 -9 81.89 18.8
-3 10 -9 59.99 16
-10 7 -9 39.8 16.7
7 3 -9 82.89 15.8
-7 -3 9 68.69 15.9
-10 7 9 33 13.3
-7 -3 9 56.49 14.4
-10 7 9 35.2 14.9
3 -10 9 62.29 16.5
3 -10 9 45.4 16.3
-3 10 9 43.5 10.5
10 -7 9 50.59 14.3
2 -10 -9 317.67 30.1
-2 10 -9 329.07 32.3
10 -8 -9 341.87 42.4
2 -10 -9 368.26 30.5
10 -8 -9 280.17 39.5
-10 8 -9 311.87 37.3
8 2 -9 338.77 30.6
2 -10 9 251.97 31.4
-8 -2 9 300.27 29.5
-10 8 9 255.57 30.8
-2 10 9 272.17 30.8
2 -10 9 303.77 34.1
-8 -2 9 264.47 26.6
-10 8 9 278.37 29.8
-10 9 -9 621.74 50.49
-1 10 -9 602.64 44.4
10 -9 -9 512.45 55.69
1 -10 -9 620.84 41.9
-9 -1 -9 615.54 34.6
1 -10 -9 629.04 42.1
-9 -1 -9 642.04 34.1
9 1 -9 573.94 43.4
10 -9 -9 607.14 55.39
-10 9 9 561.24 46.6
10 -9 9 622.24 50.39
1 -10 9 673.13 48.8
-10 9 9 565.44 44.1
-1 10 9 587.04 36.3
1 -10 9 686.13 47.3
-9 -1 9 615.24 43.9
-9 -1 9 606.44 41.8
-10 10 -9 101.69 21
-10 10 -9 88.09 26.6
-10 0 -9 110.99 14.3
0 -10 -9 117.29 20.4
-10 0 -9 117.29 15.6
10 -10 -9 107.79 22
10 0 -9 71.89 17.1
0 -10 -9 105.39 16.6
0 10 -9 72.59 15.7
10 -10 9 100.39 21.8
0 -10 9 68.39 18.6
-10 10 9 62.39 16.4
0 -10 9 98.49 17.6
-10 0 9 73.69 14.4
-10 0 9 60.69 15.3
0 10 9 101.29 12
-11 1 -9 3.3 9.9
10 -11 -9 -4.4 17
-1 -10 -9 18 11.3
11 -1 -9 8.8 14.2
-1 -10 -9 13.5 10.5
10 -11 -9 11 16.2
-11 1 -9 18.8 9.2
-10 11 -9 28.9 19.5
-10 11 -9 18.4 26.9
1 10 -9 31.8 14.4
-11 1 9 18.5 12.4
10 -11 9 12.7 19.5
-1 -10 9 47.3 17.3
-1 -10 9 13.9 16.9
-11 1 9 16.1 14.2
-10 11 9 4.2 12.6
2 9 -9 35.2 13
-2 -9 -9 20.9 9.9
-11 2 -9 36.4 12.6
-11 2 -9 26.9 10.3
-2 -9 -9 28 10
-9 11 -9 7.2 28.8
9 -11 -9 21.7 15.9
-9 11 -9 5 19.1
11 -2 -9 34.6 19.9
9 -11 -9 31.5 14.3
-11 2 9 6.3 12.5
-11 2 9 28.9 15.5
9 -11 9 34.4 21.1
-9 11 9 7.4 13.2
-2 -9 9 33.6 17.5
-2 -9 9 35.9 15.6
-8 11 -9 23.7 19.2
-3 -8 -9 32.6 9.2
3 8 -9 25 13.2
-11 3 -9 23.5 11
8 -11 -9 30.6 17.4
11 -3 -9 20.4 15.1
-3 -8 -9 45.3 9.1
8 -11 -9 27.4 15.4
-8 11 -9 15.8 30.1
-11 3 -9 22.3 13
-11 3 9 14.9 13.8
8 -11 9 15.4 19.8
-8 11 9 21.2 13
-3 -8 9 21.3 15.2
-3 -8 9 12.8 14
11 -3 9 29.2 7.5
-11 3 9 25.5 11.7
4 7 -9 -1.4 11.6
7 -11 -9 5.3 12.9
-7 11 -9 18.9 30.8
-7 11 -9 14.3 18.3
7 -11 -9 -0.2 12.9
-11 4 -9 11 12
-4 -7 -9 7.2 6.7
-4 -7 -9 10.2 6.6
11 -4 -9 3.8 14
-11 4 -9 -1.8 10.2
7 -11 9 11.4 17.5
-7 11 9 17.2 11.3
7 -11 9 12.2 12.2
-4 -7 9 7.7 12.2
-11 4 9 9.7 12.6
11 -4 9 -3.6 7.9
-4 -7 9 -10 14.3
-11 4 9 14.9 12.2
6 -11 -9 437.06 37.4
-11 5 -9 422.86 32.8
5 6 -9 389.36 34.4
-11 5 -9 405.06 37
11 -5 -9 336.57 39.5
6 -11 -9 386.76 37.6
-6 11 -9 488.15 42.4
-11 5 9 376.46 34.9
6 -11 9 352.76 37.3
-11 5 9 309.57 43
-5 -6 9 472.75 44.6
11 -5 9 319.37 30.7
6 -11 9 438.56 44.4
-5 -6 9 429.56 36.7
-11 6 -9 704.03 51.19
5 -11 -9 708.93 49.2
5 -11 -9 693.43 49.5
11 -6 -9 664.63 53.59
-11 6 -9 591.24 45.3
-5 11 -9 758.32 52.39
6 5 -9 686.53 47
5 -11 9 678.43 48.9
-11 6 9 618.64 46.5
-6 -5 9 646.54 45.4
5 -11 9 716.63 54.79
-6 -5 9 607.94 46
11 -6 9 591.94 45
-5 11 9 601.24 41.8
-11 6 9 576.84 44.7
7 4 -9 78.49 16.4
-11 7 -9 97.89 19.4
11 -7 -9 75.49 22.7
-4 11 -9 80.89 17.9
4 -11 -9 90.69 18.1
-11 7 -9 95.19 19.3
4 -11 -9 84.79 17.3
-4 11 9 95.39 14.9
-11 7 9 90.79 17.5
-7 -4 9 110.69 18.7
4 -11 9 75.59 19.2
11 -7 9 93.09 18.3
4 -11 9 108.39 20.6
-11 7 9 80.89 20.4
-7 -4 9 53.39 14.2
3 -11 -9 225.68 28.2
8 3 -9 210.28 26.5
-11 8 -9 165.88 28.9
-11 8 -9 210.08 29.3
11 -8 -9 243.98 42.5
3 -11 -9 215.98 27.1
-3 11 -9 183.18 29.1
11 -8 9 169.68 29
3 -11 9 179.18 28.9
-11 8 9 159.48 27.8
-8 -3 9 189.08 28.3
-11 8 9 175.58 29.6
3 -11 9 233.48 34.1
-3 11 9 175.58 20.9
-8 -3 9 167.58 24.5
-11 9 -9 821.02 59.79
11 -9 -9 729.83 64.79
-11 9 -9 645.44 53.89
9 2 -9 695.53 50.09
-2 11 -9 742.53 51.49
2 -11 -9 793.72 51.99
2 -11 -9 748.03 50.19
2 -11 9 888.21 58.89
-11 9 9 638.84 49.99
-9 -2 9 667.83 49.3
11 -9 9 807.62 56.49
-11 9 9 620.14 52.49
-9 -2 9 689.23 47.4
-2 11 9 723.03 43.8
2 -11 9 761.72 55.39
1 -11 -9 360.86 33
-11 10 -9 327.77 42
10 1 -9 327.37 34.1
-1 11 -9 317.87 33.4
-10 -1 -9 326.07 22.7
1 -11 -9 346.77 31.6
-10 -1 -9 340.27 21.6
-10 -1 9 325.97 40.2
-1 11 9 324.47 29.2
-10 -1 9 239.58 33.6
-11 10 9 274.77 33.4
11 -10 9 273.07 38.7
1 -11 9 316.07 34.7
1 -11 9 276.27 37.7
-12 3 -9 -1.9 9.9
-9 12 -9 22 29.4
-12 4 -9 36.7 13.2
12 -4 -9 40.1 18.3
-4 -8 -9 40 8.1
8 -12 -9 35.9 16.3
-8 12 -9 27.5 20.1
8 -12 -9 54.09 18.5
4 8 -9 30.2 15.1
-12 4 -9 45.4 15.7
-12 4 9 61.39 15.5
-4 -8 9 63.99 28.3
-8 12 9 33.7 14.4
8 -12 9 57.69 22.1
-4 -8 9 23 15.7
-12 4 9 53.39 17.7
12 -4 9 55.99 12.2
12 -5 -9 394.06 43.3
7 -12 -9 347.97 39
5 7 -9 415.06 35.8
-12 5 -9 337.07 31.4
7 -12 -9 353.46 37.8
-7 12 -9 406.86 43.6
-12 5 -9 411.06 37.5
12 -5 9 304.67 29.7
-12 5 9 316.57 35.2
-7 12 9 273.57 30.1
-5 -7 9 378.36 34.4
7 -12 9 387.16 39.1
-5 -7 9 376.86 37.5
-12 5 9 274.17 39.1
7 -12 9 392.06 46.3
6 -12 -9 634.74 51.09
-6 12 -9 715.53 55.09
6 6 -9 669.63 47.7
-12 6 -9 623.44 45.9
12 -6 -9 703.83 58.09
-12 6 -9 776.52 61.79
6 -12 -9 722.83 51.89
-6 -6 9 721.73 50.19
-6 -6 9 715.13 51.29
12 -6 9 622.44 47.2
-12 6 9 710.13 49.99
-12 6 9 622.34 49.1
-6 12 9 576.14 52.69
6 -12 9 752.62 54.19
6 -12 9 693.13 59.29
5 -12 -9 310.37 36.3
7 5 -9 362.96 33.3
-12 7 -9 529.45 60.49
-5 12 -9 300.17 38.4
-12 7 -9 308.87 32.5
12 -7 -9 398.26 47.5
5 -12 -9 339.17 35.6
-5 12 9 380.66 32.7
-12 7 9 345.17 36.8
5 -12 9 438.66 39.9
5 -12 9 446.36 46
-7 -5 9 354.06 35.4
-7 -5 9 396.86 44.3
-12 7 9 344.37 36.8
12 -7 9 398.56 37.2
-12 8 -9 46.8 28.2
12 -8 -9 76.99 27.8
-4 12 -9 28.7 16.7
4 -12 -9 32.2 14.8
4 -12 -9 21.7 16.8
8 4 -9 37 15.2
-12 8 -9 18.6 13.7
4 -12 9 11.8 15.5
-12 8 9 23.2 16.6
-12 8 9 35.7 17.3
-4 12 9 37.8 12.5
4 -12 9 57.49 20.4
-8 -4 9 23.4 14.4
12 -8 9 30.7 16
9 3 -9 654.53 48.7
12 -9 -9 758.82 65.09
-12 9 9 646.44 51.39
0 0 -10 3.1 4
0 0 -10 11.2 3.9
0 0 10 7.3 3.9
0 1 -10 1291.37 65.29
0 1 -10 1211.08 65.29
0 -1 -10 1272.27 64.29
1 0 -10 1233.58 65.09
1 -1 -10 1278.07 64.99
1 -1 -10 1270.27 64.79
0 -1 -10 1192.88 66.59
1 0 -10 1320.67 65.29
-1 1 -10 1185.08 64.99
-1 0 -10 1294.07 64.29
-1 1 -10 1290.37 65.09
1 -1 10 1221.18 65.29
0 -1 10 1281.17 65.09
-1 0 10 1243.08 64.39
0 -1 10 1198.98 64.39
1 0 10 1218.68 63.19
1 0 10 1169.28 63.99
0 1 10 1282.87 63.69
-1 1 10 1287.27 64.39
0 1 10 1300.97 63.29
-1 0 10 1252.17 64.59
-1 -1 -10 1124.79 54.99
1 -2 -10 1136.19 56.19
-1 2 -10 1061.49 57.39
-2 1 -10 957.1 56.19
-1 2 -10 999.2 57.29
1 -2 -10 1082.49 56.29
1 1 -10 1052.39 57.09
-2 1 -10 1080.49 56.59
2 -1 -10 1140.09 56.89
-1 -1 -10 1094.99 54.99
1 1 -10 1133.69 57.19
2 -1 -10 1077.39 56.99
1 -2 10 1148.39 60.99
-1 -1 10 1198.48 60.89
1 1 10 1068.79 58.69
2 -1 10 1108.19 59.19
1 -2 10 1181.18 61.79
-2 1 10 1222.48 60.79
-1 2 10 1131.19 60.49
2 -1 10 1076.59 59.79
-1 2 10 1217.48 59.99
-1 -1 10 1155.78 60.59
1 1 10 1210.78 57.99
-2 1 10 1145.89 60.19
2 0 -10 3152.68 153.08
0 -2 -10 3105.09 151.48
-2 0 -10 3235.68 151.68
2 0 -10 3012.8 153.08
0 2 -10 3082.99 153.48
-2 2 -10 2665.33 153.58
0 2 -10 3082.59 153.88
2 -2 -10 3026.3 153.98
-2 2 -10 2967.3 153.88
0 -2 -10 3195.18 151.58
2 -2 -10 3307.17 152.98
-2 0 -10 2835.32 151.08
0 -2 10 3016.5 155.58
0 2 10 3230.78 152.78
-2 2 10 3139.49 155.18
2 0 10 2990.1 153.18
-2 0 10 3044.6 154.98
-2 2 10 3256.77 154.38
0 2 10 3186.58 153.38
2 -2 10 2806.22 155.28
-2 0 10 3151.28 155.28
0 -2 10 3099.59 155.98
2 0 10 3162.68 152.68
3 -1 -10 1669.13 79.09
-1 -2 -10 1594.44 76.29
1 2 -10 1575.54 79.29
2 -3 -10 1641.74 78.59
1 2 -10 1545.25 79.69
-3 1 -10 1275.37 77.69
-2 3 -10 1536.45 80.69
2 -3 -10 1485.25 78.39
-3 1 -10 1327.37 77.89
3 -1 -10 1552.54 79.29
-1 -2 -10 1538.45 76.19
2 -3 10 1382.36 80.39
-3 1 10 1568.94 79.89
2 -3 10 1481.35 80.39
3 -1 10 1556.04 77.29
-1 -2 10 1516.95 79.79
-3 1 10 1574.64 79.39
1 2 10 1618.34 75.79
-1 -2 10 1573.64 79.99
3 -1 10 1545.45 77.29
1 2 10 1388.06 76.69
-2 3 10 1657.93 83.49
-1 3 -10 3090.29 161.48
-3 2 -10 2943.41 160.88
1 -3 -10 3209.78 159.08
1 -3 -10 3355.06 159.28
-1 3 -10 3260.97 161.88
-3 2 -10 2855.71 160.38
-2 -1 -10 3240.88 157.28
3 -2 -10 3390.16 160.38
2 1 -10 3349.47 160.58
-2 -1 -10 3289.97 157.48
2 1 -10 3163.18 160.58
-2 -1 10 3203.08 161.28
-1 3 10 3247.78 160.08
-1 3 10 3276.57 159.08
-3 2 10 3316.37 160.88
3 -2 10 2973.5 160.78
1 -3 10 3027.1 162.28
-3 2 10 3463.15 161.88
-2 -1 10 3059.59 161.08
2 1 10 3205.18 157.28
3 -2 10 3170.08 160.58
2 1 10 3442.16 157.08
1 -3 10 3188.18 162.48
-3 0 -10 2917.11 152.28
3 -3 -10 2966.7 154.78
3 0 -10 3069.49 155.18
-3 3 -10 2985.3 156.08
3 0 -10 3159.48 154.78
0 -3 -10 3365.16 153.08
-3 3 -10 2992.8 156.68
-3 0 -10 2768.42 152.78
3 -3 -10 3260.67 154.78
0 -3 -10 3275.57 152.88
0 3 -10 3197.68 156.08
0 3 -10 2995.1 155.88
0 3 10 3324.17 159.18
-3 3 10 3314.37 160.68
3 0 10 3421.76 157.78
-3 0 10 3153.48 161.48
0 -3 10 3290.07 163.08
-3 0 10 3145.69 161.58
-3 3 10 3349.17 162.38
3 -3 10 2990.3 161.78
0 -3 10 3018.1 162.58
3 0 10 2982.4 158.38
0 3 10 3412.96 158.68
-3 4 -10 176.18 18.1
-1 -3 -10 176.58 11.6
1 3 -10 148.29 16.9
-1 -3 -10 163.08 11.3
4 -1 -10 153.28 16.1
-4 1 -10 144.09 13.2
-3 4 -10 157.88 16.9
3 -4 -10 172.28 14.9
1 3 -10 190.78 16.3
3 -4 -10 158.88 15.4
-4 1 -10 157.38 13
4 -1 -10 160.48 14.9
-3 4 10 275.17 20.5
-1 -3 10 254.97 20.1
4 -1 10 264.37 15.5
4 -1 10 272.07 15
-4 1 10 284.87 20.3
-1 -3 10 251.47 20.4
1 3 10 233.98 13.7
-4 1 10 283.27 19.6
3 -4 10 300.67 21.3
-3 4 10 215.88 16.7
3 -4 10 222.88 21.2
2 -4 -10 1332.17 68.79
2 -4 -10 1227.28 68.59
2 2 -10 1315.17 69.69
-2 4 -10 1244.68 73.99
4 -2 -10 1299.17 69.99
-4 2 -10 1271.47 69.59
2 2 -10 1349.56 70.39
-2 4 -10 1391.06 72.09
-4 2 -10 1260.37 69.19
-2 -2 -10 1359.46 65.49
4 -2 -10 1359.96 69.49
-2 -2 -10 1349.86 65.49
-2 -2 10 1392.26 72.89
4 -2 10 1384.36 70.29
2 -4 10 1317.07 74.99
-2 -2 10 1333.97 72.89
-4 2 10 1424.86 72.49
2 -4 10 1376.26 74.29
-2 4 10 1390.76 70.69
-2 4 10 1416.96 72.59
4 -2 10 1281.67 71.59
-4 2 10 1474.15 73.59
-4 3 -10 2303.47 121.29
1 -4 -10 2468.05 118.99
-4 3 -10 2192.78 120.79
-3 -1 -10 2206.18 116.59
3 1 -10 2310.07 120.39
1 -4 -10 2374.86 118.59
3 1 -10 2427.06 120.19
4 -3 -10 2482.45 120.09
-1 4 -10 2376.16 122.39
-1 4 -10 2483.35 122.29
-3 -1 -10 2294.27 115.89
-1 4 10 2349.86 117.59
-1 4 10 2467.05 116.49
-4 3 10 2428.26 118.59
-4 3 10 2539.55 120.39
-3 -1 10 2378.56 119.09
4 -3 10 2343.37 118.09
4 -3 10 1962.4 119.49
1 -4 10 2136.79 120.89
1 -4 10 2461.15 120.89
-3 -1 10 2248.58 118.89
0 -4 -10 1251.07 59.99
4 -4 -10 1234.88 62.39
4 0 -10 1137.69 62.59
-4 4 -10 1139.29 64.29
0 -4 -10 1166.98 59.69
-4 0 -10 1009.3 58.99
4 0 -10 1207.28 62.09
-4 4 -10 1112.29 63.99
0 4 -10 1139.79 64.09
4 -4 -10 1143.29 62.69
-4 0 -10 1167.58 58.79
0 4 -10 1111.09 63.49
-4 4 10 1134.49 62.09
0 -4 10 1073.19 64.69
0 -4 10 1217.18 64.89
-4 0 10 1178.08 63.19
0 4 10 1192.08 59.59
0 4 10 1200.08 59.99
-4 0 10 1161.48 63.19
4 -4 10 1193.18 63.59
-4 4 10 1217.48 64.69
1 4 -10 389.36 29.8
-1 -4 -10 417.76 23.1
-4 5 -10 394.56 29.6
5 -1 -10 370.66 30.1
-4 5 -10 407.66 30.1
-5 1 -10 393.26 24.7
5 -1 -10 421.96 28
4 -5 -10 396.96 28.2
-1 -4 -10 393.66 23.2
1 4 -10 365.66 28.2
4 -5 -10 409.26 27.3
-5 1 10 519.55 32.6
-1 -4 10 480.85 33.7
-4 5 10 483.35 33.4
-5 1 10 491.15 31.9
5 -1 10 512.65 26.9
4 -5 10 507.45 35.9
-1 -4 10 517.35 33.5
4 -5 10 520.25 33.6
-4 5 10 499.25 30.6
5 -1 10 537.05 26.4
-2 -3 -10 393.06 23.4
-3 5 -10 408.96 30.4
2 3 -10 353.16 34.5
-5 2 -10 390.96 26.3
-3 5 -10 435.06 30.3
5 -2 -10 429.16 27.1
3 -5 -10 431.36 27
3 -5 -10 385.86 27.2
5 -2 -10 402.16 27.8
2 3 -10 414.66 28.3
-2 -3 -10 408.06 21.8
-5 2 -10 409.56 25.6
-2 -3 10 403.16 26.6
3 -5 10 397.56 29.5
5 -2 10 391.66 21.6
3 -5 10 361.36 27.4
-2 -3 10 337.27 26.1
5 -2 10 363.46 23.7
-5 2 10 380.26 26.5
-3 5 10 380.86 26.3
-5 2 10 366.26 25.5
5 -3 -10 1835.52 91.09
2 -5 -10 1783.92 90.49
3 2 -10 1705.53 91.59
3 2 -10 1675.13 91.39
2 -5 -10 1770.72 90.39
-5 3 -10 1696.43 91.39
-5 3 -10 1626.94 91.39
5 -3 -10 1588.54 91.39
-2 5 -10 1775.02 93.89
-2 5 -10 1976.3 94.49
-3 -2 10 1700.13 90.09
-3 -2 10 1755.52 89.99
-5 3 10 1774.52 91.09
5 -3 10 1490.75 90.19
5 -3 10 1760.82 87.69
2 -5 10 1733.13 91.89
-2 5 10 1755.62 87.69
-2 5 10 1699.83 89.59
2 -5 10 1759.32 93.79
-5 3 10 1773.92 89.69
-1 5 -10 1236.68 66.29
-5 4 -10 1141.59 65.19
1 -5 -10 1164.38 61.99
-5 4 -10 1113.39 64.99
5 -4 -10 1115.29 64.19
5 -4 -10 1202.28 63.59
4 1 -10 1154.78 63.29
4 1 -10 1189.78 63.99
-1 5 -10 1262.57 66.29
-4 -1 -10 1063.99 57.79
1 -5 -10 1231.98 62.19
-1 5 10 1327.27 66.59
-4 -1 10 1208.58 69.19
-5 4 10 1343.87 71.99
1 -5 10 1383.36 71.69
5 -4 10 1179.98 73.09
-1 5 10 1283.17 67.69
-5 4 10 1273.77 68.79
-4 -1 10 1281.47 69.39
5 -4 10 1326.57 68.59
1 -5 10 1327.17 72.79
0 -5 -10 1030.4 55.29
5 -5 -10 1081.99 58.39
0 5 -10 1102.29 60.69
-5 5 -10 1040.5 60.89
0 5 -10 1115.39 60.19
5 0 -10 1011.5 58.29
0 -5 -10 1058.89 55.79
-5 0 -10 950 53.89
5 -5 -10 1021.8 59.39
-5 5 -10 1027.6 60.69
5 0 -10 1053.29 57.49
0 5 10 1195.08 61.29
-5 5 10 1136.49 66.59
0 5 10 1206.88 60.79
-5 5 10 1174.88 64.29
0 -5 10 1199.78 67.99
-5 0 10 1141.59 64.79
5 -5 10 1247.18 65.49
-5 0 10 1235.68 65.39
5 -5 10 1126.59 68.99
0 -5 10 1282.47 66.99
1 5 -10 2915.91 148.79
5 -6 -10 2951.8 147.99
-1 -5 -10 3061.59 143.89
-6 1 -10 2778.92 144.69
6 -1 -10 2899.21 146.49
6 -1 -10 2689.23 147.29
-5 6 -10 2826.52 150.38
1 5 -10 2967.7 149.88
-1 -5 -10 2842.12 143.59
-5 6 -10 3002.5 151.58
5 -6 -10 2710.83 148.29
5 -6 10 2748.82 147.79
-5 6 10 2692.03 140.99
-1 -5 10 2990.5 144.19
-1 -5 10 2767.42 144.59
-6 1 10 2709.33 141.79
-6 1 10 2737.33 142.29
5 -6 10 2789.02 143.49
-5 6 10 2793.32 144.49
2 4 -10 1050.39 60.29
-2 -4 -10 1113.09 54.09
-2 -4 -10 1076.19 53.89
4 -6 -10 970.2 59.69
-4 6 -10 1070.49 62.79
6 -2 -10 1112.19 58.89
4 -6 -10 1055.29 59.29
-6 2 -10 1045.8 57.99
2 4 -10 1066.79 60.39
-4 6 -10 1024.1 62.39
6 -2 -10 1047.5 59.89
-2 -4 10 906.71 51.19
4 -6 10 862.31 55.09
-6 2 10 830.42 49.6
-6 2 10 914.61 50.89
-4 6 10 830.72 47.9
4 -6 10 897.21 52.39
6 -2 10 865.71 47.4
-4 6 10 838.52 51.49
-2 -4 10 848.02 51.49
6 -2 10 927.01 45.3
3 3 -10 313.37 25.4
-3 6 -10 349.37 28.2
3 -6 -10 329.87 25.6
3 3 -10 331.47 24.9
-6 3 -10 320.97 24.3
3 -6 -10 306.27 23.7
6 -3 -10 317.17 25.9
-3 6 -10 365.06 28.6
6 -3 -10 326.07 27.7
-3 6 10 319.47 24.5
-3 6 10 292.57 21
-6 3 10 313.67 24.7
6 -3 10 255.27 22.5
-6 3 10 292.37 23.9
3 -6 10 323.57 26.1
-3 -3 10 304.57 23.8
-3 -3 10 318.57 24.5
3 -6 10 324.67 28.4
6 -3 10 323.77 19.7
6 -4 -10 602.24 44
-2 6 -10 832.82 46.8
4 2 -10 732.03 43.1
-6 4 -10 722.93 44.1
6 -4 -10 734.83 43.3
2 -6 -10 712.33 42.3
-6 4 -10 731.13 44.6
2 -6 -10 692.33 42.8
4 2 -10 737.23 43.7
-2 6 -10 814.22 47.3
2 -6 10 828.32 48.8
-4 -2 10 787.72 46.2
-2 6 10 809.72 43.3
6 -4 10 744.53 48.2
-6 4 10 725.43 56.09
6 -4 10 817.12 43.7
2 -6 10 766.12 50.39
-2 6 10 758.72 45.3
-4 -2 10 816.42 46.1
-6 4 10 783.22 45.5
5 1 -10 156.88 18.8
1 -6 -10 182.78 16.6
-6 5 -10 179.88 29.2
6 -5 -10 168.58 21.2
6 -5 -10 164.58 18.8
-6 5 -10 155.68 20.4
-1 6 -10 213.78 22
-1 6 -10 172.78 20.8
5 1 -10 198.78 18.4
1 -6 -10 146.49 17.8
1 -6 10 117.89 20.2
-5 -1 10 111.99 15.9
-1 6 10 132.79 13.7
-6 5 10 111.49 16
1 -6 10 133.29 18.4
-6 5 10 125.09 19
6 -5 10 131.49 14.8
-5 -1 10 118.59 16.6
-1 6 10 115.99 11.8
0 6 -10 875.01 50.89
-6 0 -10 747.33 43.6
-6 6 -10 791.82 51.49
0 -6 -10 840.82 46
6 -6 -10 824.82 49.4
0 -6 -10 822.22 45.7
-6 0 -10 872.41 43.2
6 0 -10 754.42 48.7
6 0 -10 793.42 47.5
6 -6 -10 773.52 50.89
-6 6 -10 877.91 52.89
0 6 -10 928.41 52.29
6 -6 10 695.03 42.7
-6 0 10 716.03 42.7
6 -6 10 656.43 47.6
0 -6 10 800.22 45.4
0 6 10 658.63 39.3
0 6 10 680.23 38
-6 6 10 644.94 41.5
0 -6 10 802.02 47.5
-6 6 10 749.92 46
-6 0 10 691.43 42.4
1 6 -10 1484.25 82.09
7 -1 -10 1442.26 78.19
-7 1 -10 1457.05 76.29
-6 7 -10 1483.25 84.49
-6 7 -10 1460.95 83.69
1 6 -10 1594.34 81.89
-1 -6 -10 1437.26 75.29
6 -7 -10 1370.86 81.89
7 -1 -10 1391.16 79.89
6 -7 -10 1367.66 80.09
-1 -6 -10 1473.75 75.59
-7 1 -10 1476.85 75.19
-7 1 10 1565.34 86.79
-6 7 10 1528.25 86.09
6 -7 10 1649.33 94.29
-1 -6 10 1772.82 91.19
6 -7 10 1585.24 88.39
-6 7 10 1611.44 90.19
-7 1 10 1603.74 87.19
-1 -6 10 1692.83 88.99
-2 -5 -10 2161.08 107.89
-2 -5 -10 2201.68 107.99
-5 7 -10 2087.99 117.39
7 -2 -10 2124.19 114.09
5 -7 -10 2168.88 115.09
2 5 -10 2238.98 115.59
5 -7 -10 2141.89 113.89
-5 7 -10 2070.09 116.49
-7 2 -10 2168.58 111.59
7 -2 -10 2143.39 112.09
2 5 -10 2204.68 114.49
-7 2 10 2037.6 115.39
5 -7 10 2264.77 122.89
-2 -5 10 2358.16 118.39
-5 7 10 2256.67 118.79
7 -2 10 2179.28 113.09
-7 2 10 2250.67 116.69
-5 7 10 2101.09 114.49
5 -7 10 2360.76 119.09
-2 -5 10 2119.69 117.89
7 -2 10 2365.46 110.69
3 4 -10 191.58 21.1
-4 7 -10 190.28 23.8
-7 3 -10 171.38 18.7
3 4 -10 184.68 20.2
7 -3 -10 161.68 20.5
4 -7 -10 152.18 21.7
-4 7 -10 203.98 24.4
4 -7 -10 149.19 19
7 -3 -10 194.88 19.3
-7 3 10 254.57 23.9
4 -7 10 254.67 28.6
-7 3 10 254.57 22.9
-4 7 10 254.17 24.5
-3 -4 10 260.17 23.3
4 -7 10 332.67 26.5
7 -3 10 226.38 21
7 -3 10 272.47 17.5
-3 -4 10 235.38 24.2
-7 4 -10 5.5 12.7
-3 7 -10 14.7 11
4 3 -10 11.8 7.6
4 3 -10 36.1 11.4
-3 7 -10 24.5 11.1
7 -4 -10 9.8 7.8
-7 4 -10 13 9
7 -4 -10 13.9 10.1
3 -7 -10 21.9 8.4
3 -7 -10 22.5 11.8
7 -4 10 54.39 8.1
-4 -3 10 48.8 11.5
3 -7 10 54.49 13.6
-3 7 10 52.39 11.6
3 -7 10 64.09 13.6
7 -4 10 50.69 11.6
-7 4 10 42.2 10.1
-4 -3 10 63.49 11.9
-7 4 10 58.09 12.3
-3 7 10 28.4 7.7
5 2 -10 141.39 19.2
-2 7 -10 170.18 22.4
-2 7 -10 164.18 22.2
2 -7 -10 150.18 17.3
2 -7 -10 136.39 20
7 -5 -10 127.69 18.7
-7 5 -10 126.79 20.4
7 -5 -10 133.69 21.7
5 2 -10 168.48 18.4
-7 5 10 151.68 20.9
7 -5 10 107.39 19.7
-2 7 10 150.98 14.8
-2 7 10 138.69 16.5
-7 5 10 130.69 18.5
-5 -2 10 146.99 18.1
-5 -2 10 159.98 19.1
7 -5 10 152.68 15.2
2 -7 10 152.48 23.1
2 -7 10 159.08 20.9
6 1 -10 67.69 11.9
-1 7 -10 73.59 13.2
-1 7 -10 70.19 13.5
1 -7 -10 76.39 11.3
-7 6 -10 84.19 15.7
7 -6 -10 92.79 14.9
6 1 -10 65.99 13.1
7 -6 -10 83.39 15.4
-6 -1 -10 84.09 7.4
1 -7 -10 80.39 14.3
1 -7 10 76.19 14.6
-6 -1 10 41 10.4
-1 7 10 69.99 10.7
-1 7 10 61.79 10.3
1 -7 10 107.69 17.5
-6 -1 10 47.6 10.3
7 -6 10 73.89 11.7
-7 6 10 68.59 11.9
-7 6 10 111.19 16.4
0 -7 -10 669.63 38
-7 0 -10 601.84 35.2
7 -7 -10 616.34 42.1
0 7 -10 716.63 45.4
-7 0 -10 657.33 34.1
7 -7 -10 547.35 44.7
0 7 -10 665.03 43.2
7 0 -10 599.14 39.4
7 0 -10 623.54 41.3
-7 7 -10 580.74 44.6
-7 7 10 604.54 39.5
0 7 10 594.34 34.3
0 -7 10 696.43 45.3
-7 7 10 596.64 42.9
-7 0 10 590.94 40.1
-7 0 10 618.44 39.6
0 7 10 595.74 34.3
0 7 10 625.64 34.1
7 -7 10 636.34 46.5
7 -7 10 602.54 42.1
0 -7 10 658.03 42.6
1 7 -10 311.97 29.8
-1 -7 -10 303.47 22.6
-8 1 -10 337.67 23.4
1 7 -10 348.17 30.9
8 -1 -10 285.17 28.2
-1 -7 -10 308.77 22.8
8 -1 -10 294.47 26
-7 8 -10 339.97 33.4
-8 1 -10 328.87 21.6
7 -8 -10 284.87 32.9
7 -8 -10 281.77 28.5
7 -8 10 244.28 31.1
-7 8 10 251.17 23.7
-8 1 10 223.48 24.3
-1 -7 10 253.07 25.9
7 -8 10 238.68 30
-7 8 10 208.28 27.1
-1 -7 10 265.47 29.3
-8 1 10 225.88 23.6
-8 2 -10 570.34 35.9
-2 -6 -10 542.95 34.7
6 -8 -10 572.64 39.6
-8 2 -10 573.04 34.4
8 -2 -10 488.75 38.7
-6 8 -10 607.64 43.6
2 6 -10 570.44 48.7
2 6 -10 606.84 40.1
-2 -6 -10 584.54 32.3
6 -8 -10 522.15 42.2
8 -2 -10 535.75 36.5
-6 8 -10 572.24 43.7
8 -2 10 519.05 27.3
6 -8 10 541.05 38.3
-6 8 10 473.85 33.7
-6 8 10 478.65 50.59
6 -8 10 498.95 43
-2 -6 10 551.54 39.5
8 -2 10 501.45 28.9
-8 2 10 488.85 35.3
-2 -6 10 547.05 37.5
-8 2 10 506.45 35.9
8 -3 -10 262.87 23.6
5 -8 -10 250.47 29.5
3 5 -10 276.17 29.7
3 5 -10 258.47 25.3
-5 8 -10 282.97 29.6
-3 -5 -10 279.07 16.3
5 -8 -10 227.28 24.7
8 -3 -10 267.07 26.4
-5 8 -10 263.27 29.6
-3 -5 -10 265.97 16.2
-5 8 10 364.66 30.4
-8 3 10 314.67 27.5
-5 8 10 338.87 25.4
8 -3 10 276.37 24.6
5 -8 10 380.16 37
-3 -5 10 364.46 29.3
-3 -5 10 322.87 29.8
-8 3 10 360.36 28.8
5 -8 10 416.46 32.6
8 -3 10 365.26 21.5
-8 4 -10 144.09 19.7
4 4 -10 124.09 20.3
8 -4 -10 157.58 19.5
-8 4 -10 88.59 16.2
-4 8 -10 167.98 24.3
4 4 -10 137.39 20.7
-4 8 -10 164.38 24.4
8 -4 -10 121.19 21.6
4 -8 -10 104.89 18.2
4 -8 -10 171.98 24.3
4 -8 10 117.69 17.8
-4 -4 10 104.39 15.4
-4 8 10 97.19 14.6
-4 -4 10 78.99 14.4
-8 4 10 114.19 18.7
-8 4 10 94.79 15.6
8 -4 10 125.09 18.4
4 -8 10 102.99 18.4
-4 8 10 83.19 15.3
8 -5 -10 16.5 12.5
-8 5 -10 -3.5 14.8
-8 5 -10 7.6 10.4
8 -5 -10 12.6 9.2
-3 8 -10 18.2 12.7
3 -8 -10 15.3 8.9
5 3 -10 2.4 15.7
-3 8 -10 16.4 10.8
5 3 -10 13.4 10.9
-3 8 10 24.7 8.8
8 -5 10 9.3 9.2
-8 5 10 8.4 9.8
-8 5 10 21.1 12.3
3 -8 10 2.9 10.3
-5 -3 10 6 9
8 -5 10 9.7 6.1
-5 -3 10 3.5 9.8
3 -8 10 23.2 12
-3 8 10 3.5 6.7
-2 8 -10 88.59 15.4
-8 6 -10 54.89 19.4
2 -8 -10 79.99 12.9
6 2 -10 50.49 13
6 2 -10 61.89 11
8 -6 -10 93.69 15.3
8 -6 -10 65.39 16.3
-2 8 -10 101.99 18
2 -8 -10 73.39 12.5
-8 6 -10 88.49 16.8
-6 -2 10 78.99 14.5
-6 -2 10 101.79 17.7
-8 6 10 59.89 12.8
8 -6 10 63.59 14.2
-2 8 10 79.29 13.4
2 -8 10 86.59 17.6
8 -6 10 72.19 11.3
-8 6 10 67.99 14.3
2 -8 10 78.29 15.6
1 -8 -10 520.55 35.6
-7 -1 -10 607.44 29.2
7 1 -10 499.15 36
-8 7 -10 567.64 42.5
8 -7 -10 528.75 43.2
1 -8 -10 572.14 36.2
-1 8 -10 549.65 40.2
7 1 -10 546.55 38.6
-7 -1 -10 504.65 29.4
8 -7 -10 535.35 39.2
-1 8 -10 627.24 43.1
1 -8 10 696.93 46
-7 -1 10 594.34 40.2
8 -7 10 614.84 44.9
1 -8 10 672.83 43.1
-7 -1 10 593.34 39.4
-8 7 10 572.44 43.1
8 -7 10 556.84 38.1
-8 7 10 533.95 39.7
8 -8 -10 282.77 28.7
-8 8 -10 278.77 31.9
8 -8 -10 256.07 33.2
-8 0 -10 270.77 18.3
8 0 -10 215.48 32.6
0 8 -10 264.77 28.4
0 -8 -10 280.07 34
0 8 -10 277.17 29.5
0 -8 -10 269.27 22.9
-8 0 -10 248.58 19.1
8 0 -10 259.87 26.9
0 -8 10 287.67 31.2
-8 0 10 233.18 35.7
-8 0 10 270.37 25.3
-8 8 10 250.47 29.7
8 -8 10 263.77 25.6
0 -8 10 329.47 29.5
8 -8 10 285.97 32.8
-8 8 10 248.28 25.6
0 8 10 267.67 18.1
8 -9 -10 147.99 27.4
-9 1 -10 133.29 15
9 -1 -10 109.99 17.8
8 -9 -10 128.29 20.7
-8 9 -10 46.2 34.7
-9 1 -10 136.69 16.7
-1 -8 -10 134.59 17.3
1 8 -10 122.69 18.8
-8 9 -10 156.98 24.6
-1 -8 -10 155.48 17
-1 -8 10 131.59 21
-9 1 10 78.39 13.7
8 -9 10 104.99 19.3
-8 9 10 67.59 13.4
8 -9 10 89.79 19.1
-1 -8 10 91.19 16
-8 9 10 72.39 17.4
-9 1 10 76.09 13.8
7 -9 -10 115.39 23.9
-7 9 -10 102.99 21.3
-2 -7 -10 116.89 14.5
7 -9 -10 76.19 15.1
-9 2 -10 104.59 15.5
-9 2 -10 100.89 17.1
2 7 -10 83.09 15
9 -2 -10 91.09 17.1
9 -2 -10 84.19 14.6
-2 -7 -10 95.29 13.4
-7 9 10 66.79 12.8
-7 9 10 104.19 19.4
-9 2 10 115.99 19.3
-2 -7 10 96.19 15.9
7 -9 10 75.29 20.3
7 -9 10 131.49 19.5
-2 -7 10 90.09 18
-9 2 10 92.69 15.1
-9 3 -10 362.16 29.1
-3 -6 -10 364.66 22.1
3 6 -10 430.56 36.8
9 -3 -10 332.87 28.7
9 -3 -10 390.56 33.1
-6 9 -10 352.06 36.1
-3 -6 -10 368.76 22.1
-9 3 -10 326.37 26.5
-6 9 -10 354.76 36.5
3 6 -10 376.46 31.4
6 -9 -10 374.46 40.4
6 -9 -10 347.47 31.5
-3 -6 10 300.27 28.9
-9 3 10 274.97 27.1
-6 9 10 318.87 30.8
6 -9 10 337.87 36.8
9 -3 10 287.37 22.8
-6 9 10 268.77 24.6
6 -9 10 326.17 31.7
-9 3 10 287.07 27.5
-5 9 -10 513.95 41.2
5 -9 -10 447.06 34.9
-9 4 -10 498.25 34.7
-5 9 -10 544.15 40.6
4 5 -10 441.46 35.5
4 5 -10 347.37 31.4
-9 4 -10 405.16 32
9 -4 -10 466.45 37.4
9 -4 10 424.46 33.9
-4 -5 10 527.05 37
-9 4 10 498.65 36.2
5 -9 10 528.25 44.2
-9 4 10 427.46 34.8
5 -9 10 512.85 39.2
-4 -5 10 478.05 45
4 -9 -10 151.48 21.6
9 -5 -10 122.19 25.8
5 4 -10 128.69 21.3
-4 9 -10 159.88 27.7
-9 5 -10 148.59 23.5
4 -9 -10 155.08 22.4
9 -5 -10 118.79 21
-4 9 -10 160.08 25.3
9 -5 10 99.49 16.4
4 -9 10 158.08 24.2
-9 5 10 131.39 22.4
-9 5 10 100.79 15.9
-5 -4 10 139.69 20.6
4 -9 10 142.69 23.8
-4 9 10 108.09 16.9
9 -6 -10 36.9 14.9
-9 6 -10 14 15.9
3 -9 -10 37.7 11
9 -6 -10 20.1 9.4
-9 6 -10 31.4 13.5
3 -9 -10 25.3 11.4
-3 9 -10 37 12.9
-3 9 -10 31.1 14.2
3 -9 10 18.7 11.9
3 -9 10 22.1 13.1
-6 -3 10 20 10.9
-6 -3 10 10.3 12
-9 6 10 24.1 12.9
-9 6 10 32 13.8
9 -6 10 12.8 10.4
-3 9 10 12.4 8
2 -9 -10 284.57 26.5
9 -7 -10 258.17 34.2
-2 9 -10 304.67 30.8
-9 7 -10 277.67 32
9 -7 -10 272.67 28.4
-2 9 -10 354.36 33.9
2 -9 -10 332.57 27.2
2 -9 10 270.97 30.6
-2 9 10 239.58 20.3
9 -7 10 255.47 29.2
2 -9 10 239.68 30.9
-7 -2 10 240.68 26.5
-9 7 10 252.77 29.1
-7 -2 10 227.58 24.5
-9 7 10 234.18 26.3
-8 -1 -10 500.25 29.1
1 -9 -10 543.05 36.4
1 -9 -10 543.95 36.2
9 -8 -10 482.05 45.7
-9 8 -10 474.05 43.3
-1 9 -10 565.54 40.9
9 -8 -10 500.15 40.3
-8 -1 -10 572.84 28.7
-1 9 10 490.85 31
-9 8 10 506.15 40.8
-8 -1 10 480.55 37.4
-9 8 10 443.66 37
1 -9 10 545.95 43.1
9 -8 10 522.95 43.5
1 -9 10 542.95 40.4
-8 -1 10 494.65 35.9
0 -9 -10 714.83 45.2
-9 0 -10 703.33 41.4
-9 9 -10 796.12 55.79
-9 0 -10 736.73 40
9 -9 -10 711.03 50.69
9 -9 -10 685.93 57.79
0 9 -10 768.32 50.09
0 -9 -10 753.92 45.3
0 9 10 610.34 34.6
0 -9 10 711.73 46.5
9 -9 10 691.63 52.49
0 -9 10 716.53 48.6
-9 0 10 563.24 41.1
-9 0 10 566.24 43
-9 9 10 576.04 46.2
-9 9 10 555.34 42.6
-1 -9 -10 274.87 25
9 -10 -10 268.47 42.5
1 9 -10 268.07 29.2
-10 1 -10 269.57 20.8
9 -10 -10 206.88 30.1
-1 -9 -10 243.28 22.8
-10 1 -10 255.47 22.7
-9 10 -10 266.97 37.2
9 -10 10 247.78 37.2
-10 1 10 243.68 28.8
-9 10 10 201.08 26.7
-1 -9 10 249.68 32.6
-10 1 10 212.28 25.3
-1 -9 10 284.57 30.4
-10 2 -10 222.68 23
2 8 -10 272.47 25.9
8 -10 -10 214.98 28.3
-8 10 -10 129.29 32.7
10 -2 -10 244.78 29.6
8 -10 -10 224.88 38.3
-2 -8 -10 219.68 20.2
-8 10 -10 256.37 36.1
-2 -8 -10 218.78 19.3
-10 2 -10 215.78 20.3
-10 2 10 234.48 27.5
-8 10 10 179.08 24.6
-2 -8 10 253.67 32
-2 -8 10 251.87 28.6
8 -10 10 272.17 37
-10 2 10 188.68 24.2
-10 3 -10 818.52 47.3
-10 3 -10 833.32 50.39
-7 10 -10 809.02 58.09
10 -3 -10 715.33 53.99
-3 -7 -10 777.72 43.2
7 -10 -10 716.23 52.79
-3 -7 -10 837.32 43.5
-3 -7 10 779.12 50.79
-3 -7 10 825.32 52.89
-7 10 10 657.43 47.1
-10 3 10 692.23 48.8
7 -10 10 818.02 53.09
10 -3 10 703.63 42.4
7 -10 10 824.72 59.89
-10 3 10 768.42 48.7
10 -4 -10 750.52 51.19
6 -10 -10 640.94 48.1
-10 4 -10 667.23 43.4
6 -10 -10 642.94 48.8
-10 4 -10 754.02 47.4
-6 10 -10 723.03 52.99
-4 -6 10 765.32 50.89
-10 4 10 734.63 48.3
6 -10 10 812.72 52.29
-6 10 10 671.23 45.4
-10 4 10 541.75 57.89
10 -4 10 642.14 44.9
6 -10 10 767.12 56.99
-4 -6 10 836.12 50.69
-10 5 -10 229.08 27.1
10 -5 -10 196.68 29.9
-10 5 -10 165.38 23.1
5 -10 -10 209.08 26.3
-5 10 -10 244.78 33.2
10 -5 -10 174.68 24.6
5 5 -10 194.68 27
5 -10 -10 161.68 26
-5 10 -10 249.38 31.7
10 -5 10 176.58 23
-10 5 10 189.28 25.9
5 -10 10 203.38 32.5
-5 -5 10 181.48 25.2
-10 5 10 174.08 25.8
-5 10 10 164.08 22.7
5 -10 10 201.48 28
-5 -5 10 186.58 27.5
4 -10 -10 49.7 13.2
-4 10 -10 56.29 18.4
10 -6 -10 80.89 16
-10 6 -10 29 14.8
-10 6 -10 41.6 14.8
10 -6 -10 46.9 17.9
4 -10 -10 58.89 13.7
-4 10 -10 52.29 18.4
-6 -4 10 49.5 15.7
10 -6 10 48 13.9
4 -10 10 38.7 16.1
4 -10 10 47.1 16.6
-10 6 10 20 13.1
-4 10 10 42.9 11.1
-10 6 10 71.99 16.7
-6 -4 10 26.6 11.7
10 -7 -10 198.28 25.8
10 -7 -10 203.28 34.7
-10 7 -10 196.08 30.4
3 -10 -10 214.08 25.7
-3 10 -10 223.38 32.8
3 -10 -10 188.88 25.2
-3 10 -10 259.37 33.8
7 3 -10 215.28 25.8
-3 10 10 218.38 21.5
-7 -3 10 214.18 27.2
3 -10 10 223.58 29.8
-10 7 10 217.78 28
10 -7 10 188.68 27.6
-10 7 10 181.98 25.9
-7 -3 10 186.38 24.9
3 -10 10 240.78 33.1
-10 8 -10 288.77 35
8 2 -10 268.87 29.1
10 -8 -10 250.47 38.1
2 -10 -10 281.37 27.6
2 -10 -10 283.77 27.5
-2 10 -10 290.27 31.4
10 -8 -10 274.87 38.4
2 -10 10 291.37 34.5
-10 8 10 233.38 28.2
-8 -2 10 235.28 28.7
2 -10 10 283.87 31.3
-8 -2 10 242.68 26.7
-2 10 10 250.07 21.8
-10 8 10 232.68 30.6
-10 9 -10 466.85 44.2
10 -9 -10 353.06 41
1 -10 -10 492.75 39
-9 -1 -10 469.75 25.4
-9 -1 -10 443.36 26
1 -10 -10 448.76 34.7
9 1 -10 407.46 37
10 -9 -10 455.05 49.5
-1 10 -10 467.95 38.8
-1 10 10 411.96 27
-9 -1 10 415.96 33.9
-9 -1 10 424.06 36
-10 9 10 393.56 38.7
1 -10 10 449.86 40.9
-10 9 10 337.87 35
1 -10 10 424.46 37.6
10 -9 10 488.35 43.2
-10 0 -10 403.16 34.4
0 -10 -10 429.16 32.5
10 -10 -10 389.36 39.4
-10 0 -10 404.06 27.8
-10 10 -10 426.26 44.6
10 -10 -10 470.35 56.59
0 -10 -10 470.65 39.9
10 0 -10 450.15 38.1
0 10 -10 402.26 35.9
-10 0 10 327.07 33.8
0 -10 10 378.36 39.2
-10 0 10 309.67 31.4
10 -10 10 398.56 43.2
-10 10 10 346.17 34.6
0 -10 10 446.96 37.3
11 -1 -10 231.38 32
10 -11 -10 173.88 29.1
-11 1 -10 230.08 22.4
-10 11 -10 266.17 40
-1 -10 -10 239.58 24.4
10 -11 -10 147.79 24.4
-1 -10 -10 219.18 22.9
-11 1 -10 254.17 26.5
-10 11 10 163.28 27.4
-1 -10 10 144.09 22.1
10 -11 10 195.48 41.5
-1 -10 10 157.68 23.7
-11 1 10 169.18 24.4
-11 1 10 128.19 20.9
9 -11 -10 185.68 33.4
-11 2 -10 226.78 21
-2 -9 -10 203.28 19.7
9 -11 -10 161.18 25
2 9 -10 159.78 28.6
-2 -9 -10 199.18 28.9
-9 11 -10 134.59 26.4
9 -11 10 203.58 32.5
-9 11 10 157.28 25.8
-2 -9 10 200.48 28.4
-11 2 10 113.69 18
-11 2 10 121.99 20.2
-2 -9 10 197.88 31.7
-11 3 -10 344.77 30.5
11 -3 -10 275.17 35.1
8 -11 -10 284.67 35.7
-3 -8 -10 336.17 22.4
8 -11 -10 322.57 33.8
-3 -8 -10 341.57 22.8
-11 3 -10 311.37 26.1
-8 11 -10 222.78 41.7
3 8 -10 226.78 35.9
8 -11 10 252.67 39.6
-3 -8 10 263.77 34.4
-11 3 10 248.08 27.9
-8 11 10 225.38 28.1
-3 -8 10 331.77 32.6
-11 3 10 291.27 31.4
7 -11 -10 524.95 44.3
-11 4 -10 463.15 42.7
-4 -7 -10 560.64 30.6
4 7 -10 607.74 42.3
-11 4 -10 529.25 41.4
11 -4 -10 563.44 46.9
7 -11 -10 534.25 43.9
-7 11 -10 633.54 49.99
-4 -7 10 528.65 40.5
7 -11 10 489.15 49.3
-11 4 10 458.35 37.9
-11 4 10 483.65 39.6
7 -11 10 542.55 43.6
-7 11 10 488.95 37.8
-4 -7 10 570.74 44.3
11 -4 10 472.25 33.9
11 -5 -10 187.58 32
6 -11 -10 167.48 27.9
-11 5 -10 179.78 23.9
-6 11 -10 211.38 34
-11 5 -10 257.07 29.3
5 6 -10 173.28 26.2
6 -11 -10 184.68 29.8
-11 5 10 159.58 26.7
-5 -6 10 172.08 29.2
-11 5 10 171.58 25.6
11 -5 10 160.58 22.3
6 -11 10 172.28 29.7
6 -11 10 216.98 36.5
-5 -6 10 131.59 21.3
11 -6 -10 149.19 24.3
-5 11 -10 208.18 38
-11 6 -10 125.19 21.4
-11 6 -10 142.29 23.3
-5 11 -10 166.68 29.4
5 -11 -10 163.88 27.2
5 -11 -10 148.69 25.6
6 5 -10 142.99 25.6
5 -11 10 194.48 29
-11 6 10 120.69 19.5
-11 6 10 166.98 27.3
-6 -5 10 167.48 28.4
11 -6 10 182.78 24.1
-5 11 10 119.79 20.5
-6 -5 10 138.29 20.6
5 -11 10 153.38 22.6
7 4 -10 605.64 43.1
-11 7 -10 478.95 42.3
11 -7 -10 567.04 51.39
4 -11 -10 591.84 44.2
4 -11 -10 637.84 45.3
-11 7 -10 683.93 49.9
-4 11 -10 627.14 47.2
-7 -4 10 655.33 45.8
-11 7 10 616.44 46.7
4 -11 10 597.74 50.39
11 -7 10 595.84 45.7
-11 7 10 449.46 55.49
4 -11 10 569.64 46.3
-7 -4 10 571.54 42.5
-4 11 10 537.55 38.7
3 -11 -10 296.47 31
-11 8 -10 278.27 33.6
8 3 -10 373.96 32.5
-3 11 -10 265.57 39.7
-11 8 -10 311.27 38.4
3 -11 -10 316.87 31.7
11 -8 -10 285.97 42.6
11 -8 10 342.97 37
3 -11 10 352.86 35.8
-8 -3 10 396.76 36.3
-11 8 10 277.77 38.2
-8 -3 10 346.27 32.8
-11 8 10 345.47 34.8
-3 11 10 361.96 37.3
3 -11 10 407.96 41.6
2 -11 -10 61.69 15.4
2 -11 -10 72.59 19.9
11 -9 -10 81.69 29.7
-11 9 -10 31.6 19.6
-11 9 -10 65.59 20.5
9 2 -10 65.89 16.9
-2 11 -10 76.09 18.1
-2 11 10 103.29 17
-9 -2 10 114.29 19.9
2 -11 10 99.69 22.5
-9 -2 10 64.09 14
-11 9 10 83.59 18.4
2 -11 10 104.89 19.3
-11 9 10 102.19 21.6
1 -11 -10 73.29 14.9
10 1 -10 45.2 16.9
-11 10 -10 76.39 24.1
-11 10 -10 43 34.6
-10 -1 -10 82.09 10.1
1 -11 -10 60.29 15
11 -10 -10 75.89 45.8
-1 11 -10 84.99 18.4
11 -10 10 94.09 22.1
-10 -1 10 87.59 17
-11 10 10 75.49 17.1
-10 -1 10 70.79 27.1
1 -11 10 74.19 25.5
1 -11 10 85.99 19.9
-8 12 -10 142.89 25.4
-12 4 -10 135.29 21.4
8 -12 -10 119.29 23.8
-4 -8 -10 153.78 13.5
12 -4 -10 125.69 23.7
-4 -8 -10 122.39 20.4
4 8 -10 175.58 27.9
8 -12 -10 114.39 22.4
-12 4 -10 165.38 26.8
8 -12 10 155.28 29
-12 4 10 147.09 22.5
-4 -8 10 134.79 32.7
-12 4 10 133.29 21.3
-4 -8 10 134.99 21.9
-8 12 10 156.78 25.5
7 -12 -10 38.7 17.5
-12 5 -10 51.29 14.1
5 7 -10 29.7 15.9
-12 5 -10 46.8 16.1
7 -12 -10 40.7 16.6
-7 12 -10 76.49 21.7
12 -5 -10 50.89 20.7
-12 5 10 49.9 16.3
-5 -7 10 50.29 15.2
7 -12 10 39.5 22.8
-7 12 10 34.8 11.9
-5 -7 10 42.7 24.9
-12 5 10 18 14.4
12 -5 10 23.1 11.9
-12 6 -10 39.9 17.2
12 -6 -10 22.7 19.1
-12 6 -10 35.9 13.9
-6 12 -10 24.3 18.5
6 -12 -10 35 16.1
6 -12 -10 26 16.3
6 -12 10 60.89 20.7
-6 -6 10 38.4 20.1
12 -6 10 30.6 13.1
-6 12 10 34.9 13.5
-12 6 10 22.6 16.8
-12 6 10 20.4 14.5
6 -12 10 -1.3 14.9
-12 7 -10 546.35 45.5
7 5 -10 553.54 40.1
-5 12 -10 523.25 45.6
-12 7 -10 377.86 37.6
12 -7 -10 447.06 49.3
5 -12 -10 384.86 53.99
5 -12 10 426.46 43.9
-5 12 10 425.46 35.4
-7 -5 10 431.66 62.99
5 -12 10 573.74 50.09
-12 7 10 444.46 40.3
-7 -5 10 438.66 39.5
12 -7 10 455.15 40.5
-12 7 10 462.85 41.3
12 -8 -10 524.75 55.59
4 -12 -10 487.35 42
-12 8 -10 574.64 49.7
-4 12 -10 548.65 45
8 4 -10 464.95 40.3
4 -12 -10 528.75 43.1
-12 8 -10 425.96 41.3
-12 8 10 431.96 40.8
4 -12 10 523.65 48.9
4 -12 10 457.25 42.7
12 -8 10 526.25 44.7
-8 -4 10 484.05 42.6
-4 12 10 477.05 35.6
-12 8 10 424.76 59.19
-8 -4 10 411.86 38.6
0 0 -11 2.3 4
0 0 -11 3.5 5.5
0 0 11 3.4 4
-1 0 -11 3511.75 175.08
1 -1 -11 3164.48 175.88
-1 1 -11 3571.44 175.88
0 1 -11 3586.84 176.18
1 -1 -11 3575.54 175.68
1 0 -11 3541.25 176.08
0 -1 -11 3684.63 175.28
0 -1 -11 3604.34 175.18
-1 0 -11 3517.85 175.08
-1 1 -11 3451.45 175.98
0 1 -11 3563.84 176.38
1 0 -11 3630.64 176.08
0 1 11 3852.61 186.18
-1 1 11 4028 186.88
0 -1 11 3758.52 187.38
1 -1 11 3182.68 186.58
1 0 11 3614.54 186.58
-1 0 11 3785.92 186.88
1 -1 11 3739.23 187.78
1 0 11 3805.62 185.68
0 -1 11 3563.84 186.68
-1 0 11 3945.11 187.18
0 1 11 4058.09 185.78
2 -1 -11 4026.9 208.28
1 -2 -11 4101.99 207.58
2 -1 -11 4382.96 208.38
1 1 -11 4182.08 208.68
-1 2 -11 4242.28 208.98
1 -2 -11 4321.67 207.68
-2 1 -11 4134.39 208.08
-1 -1 -11 4368.76 206.58
-2 1 -11 3802.72 207.48
1 1 -11 4447.96 208.68
-1 -1 -11 4085.99 206.38
-2 1 11 4159.98 201.78
-1 2 11 4286.47 200.68
-1 2 11 3758.32 203.88
-2 1 11 4153.68 202.18
-1 -1 11 3955.5 202.08
1 -2 11 4142.39 203.38
1 -2 11 3983.5 202.48
2 -1 11 3903.71 200.68
-1 -1 11 4128.89 202.38
1 1 11 3810.52 201.58
1 1 11 4528.45 199.68
2 -1 11 3912.21 202.18
0 -2 -11 4765.72 238.48
-2 2 -11 4223.48 240.18
-2 0 -11 5071.19 238.68
-2 2 -11 4694.73 240.88
2 -2 -11 5116.69 239.98
0 2 -11 5139.09 240.78
2 0 -11 4914.31 240.08
-2 0 -11 4657.93 238.18
2 0 -11 4881.81 240.28
0 -2 -11 4982 238.58
0 2 -11 4767.22 240.78
2 -2 -11 4862.81 239.88
2 -2 11 4708.63 261.57
-2 2 11 5377.46 257.57
0 2 11 5403.76 255.77
-2 0 11 5059.29 257.27
2 0 11 5105.29 255.67
0 2 11 5500.05 255.07
-2 2 11 5061.49 256.37
2 0 11 5330.27 254.97
-2 0 11 5271.37 257.57
0 -2 11 4987.9 257.77
0 -2 11 5332.67 258.47
-3 1 -11 1434.06 84.29
2 -3 -11 1734.83 85.19
-3 1 -11 1563.74 85.19
3 -1 -11 1665.73 85.99
1 2 -11 1646.94 86.39
-2 3 -11 1630.04 87.49
2 -3 -11 1684.43 85.39
3 -1 -11 1761.02 85.89
-1 -2 -11 1707.63 83.09
1 2 -11 1699.03 86.19
-2 3 -11 1610.54 87.19
-1 -2 -11 1712.03 83.09
-2 3 11 1577.54 78.89
3 -1 11 1536.75 76.59
-1 -2 11 1533.05 79.39
-3 1 11 1551.24 79.19
2 -3 11 1430.16 79.99
1 2 11 1614.64 75.09
1 2 11 1393.96 75.59
3 -1 11 1521.05 76.69
-1 -2 11 1483.55 79.29
-3 1 11 1604.54 78.89
-2 3 11 1388.26 78.09
3 -2 -11 523.35 39.3
-2 -1 -11 674.33 34.3
-3 2 -11 618.04 37.6
2 1 -11 675.63 38
-1 3 -11 594.94 39.2
2 1 -11 679.73 37.7
1 -3 -11 667.53 36.2
3 -2 -11 686.83 37.4
-2 -1 -11 676.23 34.1
-1 3 -11 651.43 38.7
1 -3 -11 679.93 36.1
-3 2 -11 626.44 37.8
3 -2 11 586.14 35.6
3 -2 11 586.84 35.3
2 1 11 669.23 31.9
-1 3 11 667.43 35.3
-2 -1 11 623.04 36.6
-1 3 11 650.83 34
-2 -1 11 622.14 36.5
1 -3 11 609.54 37.7
-3 2 11 625.04 35.9
-3 2 11 680.63 37.1
2 1 11 620.84 32.3
1 -3 11 632.34 37.9
0 3 -11 619.54 38
-3 3 -11 595.74 38.6
0 3 -11 631.14 38.4
3 0 -11 673.13 37.2
-3 0 -11 578.04 35
0 -3 -11 704.53 35.1
0 -3 -11 683.13 34.9
3 -3 -11 711.03 37.2
-3 3 -11 619.74 38.2
3 -3 -11 633.34 37.3
-3 0 -11 595.94 34.1
3 0 -11 623.84 37.3
0 -3 11 583.34 37.2
3 0 11 599.34 31.7
0 3 11 606.44 33.2
3 -3 11 602.54 36.5
-3 3 11 641.24 36.8
3 0 11 646.44 31.7
-3 0 11 585.44 35.9
0 3 11 646.94 32.7
-3 0 11 633.84 36.5
0 -3 11 642.14 37.8
-3 3 11 628.24 35.1
4 -1 -11 316.67 22
-4 1 -11 307.97 20.2
-3 4 -11 310.17 24.6
-1 -3 -11 337.07 18.5
-4 1 -11 269.07 20.3
1 3 -11 301.07 22.8
3 -4 -11 338.27 22
-3 4 -11 278.27 23.6
1 3 -11 291.37 23.5
-1 -3 -11 311.77 18.4
3 -4 -11 314.87 22.3
1 3 11 214.68 11.6
-1 -3 11 209.28 18.9
-3 4 11 207.28 18.3
4 -1 11 214.28 13.3
-4 1 11 194.98 17.6
3 -4 11 191.08 19.3
-1 -3 11 210.18 18.8
4 -1 11 217.88 13
3 -4 11 208.58 18.7
-4 1 11 227.68 18.5
1 3 11 186.08 11.8
2 -4 -11 81.59 11.8
2 2 -11 82.39 12.6
4 -2 -11 79.19 12.6
-2 -2 -11 79.19 7.3
-2 4 -11 95.09 15.5
2 2 -11 78.49 13.3
-4 2 -11 78.89 11.6
-2 -2 -11 85.59 7.6
2 -4 -11 86.59 11.6
-4 2 -11 98.89 12.6
4 -2 -11 101.19 14.2
4 -2 11 78.59 8.7
-2 -2 11 73.59 12.3
2 -4 11 58.69 10.2
-2 4 11 67.89 9.3
-4 2 11 75.39 11.7
4 -2 11 64.99 10
-2 -2 11 41.2 8.3
-2 4 11 75.09 11.7
-4 2 11 48 8.9
4 -3 -11 545.25 31.7
-3 -1 -11 498.95 26.8
-1 4 -11 553.54 34.3
3 1 -11 480.45 32
-1 4 -11 550.74 34.3
-4 3 -11 485.05 32.8
-3 -1 -11 479.45 27.7
3 1 -11 575.44 32.2
1 -4 -11 550.04 30.2
-4 3 -11 457.35 31.9
1 -4 -11 491.05 29.6
4 -3 -11 490.55 31.9
-3 -1 11 539.15 32
1 -4 11 441.16 33.1
4 -3 11 472.75 31.9
-1 4 11 538.15 28.5
-4 3 11 511.35 31
1 -4 11 569.44 33.8
4 -3 11 505.75 30.4
-3 -1 11 494.95 31.6
-1 4 11 526.05 29.8
0 4 -11 281.87 23
0 -4 -11 299.37 18.5
4 -4 -11 280.87 21.8
-4 0 -11 250.67 16.8
4 -4 -11 279.07 20.8
-4 4 -11 254.07 23
4 0 -11 262.37 21.5
-4 0 -11 238.68 16.7
-4 4 -11 264.87 22.5
0 4 -11 292.27 23.4
0 -4 -11 276.17 18.2
4 0 -11 284.47 21.1
-4 0 11 344.87 25.7
0 4 11 373.66 21.9
0 -4 11 359.36 27.7
-4 0 11 367.76 26
-4 4 11 395.26 27.4
0 4 11 393.56 21.4
0 -4 11 391.16 27.4
4 -4 11 403.26 26.4
-4 4 11 387.46 24.7
-1 -4 -11 60.49 8.6
-4 5 -11 35.4 9.5
-1 -4 -11 59.09 8.9
1 4 -11 57.09 11.3
4 -5 -11 61.99 10.4
4 -5 -11 44.5 10.9
-5 1 -11 54.39 9.3
-5 1 -11 39.8 7.6
5 -1 -11 37.4 10.3
-4 5 -11 31.3 9.9
1 4 -11 45.5 10.1
5 -1 11 64.19 6.4
-1 -4 11 54.39 11.1
-5 1 11 52.39 10.4
-5 1 11 74.09 10.9
-4 5 11 37.2 10.7
-4 5 11 64.59 9.7
4 -5 11 79.19 12.3
4 -5 11 58.89 12.9
5 -1 11 62.69 6
-1 -4 11 49.3 9.9
-2 -3 -11 744.23 39.7
5 -2 -11 749.33 45.5
-3 5 -11 819.82 47.8
-3 5 -11 805.32 48.4
2 3 -11 767.12 46.1
-5 2 -11 761.62 43.7
2 3 -11 762.32 46.6
-5 2 -11 755.82 44.3
3 -5 -11 775.42 44.9
5 -2 -11 793.32 44.8
-2 -3 -11 807.92 39.9
3 -5 -11 791.52 44.7
-2 -3 11 635.94 40.9
3 -5 11 669.53 43.7
-5 2 11 712.43 41.2
-2 -3 11 709.73 41.1
-3 5 11 673.53 38.1
5 -2 11 664.83 37.9
3 -5 11 631.94 41.7
-3 5 11 707.03 40.9
-5 2 11 672.23 40.2
5 -2 11 706.33 36.3
-5 3 -11 2154.38 115.89
5 -3 -11 2028.1 115.59
-5 3 -11 2165.88 115.39
-2 5 -11 2296.77 117.69
2 -5 -11 2314.17 114.49
-2 5 -11 2388.46 118.39
-3 -2 -11 2238.68 109.59
3 2 -11 2330.57 116.09
5 -3 -11 2252.07 114.99
2 -5 -11 2169.88 114.09
3 2 -11 2220.68 115.39
2 -5 11 2310.57 118.39
5 -3 11 1960.8 114.49
-5 3 11 2293.17 116.49
-2 5 11 2331.77 112.29
-5 3 11 2263.67 114.29
2 -5 11 2104.59 122.89
-3 -2 11 2201.58 114.99
-3 -2 11 2307.37 114.99
-2 5 11 2202.18 114.19
5 -3 11 2241.98 112.29
4 1 -11 1777.72 91.89
1 -5 -11 1744.93 90.19
-1 5 -11 1895.11 94.69
-5 4 -11 1730.63 93.49
-5 4 -11 1725.73 93.89
-1 5 -11 1853.31 94.69
5 -4 -11 1579.54 92.19
-4 -1 -11 1590.34 86.19
1 -5 -11 1743.83 90.19
-4 -1 -11 1851.01 86.69
4 1 -11 1699.63 92.29
5 -4 -11 1814.92 92.09
-1 5 11 1603.24 82.19
-4 -1 11 1532.75 85.19
-5 4 11 1609.44 84.79
5 -4 11 1423.76 88.29
5 -4 11 1629.64 84.39
-5 4 11 1675.83 87.19
-1 5 11 1638.74 83.59
1 -5 11 1734.13 89.49
1 -5 11 1757.32 87.99
-4 -1 11 1585.24 85.49
0 -5 -11 521.65 30.8
0 -5 -11 549.35 31.3
5 -5 -11 500.85 35.1
0 5 -11 552.14 36.5
-5 5 -11 525.85 36.3
-5 5 -11 513.55 36.6
-5 0 -11 450.35 29.1
5 -5 -11 544.85 34.1
0 5 -11 569.24 36.7
5 0 -11 547.65 33.5
5 -5 11 641.24 40.3
-5 5 11 689.53 42.4
-5 0 11 687.63 40.7
0 -5 11 717.53 42.2
-5 5 11 658.23 39.3
5 -5 11 679.33 44
0 5 11 644.64 35.8
-5 0 11 665.13 40.4
0 5 11 661.73 35.4
0 -5 11 670.53 43.4
6 -1 -11 5.6 8.2
5 -6 -11 13.7 10.7
-6 1 -11 1 8.9
-1 -5 -11 12.5 10
-6 1 -11 4.1 6
-1 -5 -11 11.4 8.6
-5 6 -11 8.4 11.1
1 5 -11 4.3 9.3
-5 6 -11 10.2 10
5 -6 -11 5 7.8
1 5 -11 6.8 8.2
6 -1 -11 -2.2 9.1
5 -6 11 5 8
-5 6 11 10.7 7.6
-6 1 11 12.2 9
-1 -5 11 18.6 9
-1 -5 11 3.9 10.3
-5 6 11 18.4 10.4
5 -6 11 3.6 9.2
-6 1 11 5.1 7.9
2 4 -11 968.1 54.49
-6 2 -11 859.01 51.49
-4 6 -11 939.71 56.39
-2 -4 -11 934.11 47.4
6 -2 -11 894.41 53.59
-2 -4 -11 953.2 47.5
-4 6 -11 948.31 57.39
4 -6 -11 891.71 53.79
6 -2 -11 918.81 52.39
4 -6 -11 946.31 53.49
2 4 -11 900.21 54.19
6 -2 11 789.62 44.1
-6 2 11 817.52 48.3
-4 6 11 773.72 48.7
-2 -4 11 858.81 49.1
6 -2 11 845.22 42.5
-6 2 11 753.32 47.1
4 -6 11 890.91 53.29
-2 -4 11 809.52 49.4
4 -6 11 829.82 50.19
6 -3 -11 1644.64 93.29
3 -6 -11 1678.83 91.89
3 -6 -11 1660.93 91.59
-3 6 -11 1934.11 96.39
6 -3 -11 1669.83 96.39
-6 3 -11 1641.64 92.19
3 3 -11 1721.73 92.49
-6 3 -11 1797.82 91.79
3 3 -11 1758.82 93.19
-3 6 -11 1918.51 96.09
6 -3 11 1681.83 83.79
-3 6 11 1624.74 84.89
-3 6 11 1552.84 87.49
-6 3 11 1723.93 88.59
3 -6 11 1777.72 92.59
-3 -3 11 1649.13 88.19
6 -3 11 1508.85 86.69
-6 3 11 1543.35 88.09
-3 -3 11 1706.73 87.79
3 -6 11 1677.43 89.99
-6 4 -11 2032.4 109.39
-6 4 -11 1989.8 109.59
6 -4 -11 1911.01 109.09
-2 6 -11 2191.48 111.99
2 -6 -11 2019.2 107.59
4 2 -11 2106.69 108.59
-2 6 -11 2317.57 112.49
4 2 -11 2141.89 109.39
6 -4 -11 2089.49 108.39
2 -6 -11 1997.1 107.49
2 -6 11 1821.62 95.39
-4 -2 11 1765.82 91.59
6 -4 11 1695.93 88.89
-6 4 11 1717.13 90.99
-2 6 11 1715.03 90.59
2 -6 11 1819.72 96.09
-6 4 11 1791.32 93.19
-2 6 11 1694.73 88.49
-4 -2 11 1619.84 91.39
6 -4 11 1646.54 93.29
5 1 -11 600.24 37.6
-1 6 -11 642.74 41
-6 5 -11 592.14 40.4
-5 -1 -11 580.64 30.8
6 -5 -11 534.85 39.5
1 -6 -11 596.74 36.9
-6 5 -11 561.14 40.4
5 1 -11 633.74 39.1
-1 6 -11 689.43 41.6
1 -6 -11 594.94 35.9
6 -5 -11 604.04 38.2
6 -5 11 850.91 50.49
-1 6 11 769.52 41.9
6 -5 11 757.82 44.4
-6 5 11 759.62 45.3
1 -6 11 820.62 50.39
-5 -1 11 770.12 45.7
1 -6 11 815.12 48.1
-1 6 11 739.73 43
-6 5 11 743.83 47.8
-5 -1 11 712.23 45.5
0 6 -11 527.15 35.8
0 -6 -11 472.25 29.5
-6 0 -11 437.16 27.2
6 0 -11 462.75 33.2
-6 0 -11 507.35 27.1
6 0 -11 467.05 31.8
-6 6 -11 471.55 36.3
6 -6 -11 426.16 35.1
0 6 -11 512.95 35.5
0 -6 -11 491.45 29.8
6 -6 -11 455.65 33.2
-6 6 -11 478.35 36.5
-6 6 11 516.15 33.6
0 6 11 519.25 28.7
0 6 11 507.25 29
0 -6 11 595.94 39.5
6 -6 11 505.65 34.5
-6 6 11 517.05 37.3
-6 0 11 505.55 34.5
6 -6 11 510.25 39.2
-6 0 11 508.05 34.6
0 -6 11 558.94 37
6 -7 -11 16.7 9.9
-1 -6 -11 40.5 7.8
-7 1 -11 35.8 8.4
-6 7 -11 38.5 14.1
-7 1 -11 27.6 7.8
7 -1 -11 19.2 11.4
1 6 -11 26.1 11.6
1 6 -11 37.7 12.1
7 -1 -11 14.7 8.8
-1 -6 -11 29.1 7
6 -7 -11 23.8 14.3
-6 7 -11 14.2 11.1
-1 -6 11 8.7 11.8
-1 -6 11 3.9 8.9
6 -7 11 5.6 9.9
6 -7 11 -1.3 10.1
-7 1 11 7.5 10.2
-6 7 11 10.5 11.1
-7 1 11 -4.2 9.3
-6 7 11 3.3 8.5
7 -2 -11 361.76 29.4
2 5 -11 407.66 30.9
5 -7 -11 373.56 29.4
-2 -5 -11 380.56 21.9
-5 7 -11 386.36 33.1
-7 2 -11 383.36 26.5
-2 -5 -11 377.46 22.1
-5 7 -11 369.96 33
2 5 -11 363.06 30.7
7 -2 -11 343.77 27.3
5 -7 -11 353.66 30.8
-5 7 11 479.45 36.2
-7 2 11 451.15 33.3
5 -7 11 516.95 40.6
-5 7 11 437.96 31.5
-2 -5 11 498.95 35.9
5 -7 11 527.65 36.7
-7 2 11 520.05 34.6
7 -2 11 510.25 28.3
7 -2 11 516.45 26.7
-2 -5 11 476.65 36.1
3 4 -11 1083.19 61.39
7 -3 -11 998 60.89
4 -7 -11 1016 60.19
4 -7 -11 1044.2 61.09
-7 3 -11 1006.6 59.29
-4 7 -11 1070.29 64.59
7 -3 -11 1040.8 59.39
3 4 -11 1032.4 60.89
-4 7 -11 1187.08 65.19
4 -7 11 1300.77 71.79
-7 3 11 1259.47 69.39
-3 -4 11 1207.78 69.69
-7 3 11 1230.78 68.19
-4 7 11 1222.78 69.69
7 -3 11 1180.78 66.89
-4 7 11 1067.99 66.59
-3 -4 11 1279.37 69.29
7 -3 11 1242.78 64.59
4 -7 11 1354.26 75.29
-3 7 -11 1187.48 67.69
3 -7 -11 1100.69 64.29
-3 7 -11 1334.17 69.29
4 3 -11 1164.68 65.19
7 -4 -11 1080.19 63.39
-7 4 -11 1105.19 64.59
4 3 -11 1138.29 63.99
7 -4 -11 1035.8 64.89
3 -7 -11 1074.39 63.19
3 -7 11 1031.1 59.69
-4 -3 11 956 57.39
-7 4 11 923.21 56.19
-3 7 11 947.31 57.99
3 -7 11 1103.09 63.09
-3 7 11 966.9 53.99
7 -4 11 914.01 57.59
-4 -3 11 1029.2 57.09
-7 4 11 1022.9 58.59
5 2 -11 539.75 36.4
7 -5 -11 512.95 39.2
-2 7 -11 632.44 41.3
-7 5 -11 543.25 39
5 2 -11 545.95 37.8
7 -5 -11 526.45 36.7
-2 7 -11 641.94 44.7
2 -7 -11 527.85 35.3
2 -7 11 543.35 37.9
-7 5 11 501.75 34.7
2 -7 11 556.54 40.4
7 -5 11 482.95 38.3
-7 5 11 552.84 37.3
7 -5 11 504.55 37.7
-2 7 11 503.85 31.1
-5 -2 11 496.15 35.2
-5 -2 11 486.05 34.5
7 -6 -11 811.82 52.29
6 1 -11 824.62 52.09
1 -7 -11 873.11 49.8
-1 7 -11 1001.5 56.09
-7 6 -11 803.52 54.59
1 -7 -11 854.31 49.6
6 1 -11 846.82 51.09
7 -6 -11 804.62 54.09
-1 7 -11 974.6 55.19
7 -6 11 765.52 47.5
-1 7 11 762.12 44.8
-7 6 11 800.82 51.19
1 -7 11 944.81 54.29
-6 -1 11 789.92 48.2
1 -7 11 886.31 51.39
-7 6 11 814.22 48.1
-6 -1 11 745.73 48.1
-1 7 11 757.62 44.8
-1 7 11 795.72 43.6
0 7 -11 832.22 52.89
-7 0 -11 747.63 44.4
7 -7 -11 798.72 53.79
7 0 -11 786.72 52.19
0 -7 -11 789.62 47
7 0 -11 779.62 50.79
7 -7 -11 827.12 51.69
0 -7 -11 869.01 47.5
0 7 -11 935.51 54.59
-7 0 -11 918.71 43.6
-7 7 -11 819.22 55.09
0 7 11 660.83 37.8
7 -7 11 722.03 44.4
-7 7 11 678.53 47.5
7 -7 11 756.02 51.29
-7 7 11 698.53 43.8
-7 0 11 682.13 44
0 7 11 678.83 37.9
0 -7 11 802.02 49.5
0 -7 11 795.92 47.2
-7 0 11 662.23 44.1
7 -8 -11 22.7 15.6
1 7 -11 18.7 10.6
8 -1 -11 48.5 13.6
-8 1 -11 42.6 8.2
-8 1 -11 26.2 8.4
8 -1 -11 42.9 11.3
-7 8 -11 38.6 15.3
-1 -7 -11 37.7 8.4
-1 -7 -11 36.1 8.2
7 -8 -11 11.1 11.1
1 7 -11 13.1 12
-1 -7 11 43.5 14.6
-1 -7 11 64.29 14.4
-7 8 11 71.79 16.3
-8 1 11 54.79 13
7 -8 11 55.79 12.7
7 -8 11 38.6 15
-7 8 11 28.1 10.6
-8 1 11 31.4 11.4
8 -2 -11 119.89 18.8
-6 8 -11 139.99 22.2
2 6 -11 133.19 22.6
6 -8 -11 124.39 21.4
-2 -6 -11 152.18 13.7
-6 8 -11 145.29 24.9
-2 -6 -11 155.48 13.6
-8 2 -11 163.08 18.2
2 6 -11 175.78 22.9
6 -8 -11 161.18 25.7
8 -2 -11 143.49 22.2
8 -2 11 146.29 11
-2 -6 11 164.38 22.2
-6 8 11 150.48 23.5
-2 -6 11 136.89 24.2
6 -8 11 138.69 22.5
-8 2 11 119.69 20.9
-8 2 11 128.29 19.6
8 -2 11 154.28 10
-6 8 11 151.08 18.6
6 -8 11 167.18 27.3
8 -3 -11 381.56 28.7
-3 -5 -11 381.36 20.3
5 -8 -11 355.96 29.8
3 5 -11 283.17 41.8
-5 8 -11 402.26 39.1
-5 8 -11 377.56 34.2
8 -3 -11 338.67 30.6
3 5 -11 350.46 30.5
5 -8 -11 358.06 33.4
-8 3 -11 358.86 28
-5 8 11 375.46 31.4
5 -8 11 379.76 32.9
8 -3 11 332.57 25.3
-3 -5 11 427.46 31.3
5 -8 11 334.07 36.2
-8 3 11 369.46 29.8
8 -3 11 379.26 22
-3 -5 11 365.26 31.6
-8 3 11 348.27 29.2
-8 4 -11 490.25 34.9
4 -8 -11 436.86 32.9
-4 8 -11 471.65 37.5
-4 8 -11 533.85 39.4
4 4 -11 465.95 34.7
4 -8 -11 456.45 37.1
8 -4 -11 446.36 33.3
4 4 -11 309.17 42
-8 4 11 398.16 30.2
-4 8 11 362.76 30.6
-8 4 11 360.96 31
-4 -4 11 381.36 31.7
8 -4 11 353.56 29.2
4 -8 11 426.36 33.6
4 -8 11 386.86 36.6
-4 -4 11 402.76 30.7
-4 8 11 366.66 26.9
-3 8 -11 95.29 17
8 -5 -11 74.99 12.6
-3 8 -11 95.79 16.5
-8 5 -11 73.29 18.5
3 -8 -11 65.89 12.5
-8 5 -11 102.49 24
5 3 -11 68.39 12.1
3 -8 -11 101.59 19.4
5 3 -11 88.29 14.8
8 -5 -11 107.99 18.3
-8 5 11 48.8 12.5
3 -8 11 61.09 14.8
-8 5 11 62.29 14.8
3 -8 11 74.99 14.6
8 -5 11 70.69 14.3
-3 8 11 79.59 14.1
-5 -3 11 95.79 15
-5 -3 11 59.99 12.2
8 -6 -11 540.75 40.5
8 -6 -11 556.84 44.1
2 -8 -11 611.84 39.2
-8 6 -11 506.05 52.39
-2 8 -11 599.54 54.39
2 -8 -11 636.94 39.4
6 2 -11 614.74 41.5
6 2 -11 594.24 39.6
-2 8 -11 752.92 46.8
-6 -2 11 470.85 35.7
-2 8 11 466.45 30.3
2 -8 11 550.34 38.4
2 -8 11 519.65 40.4
8 -6 11 519.05 39.1
8 -6 11 479.55 31.8
-8 6 11 439.66 34.7
-6 -2 11 457.65 34.2
-8 6 11 479.65 37.7
1 -8 -11 1271.47 71.19
-8 7 -11 1201.08 89.99
8 -7 -11 1222.28 73.99
1 -8 -11 1305.97 71.19
8 -7 -11 1259.97 76.99
7 1 -11 1241.18 71.89
-1 8 -11 1470.25 78.79
-1 8 -11 1418.76 76.19
7 1 -11 1246.98 73.79
1 -8 11 1297.37 70.09
-8 7 11 1118.09 69.49
-1 8 11 1137.39 61.09
1 -8 11 1285.87 72.39
-8 7 11 1112.99 66.09
8 -7 11 1070.39 65.49
-7 -1 11 1097.89 66.39
-7 -1 11 1166.38 66.29
8 -8 -11 618.54 45.5
8 -8 -11 641.54 50.19
0 8 -11 675.53 46
8 0 -11 607.14 44.3
0 -8 -11 641.94 40
-8 0 -11 615.84 36.7
-8 0 -11 733.43 36.1
0 8 -11 761.92 48.7
0 -8 -11 633.94 40.1
8 -8 11 646.14 48.3
0 -8 11 577.04 44.6
-8 0 11 551.64 42.8
-8 8 11 613.24 45.3
-8 0 11 498.15 38.8
0 -8 11 606.84 42.5
0 8 11 590.94 31.8
-9 1 -11 18.9 8.7
-8 9 -11 23.6 19.5
8 -9 -11 8 19.5
-1 -8 -11 25.8 8.8
-9 1 -11 34.9 8.2
8 -9 -11 23.8 14.8
1 8 -11 37.3 13.8
9 -1 -11 25.7 13.5
-1 -8 -11 22.9 9
-1 -8 11 40.8 15.2
8 -9 11 41.9 17.9
-9 1 11 3.8 11.3
-8 9 11 12 11.5
-1 -8 11 24.1 12.6
-9 1 11 15.8 11.2
-8 9 11 35.1 17.3
-9 2 -11 85.59 15
7 -9 -11 85.79 35
-7 9 -11 54.19 17.1
-2 -7 -11 92.19 13.5
7 -9 -11 50.99 14.5
-9 2 -11 80.19 12.5
9 -2 -11 46.5 14.4
-2 -7 -11 88.39 12.7
2 7 -11 63.79 14.5
7 -9 11 51.69 14.3
-9 2 11 29.2 12.4
7 -9 11 55.49 18
-9 2 11 57.79 15.9
-7 9 11 36.2 11.4
-2 -7 11 56.99 14.9
-2 -7 11 73.29 17.9
6 -9 -11 373.26 37.7
-6 9 -11 401.06 37.7
-3 -6 -11 363.96 21.7
9 -3 -11 324.37 32.8
9 -3 -11 336.47 28.9
-6 9 -11 382.16 37.3
-9 3 -11 352.56 27.3
6 -9 -11 335.77 32
3 6 -11 395.86 32.7
-9 3 -11 363.56 29
-3 -6 -11 377.96 21.6
6 -9 11 429.66 36.7
-3 -6 11 435.36 45.3
-6 9 11 375.26 29.6
-3 -6 11 422.76 34.4
-9 3 11 398.76 32.6
6 -9 11 432.86 40.7
9 -3 11 388.86 26.5
-9 3 11 358.86 31.6
-9 4 -11 732.33 48.6
-5 9 -11 870.51 55.89
4 5 -11 740.43 49.8
-5 9 -11 914.91 56.59
9 -4 -11 763.52 51.99
4 5 -11 754.62 59.89
5 -9 -11 764.82 53.29
9 -4 -11 666.73 54.79
5 -9 -11 733.43 49.7
-9 4 11 753.22 49
5 -9 11 849.91 56.99
-4 -5 11 825.22 50.49
-9 4 11 708.93 47.9
-5 9 11 651.03 49.6
5 -9 11 773.82 51.89
-4 9 -11 601.04 45.4
-4 9 -11 599.04 43.6
9 -5 -11 485.35 41.7
9 -5 -11 536.95 38.5
-9 5 -11 580.64 40.7
4 -9 -11 488.55 38.5
4 -9 -11 526.85 38.2
5 4 -11 507.15 39.7
4 -9 11 563.74 44.5
4 -9 11 513.55 40.4
9 -5 11 525.95 38.4
-5 -4 11 488.85 37.3
-9 5 11 498.85 38.5
-5 -4 11 555.64 44.4
-9 5 11 495.75 37.5
-4 9 11 484.25 33.9
-3 9 -11 358.46 34.7
6 3 -11 386.56 31.7
3 -9 -11 342.57 29.6
9 -6 -11 303.17 29.7
-3 9 -11 429.06 37.1
9 -6 -11 342.77 35.5
3 -9 -11 333.47 29.9
-9 6 -11 373.36 34.2
-6 -3 11 346.87 29.8
-3 9 11 325.17 25.3
-6 -3 11 331.07 31.4
3 -9 11 354.36 33.7
-9 6 11 378.56 32.9
9 -6 11 305.17 31.6
-9 6 11 317.97 30.3
3 -9 11 372.06 36.6
-9 7 -11 712.83 50.89
9 -7 -11 678.93 47.3
9 -7 -11 632.44 51.79
-2 9 -11 691.03 49.2
2 -9 -11 683.33 44.8
7 2 -11 708.23 46.5
2 -9 -11 713.73 45.5
-2 9 -11 876.21 53.79
-2 9 11 460.15 32.3
2 -9 11 564.14 43.4
-9 7 11 469.35 39.3
2 -9 11 563.04 40.8
-9 7 11 457.15 36.7
-7 -2 11 463.15 37.2
9 -7 11 509.95 42.8
-7 -2 11 510.15 36.7
1 -9 -11 555.54 38.3
9 -8 -11 508.65 47.9
1 -9 -11 613.54 38.6
-9 8 -11 618.64 47.5
9 -8 -11 556.94 43
8 1 -11 567.84 41.4
-1 9 -11 610.44 43.5
-1 9 11 560.64 33.8
-8 -1 11 566.74 39.5
-9 8 11 625.44 45.9
9 -8 11 612.84 47.6
-8 -1 11 520.15 40.3
1 -9 11 615.34 48.9
-9 8 11 498.35 40.1
9 -9 -11 68.89 16.1
9 -9 -11 90.79 25.4
-9 9 -11 71.39 27.1
-9 9 -11 102.09 21.7
-9 0 -11 104.59 13.4
0 -9 -11 128.19 18.9
0 -9 -11 125.49 18.2
0 9 -11 151.28 25.6
-9 0 -11 115.79 12.4
9 0 -11 90.89 16.9
-9 0 11 71.99 15.9
9 -9 11 105.59 23.3
-9 0 11 121.69 20.9
-9 9 11 87.69 16
0 -9 11 104.69 18.8
-9 9 11 66.09 20
0 9 11 122.09 10.3
0 -9 11 120.79 19.4
-10 1 -11 201.78 17.7
-9 10 -11 167.28 28.3
9 -10 -11 197.78 33
10 -1 -11 176.88 27.2
1 9 -11 168.78 27
-1 -9 -11 155.38 19
9 -10 -11 163.68 28.5
-1 -9 -11 176.68 21.3
-10 1 -11 155.78 18.8
-1 -9 11 128.99 22.4
-1 -9 11 166.38 26.5
-10 1 11 106.79 19.1
9 -10 11 98.59 22.4
-9 10 11 120.39 19.4
-10 1 11 134.09 21.7
8 -10 -11 238.18 39.7
-10 2 -11 269.27 24
-8 10 -11 249.78 35.7
2 8 -11 207.68 28.5
-2 -8 -11 250.77 20.8
8 -10 -11 201.68 29.1
10 -2 -11 212.48 30
-10 2 -11 257.67 21.4
-10 2 11 188.08 26.7
-2 -8 11 204.68 27.3
-8 10 11 201.48 25.2
-2 -8 11 277.77 32.9
8 -10 11 246.08 40.3
-10 2 11 227.98 25.8
-10 3 -11 139.09 21
3 7 -11 166.68 23.4
-3 -7 -11 115.89 12.7
-10 3 -11 131.59 18.6
10 -3 -11 101.69 19.5
-3 -7 -11 120.09 13.2
-7 10 -11 124.69 23.7
7 -10 -11 114.79 28.2
7 -10 -11 99.39 17.4
-3 -7 11 111.89 18.4
-10 3 11 94.99 16.5
-7 10 11 71.19 14.2
-3 -7 11 87.79 19.9
7 -10 11 80.29 18.7
-10 3 11 60.39 15.4
7 -10 11 84.09 17.6
6 -10 -11 418.96 37
10 -4 -11 470.45 40.2
6 -10 -11 459.55 38.6
-6 10 -11 504.55 44.2
-6 10 -11 471.15 43.3
-10 4 -11 387.26 31.6
-10 4 -11 490.55 36.2
6 -10 11 406.56 42.3
-6 10 11 302.97 27.4
10 -4 11 359.26 28.4
-10 4 11 351.06 41.1
-4 -6 11 463.75 36.6
-10 4 11 401.56 33.5
6 -10 11 408.96 37.2
-4 -6 11 423.96 37
5 -10 -11 900.31 60.49
-10 5 -11 1065.29 61.69
5 -10 -11 999.3 61.29
-5 10 -11 1117.89 66.19
-10 5 -11 809.22 57.09
10 -5 -11 946.71 65.69
10 -5 -11 985.4 59.59
-5 -5 11 987.9 60.89
-5 10 11 871.11 54.59
-5 -5 11 968.3 59.09
-10 5 11 927.91 58.89
5 -10 11 986.6 65.99
5 -10 11 998.8 61.89
-10 5 11 851.61 57.69
10 -5 11 802.02 66.29
-4 10 -11 923.71 60.29
4 -10 -11 823.22 53.19
-10 6 -11 852.61 56.29
10 -6 -11 713.23 56.69
4 -10 -11 792.82 53.19
-4 10 -11 864.21 57.19
10 -6 -11 783.42 52.49
-10 6 11 715.53 50.19
-10 6 11 734.63 52.19
-4 10 11 725.53 46
10 -6 11 746.63 52.09
4 -10 11 852.61 58.59
4 -10 11 807.42 53.79
-6 -4 11 736.83 49.99
-6 -4 11 771.82 51.99
-3 10 -11 458.85 40.1
10 -7 -11 401.06 42
-3 10 -11 520.15 45.6
3 -10 -11 438.46 35.9
-10 7 -11 462.05 41.4
3 -10 -11 446.06 35.4
10 -7 -11 423.86 35.9
3 -10 11 515.65 44.7
-7 -3 11 446.06 36
-3 10 11 433.26 31.6
10 -7 11 434.46 39.8
-7 -3 11 510.05 39
3 -10 11 547.35 41.5
-10 7 11 423.56 36.9
-10 7 11 388.86 38.3
2 -10 -11 186.38 24.6
8 2 -11 187.08 27.6
10 -8 -11 203.78 30.4
-10 8 -11 225.88 33.4
-2 10 -11 242.88 30.2
2 -10 -11 224.28 24.4
10 -8 -11 200.68 35.9
2 -10 11 258.57 33.8
2 -10 11 228.98 29.9
-8 -2 11 175.38 24.2
-8 -2 11 174.68 27.2
10 -8 11 186.38 31.8
-2 10 11 195.48 19.1
-10 8 11 169.38 26.7
1 -10 -11 82.89 14.7
-10 9 -11 74.69 19.5
10 -9 -11 129.49 29.1
10 -9 -11 65.69 18.2
9 1 -11 50.39 15.7
1 -10 -11 103.59 16
-1 10 -11 94.09 18
-10 9 -11 18.6 23.5
1 -10 11 79.19 18.8
-9 -1 11 65.79 16
-9 -1 11 56.39 15.1
-10 9 11 61.49 16.6
-1 10 11 73.49 9.9
10 -9 11 44.6 17.2
-10 9 11 19.3 27.1
1 -10 11 61.09 15.3
10 0 -11 88.49 19.6
-10 0 -11 162.68 14.6
-10 10 -11 183.38 29.1
0 -10 -11 180.78 24.6
0 -10 -11 162.78 21.4
0 10 -11 209.18 28.2
-10 0 -11 157.98 15.7
10 -10 -11 109.09 20.6
10 -10 -11 139.69 33.7
0 -10 11 187.48 29.1
-10 0 11 139.09 23.6
-10 10 11 145.79 26.3
10 -10 11 157.18 28.9
-10 0 11 167.08 26.8
0 -10 11 130.09 21.9
11 -1 -11 334.77 37.5
-11 2 -11 361.56 26.3
-2 -9 -11 371.56 27.7
11 -2 -11 397.76 37.9
9 -11 -11 309.47 36.9
-9 11 -11 295.37 42.8
-11 2 -11 309.07 28.8
9 -11 -11 324.77 39.6
-11 2 11 318.97 35.8
-2 -9 11 433.56 40.7
-2 -9 11 436.26 37.5
9 -11 11 361.36 45
-11 2 11 304.07 32.2
8 -11 -11 403.16 42.7
-11 3 -11 355.76 37.5
8 -11 -11 337.97 39.2
11 -3 -11 381.16 39
-3 -8 -11 403.16 25.1
-8 11 -11 414.46 45.4
-3 -8 -11 389.36 25
-11 3 -11 370.26 29.2
-3 -8 11 348.77 35
-11 3 11 333.07 33.4
8 -11 11 362.36 43.5
-11 3 11 278.27 30.2
-3 -8 11 391.76 38.3
-8 11 11 292.07 30.7
-7 11 -11 4.2 27.5
-7 11 -11 26.5 19.4
4 7 -11 12.9 13.9
-11 4 -11 23.4 11.6
11 -4 -11 -6.5 13.8
7 -11 -11 18.9 15.5
-11 4 -11 -0.3 11.4
7 -11 -11 5.7 12.9
-7 11 11 -0.7 10.5
-11 4 11 -1.1 13.5
-4 -7 11 7.1 13.7
-4 -7 11 -14.7 15.5
7 -11 11 15.6 17.3
-11 4 11 -0.1 11
-11 5 -11 52.59 15.6
-6 11 -11 54.19 17
11 -5 -11 92.39 21
6 -11 -11 48.5 16.2
-11 5 -11 77.69 15.8
6 -11 -11 81.19 18.2
5 6 -11 51.89 16.6
6 -11 11 79.09 19.5
-11 5 11 70.19 15.3
-11 5 11 68.79 16.7
-5 -6 11 141.89 21.8
-6 11 11 103.99 16.4
-5 -6 11 77.69 17.2
6 -11 11 87.39 21.1
11 -5 11 84.49 14.6
6 5 -11 199.48 28.1
-5 11 -11 203.38 32.6
5 -11 -11 169.68 27.6
11 -6 -11 210.48 33.7
-11 6 -11 179.28 29.6
5 -11 -11 222.38 32.4
-11 6 -11 146.19 24.7
5 -11 11 139.49 24.5
-6 -5 11 194.08 28.1
11 -6 11 224.08 36.2
-5 11 11 205.58 23
-11 6 11 203.08 28.5
-11 6 11 179.58 28.2
5 -11 11 199.98 32.7
-6 -5 11 236.88 30.8
11 -7 -11 171.28 27
7 4 -11 139.79 21.7
4 -11 -11 127.99 19.8
-4 11 -11 194.28 31.8
-11 7 -11 196.58 31.4
-11 7 -11 131.89 21.8
4 -11 -11 173.98 25.9
-11 7 11 154.88 23.9
-7 -4 11 106.69 18.5
11 -7 11 131.29 21.3
-4 11 11 153.08 21.2
-11 7 11 108.69 32.7
-7 -4 11 205.88 30
4 -11 11 156.08 28
4 -11 11 204.38 30.8
11 -8 -11 29.4 21.9
3 -11 -11 68.79 16.3
-3 11 -11 61.79 18.4
-11 8 -11 50.59 19.6
3 -11 -11 72.29 15.6
-11 8 -11 11.2 18.2
8 3 -11 56.49 15.9
3 -11 11 76.79 20.2
-8 -3 11 52.69 16.2
-11 8 11 39.5 14.4
-8 -3 11 43.3 16.7
-3 11 11 74.19 12.5
3 -11 11 81.79 21
11 -8 11 67.39 18.6
-11 8 11 57.89 17.8
-11 9 -11 67.49 20.5
-2 11 -11 74.79 19.2
9 2 -11 56.39 16.3
-11 9 -11 6.1 20.3
2 -11 -11 57.89 14.7
2 -11 -11 32.4 13.3
11 -9 -11 57.49 27.2
-2 11 11 15.3 9.1
-11 9 11 28.1 15.4
-9 -2 11 22.5 12.2
2 -11 11 35.6 15.4
-9 -2 11 23.2 14.8
2 -11 11 35.8 19.5
11 -10 -11 100.79 33.4
10 1 -11 96.39 18.9
-11 10 -11 -25 27.9
12 -4 -11 204.78 35.9
-12 4 -11 238.48 25.4
7 -12 -11 33.9 17.9
5 7 -11 10.8 15.7
7 -12 -11 29.1 21.4
12 -5 -11 15.6 17.3
-12 5 -11 31.4 23.4
-12 5 -11 32.7 15.3
-7 12 -11 59.69 22.3
-5 -7 11 20.8 17.3
-12 5 11 11.2 16.2
-12 5 11 9 15.5
-7 12 11 9.8 8.3
7 -12 11 28.8 18.7
-5 -7 11 -2.9 24
12 -5 11 53.59 13.6
6 6 -11 6.3 15
6 -12 -11 26.1 16.6
-12 6 -11 -10.7 11.4
-12 6 -11 9.6 15
-6 12 -11 -8.6 13.9
12 -6 -11 5.6 18.7
6 -12 -11 -3.9 21.1
-12 6 11 -4.9 13.2
-6 -6 11 15.3 15.4
12 -6 11 -8.7 10.7
6 -12 11 -7 17.4
-6 12 11 6.1 10.5
-6 -6 11 -7.9 28.6
-12 6 11 1.6 13.8
6 -12 11 3.7 16.5
12 -7 -11 -23.3 19.5
7 5 -11 8.7 14
5 -12 -11 -4.6 13.9
-12 7 -11 -6.6 13.2
-5 12 -11 -10.3 13.9
5 -12 -11 -4.4 12.1
-12 7 -11 14.7 16.8
12 -7 11 23.8 20.7
-7 -5 11 2.9 14.4
-12 7 11 1.9 13.7
-7 -5 11 -2.4 17.7
5 -12 11 27.1 19.3
-12 7 11 -3.2 13.1
5 -12 11 4.1 15.5
-5 12 11 0.3 10.7
12 -8 -11 -3.5 22.3
8 4 -11 16 14.8
0 0 -12 6951.8 349.67
0 0 -12 7266.27 349.77
0 0 12 5588.04 279.97
1 0 -12 2727.23 131.29
-1 0 -12 2659.43 130.19
0 1 -12 2639.94 131.29
1 -1 -12 2582.04 130.79
1 -1 -12 2647.64 130.89
0 -1 -12 2679.03 130.29
0 1 -12 2495.55 131.29
1 0 -12 2498.75 131.19
-1 1 -12 2586.64 131.09
0 -1 -12 2644.74 130.29
-1 0 -12 2485.05 129.99
-1 1 -12 2572.84 130.89
-1 0 12 2397.76 124.19
-1 0 12 2533.15 124.69
1 -1 12 2278.27 123.69
-1 1 12 2478.55 126.79
0 -1 12 2533.35 125.19
1 -1 12 2431.46 125.69
0 -1 12 2340.97 124.19
0 1 12 2585.14 123.09
1 0 12 2403.16 124.19
0 1 12 2610.04 123.79
1 0 12 2513.75 123.09
2 -1 -12 955.2 50.89
2 -1 -12 901.91 50.89
-1 -1 -12 995.8 49.1
-2 1 -12 855.01 49.9
-2 1 -12 956.2 50.59
1 -2 -12 979.3 50.19
1 1 -12 919.51 51.29
1 -2 -12 968.2 50.29
-1 2 -12 913.41 51.39
-1 2 -12 904.21 51.49
1 1 -12 986.7 51.29
-1 -1 -12 914.51 48.8
-2 1 12 788.32 42.8
1 1 12 715.23 41.2
1 1 12 822.12 40.3
2 -1 12 785.22 41.6
-1 -1 12 760.82 43.1
1 -2 12 748.63 43.2
-1 -1 12 794.42 43.5
-2 1 12 794.72 43.4
2 -1 12 744.53 42.5
-1 2 12 773.52 42.2
-1 2 12 817.22 41.4
1 -2 12 742.43 48.3
2 0 -12 994.4 54.99
-2 2 -12 980.3 55.19
2 0 -12 1057.49 54.79
0 -2 -12 1047.5 53.09
2 -2 -12 1078.69 54.49
0 2 -12 1047.8 55.19
-2 0 -12 980.3 52.49
-2 0 -12 1054.59 53.09
2 -2 -12 1016.7 54.49
0 -2 -12 1019.6 52.99
0 2 -12 961.2 59.89
-2 2 -12 875.91 54.49
2 -2 12 908.71 53.69
0 2 12 1033.2 52.09
2 0 12 1022.2 51.19
-2 0 12 1087.99 54.39
-2 2 12 1014.6 53.89
2 -2 12 903.81 54.09
0 -2 12 937.91 54.09
-2 0 12 974.4 53.69
0 2 12 1071.99 51.29
2 0 12 972.8 51.89
0 -2 12 1020.3 55.09
2 -3 -12 157.48 13.8
1 2 -12 133.69 15.4
3 -1 -12 150.38 20.2
-3 1 -12 118.79 13.3
-3 1 -12 148.59 12.9
1 2 -12 143.79 14.5
2 -3 -12 128.89 14
-1 -2 -12 136.69 11.1
3 -1 -12 155.48 14.8
-2 3 -12 131.99 15.8
-2 3 -12 132.69 16
-1 -2 -12 139.49 11.3
2 -3 12 190.28 17.6
1 2 12 166.98 12.8
1 2 12 208.98 12.2
3 -1 12 204.88 14.2
-3 1 12 218.08 17.5
-1 -2 12 195.78 17.5
-2 3 12 213.98 16.9
3 -1 12 214.68 14
-1 -2 12 184.88 17.4
2 -3 12 201.18 18.2
-3 1 12 180.98 16.7
-2 3 12 223.98 15.2
1 -3 -12 57.89 10.3
-2 -1 -12 66.39 7.8
-2 -1 -12 61.69 7.6
-1 3 -12 41.8 8.1
-3 2 -12 63.79 11.2
-1 3 -12 37.7 8.7
3 -2 -12 41.6 8.7
3 -2 -12 87.09 11.7
2 1 -12 54.19 8.5
2 1 -12 50.59 9.1
1 -3 -12 67.09 10
-3 2 -12 86.39 11.7
-2 -1 12 48.5 9.2
-1 3 12 65.19 8.3
3 -2 12 59.09 9.9
-1 3 12 56.89 9.5
3 -2 12 45.7 7.6
1 -3 12 54.39 9.4
-3 2 12 55.79 10.5
2 1 12 64.99 5.5
1 -3 12 72.39 15
2 1 12 50.79 6
-3 2 12 51.09 8.3
-2 -1 12 39 7.6
-3 3 -12 558.04 36.1
0 3 -12 530.55 35.9
-3 0 -12 545.95 31.5
3 0 -12 589.34 34.7
3 -3 -12 586.04 35
-3 0 -12 560.94 32.7
-3 3 -12 585.54 36.1
3 -3 -12 595.54 34.5
0 3 -12 612.24 36
3 0 -12 545.75 34.8
0 -3 -12 630.94 32.6
0 -3 -12 609.74 32.6
3 0 12 574.44 30.5
-3 3 12 589.64 33.8
-3 0 12 583.84 35.2
0 -3 12 603.64 36.6
3 -3 12 587.84 35.4
-3 3 12 640.24 35.9
0 3 12 603.74 31.2
-3 0 12 540.85 34.7
0 3 12 576.44 31.8
3 0 12 599.34 30.4
0 -3 12 543.95 35.9
-1 -3 -12 702.43 36.8
-3 4 -12 738.73 43.7
-4 1 -12 566.94 38.1
4 -1 -12 682.23 41
-4 1 -12 684.23 38.8
-3 4 -12 726.43 42.6
1 3 -12 713.43 42.1
4 -1 -12 705.03 40.4
-1 -3 -12 701.63 37
1 3 -12 699.73 41.3
3 -4 -12 731.03 40.3
3 -4 -12 653.23 40.1
-1 -3 12 701.23 41.7
-1 -3 12 740.63 42
1 3 12 591.74 35.3
1 3 12 720.93 35.2
4 -1 12 711.73 36.5
3 -4 12 629.14 42.1
4 -1 12 712.73 36.2
3 -4 12 667.53 41.6
-4 1 12 693.93 40.5
-3 4 12 733.33 41.5
-4 1 12 735.23 41.3
2 -4 -12 628.14 37.4
2 2 -12 687.03 39.1
-2 4 -12 648.44 40.4
2 2 -12 627.74 39.1
4 -2 -12 719.43 39
-4 2 -12 566.84 38
-2 -2 -12 649.74 34.1
-2 -2 -12 637.34 34
2 -4 -12 686.13 37.7
-4 2 -12 617.34 37.8
4 -2 -12 629.44 38.7
-2 4 -12 713.83 41.5
-4 2 12 586.64 34.9
4 -2 12 591.14 33.6
-4 2 12 622.24 38.1
-2 -2 12 584.94 35.7
-2 4 12 586.34 34.7
-2 -2 12 586.74 35.9
-2 4 12 606.14 32.8
4 -2 12 557.94 32.5
2 -4 12 592.54 37.1
2 -4 12 522.95 37
4 -3 -12 1552.14 78.19
-3 -1 -12 1472.05 73.69
3 1 -12 1443.96 78.49
3 1 -12 1510.35 78.39
-1 4 -12 1573.04 80.69
-1 4 -12 1484.05 80.39
1 -4 -12 1541.05 76.69
-4 3 -12 1375.16 79.59
-3 -1 -12 1421.86 74.59
1 -4 -12 1514.85 76.39
4 -3 -12 1414.36 78.39
-4 3 -12 1368.06 78.69
-3 -1 12 1377.96 72.89
-1 4 12 1370.86 70.69
4 -3 12 1228.48 72.59
-4 3 12 1481.75 73.99
-4 3 12 1412.56 71.99
1 -4 12 1322.97 77.49
1 -4 12 1283.47 74.49
4 -3 12 1394.76 71.79
-1 4 12 1432.86 69.59
-3 -1 12 1274.17 72.39
-4 0 -12 2364.16 121.29
-4 0 -12 2251.07 120.69
4 0 -12 2394.76 124.79
0 -4 -12 2573.84 122.09
4 -4 -12 2496.95 124.39
-4 4 -12 2181.98 127.29
4 0 -12 2573.94 124.59
0 -4 -12 2517.35 121.69
0 4 -12 2532.15 126.59
0 4 -12 2470.75 126.19
4 -4 -12 2343.07 124.49
-4 4 -12 2349.17 127.09
0 -4 12 2197.98 119.99
-4 0 12 2269.77 118.39
4 -4 12 2244.68 118.59
-4 4 12 2325.07 117.09
0 -4 12 2459.15 120.29
0 4 12 2209.48 114.49
-4 4 12 2438.46 119.69
-4 0 12 2168.28 117.89
0 4 12 2363.16 114.19
1 4 -12 1597.04 87.49
5 -1 -12 1586.74 86.29
5 -1 -12 1603.94 89.29
-1 -4 -12 1683.73 82.09
4 -5 -12 1588.24 86.09
-5 1 -12 1393.66 83.49
-4 5 -12 1641.04 89.69
1 4 -12 1697.43 87.79
4 -5 -12 1665.63 85.99
-5 1 -12 1675.33 83.19
-1 -4 -12 1653.63 81.89
-4 5 -12 1585.24 88.19
-5 1 12 1568.54 84.39
5 -1 12 1686.03 78.39
4 -5 12 1607.84 85.69
-4 5 12 1549.74 85.29
-1 -4 12 1654.23 85.79
-5 1 12 1515.15 83.59
-4 5 12 1610.64 82.49
4 -5 12 1444.66 86.89
-1 -4 12 1549.54 85.79
3 -5 -12 391.56 27
3 -5 -12 400.46 27.4
2 3 -12 344.67 28.2
-3 5 -12 441.16 31.4
-5 2 -12 396.56 25.9
2 3 -12 417.26 28.5
-2 -3 -12 392.06 21.7
-3 5 -12 384.06 29.7
-2 -3 -12 439.86 22
-5 2 -12 340.57 26.2
5 -2 -12 401.16 27.5
5 -2 -12 348.37 31.8
-5 2 12 444.26 29.7
-2 -3 12 434.66 29.5
-5 2 12 428.06 28.7
3 -5 12 406.46 30.2
5 -2 12 437.96 25.8
-3 5 12 404.96 26.2
5 -2 12 440.76 24.3
-3 5 12 414.66 29.1
3 -5 12 424.86 32.1
-2 -3 12 409.56 29.8
5 -3 -12 278.97 22.6
2 -5 -12 298.07 21.5
-2 5 -12 279.37 25.8
3 2 -12 258.77 23.1
-5 3 -12 277.97 22.2
-5 3 -12 250.97 22.6
5 -3 -12 290.47 23.7
3 2 -12 275.17 23
-3 -2 -12 293.27 15.9
2 -5 -12 256.57 21.4
-3 -2 -12 290.27 16.3
-2 5 -12 330.67 25.6
-5 3 12 379.76 26.4
5 -3 12 339.27 21.5
-3 -2 12 319.67 24.9
-3 -2 12 304.17 25.1
2 -5 12 357.06 27.2
-2 5 12 323.47 23.6
2 -5 12 333.97 27.9
-2 5 12 329.07 21.2
5 -3 12 316.07 23.8
-5 3 12 331.57 24.2
4 1 -12 636.14 38.6
-1 5 -12 676.83 41.3
-4 -1 -12 614.34 32.1
5 -4 -12 630.14 38.4
-5 4 -12 599.64 39.5
1 -5 -12 621.44 36.3
1 -5 -12 610.54 36.4
4 1 -12 609.14 39.1
5 -4 -12 612.84 39.2
-5 4 -12 579.74 40.1
-4 -1 -12 631.74 32.6
-1 5 -12 669.23 43.6
-4 -1 12 517.25 33.6
-5 4 12 541.95 35.3
-1 5 12 549.65 29.6
5 -4 12 524.55 32.2
1 -5 12 540.45 37
-5 4 12 509.25 32.7
-1 5 12 513.75 30.8
-4 -1 12 537.75 33.8
5 -4 12 465.45 34.3
1 -5 12 486.15 42.4
5 -5 -12 990.6 59.49
5 0 -12 1052.39 58.29
-5 0 -12 919.71 53.79
-5 5 -12 1022.4 60.99
0 5 -12 1168.58 61.89
5 -5 -12 1063.09 58.89
-5 5 -12 1068.09 61.99
0 5 -12 1028 61.19
0 -5 -12 1064.49 55.79
0 -5 -12 1066.89 55.79
-5 0 12 1036.6 58.29
-5 5 12 1025.3 59.59
0 -5 12 1064.39 59.59
5 -5 12 1028 58.19
0 5 12 1019 53.19
-5 0 12 1048.2 58.09
-5 5 12 1031.7 56.89
0 5 12 1010.5 52.79
0 -5 12 1018.5 60.99
-5 6 -12 115.89 18.2
-5 6 -12 152.08 20.6
-1 -5 -12 137.69 12.9
6 -1 -12 143.79 17.4
1 5 -12 136.49 20.3
5 -6 -12 145.29 20.7
5 -6 -12 145.79 18.7
-6 1 -12 103.79 13.5
6 -1 -12 138.59 18.6
1 5 -12 145.99 20.4
-6 1 12 107.59 16.9
-1 -5 12 122.49 20.1
-5 6 12 106.69 14.8
-6 1 12 104.89 17.7
-1 -5 12 121.29 18.6
-5 6 12 101.49 17.9
5 -6 12 126.49 18.2
5 -6 12 85.79 16.3
6 -2 -12 73.39 13.8
-2 -4 -12 86.29 8.8
2 4 -12 75.49 13.8
-6 2 -12 94.49 14.2
4 -6 -12 77.39 13.2
2 4 -12 99.69 17.2
4 -6 -12 85.79 12.8
-4 6 -12 55.19 12.3
6 -2 -12 72.19 11.1
-4 6 -12 78.99 13.3
6 -2 12 78.99 8.3
-4 6 12 59.29 12.1
-2 -4 12 79.79 14.2
6 -2 12 67.69 9.8
-6 2 12 58.99 10.5
-2 -4 12 68.59 12.3
4 -6 12 65.19 13.3
-6 2 12 71.19 12.6
4 -6 12 68.49 12.4
-6 3 -12 458.65 33.1
-3 6 -12 544.95 37.2
-3 6 -12 486.35 36.6
3 3 -12 499.95 34.9
3 -6 -12 503.15 33.2
-6 3 -12 524.95 32.6
3 3 -12 475.85 33.5
6 -3 -12 472.35 34
3 -6 -12 502.55 32.9
3 -6 12 482.85 36.6
6 -3 12 493.05 27.6
-3 6 12 506.65 32.8
-6 3 12 407.56 35.2
6 -3 12 451.65 30.5
-6 3 12 507.95 33.6
-3 6 12 465.95 29
-3 -3 12 438.76 32.8
3 -6 12 489.25 34.6
-3 -3 12 485.75 32.7
-2 6 -12 423.46 32.3
2 -6 -12 399.86 27.9
4 2 -12 400.06 29
6 -4 -12 375.06 30.1
-6 4 -12 394.86 30.4
-6 4 -12 383.86 28.9
-2 6 -12 429.56 33.1
2 -6 -12 366.76 27.1
4 2 -12 350.76 29.3
6 -4 -12 413.86 29.2
2 -6 12 458.75 35.2
6 -4 12 406.86 31.2
-4 -2 12 466.95 31
-2 6 12 408.46 29
6 -4 12 431.86 27.4
2 -6 12 476.95 33.4
-4 -2 12 425.76 31.4
-2 6 12 427.26 26.8
-6 4 12 442.16 30.4
-6 4 12 463.95 32.7
6 -5 -12 131.49 20.7
1 -6 -12 139.79 15.7
5 1 -12 109.29 18.8
-1 6 -12 183.08 21.8
-6 5 -12 134.49 19.8
1 -6 -12 146.59 16.9
6 -5 -12 166.68 19.2
-1 6 -12 134.29 25.2
5 1 -12 114.09 18.1
-6 5 -12 158.68 21.6
6 -5 12 186.38 17.9
-6 5 12 168.48 19.2
1 -6 12 210.08 24.8
-1 6 12 174.58 14.6
-5 -1 12 158.28 20.1
-5 -1 12 194.38 20
-6 5 12 193.68 22.6
1 -6 12 198.28 26.7
-1 6 12 188.18 16.1
0 -6 -12 25.3 7.6
0 6 -12 18.5 11.6
-6 6 -12 27.8 12.6
-6 6 -12 32.2 10.8
0 6 -12 19.7 11.9
0 -6 -12 15 10.9
6 0 -12 18.2 8.5
6 -6 -12 29.6 12.9
6 0 -12 33 11.7
6 -6 -12 25.7 9.2
-6 0 -12 20.2 7.3
-6 0 -12 16.9 5.8
6 -6 12 18.7 9.6
6 -6 12 28.1 12.2
0 6 12 21.2 4.8
-6 6 12 13.5 8.9
0 6 12 25.3 5.4
0 -6 12 18.9 10.7
-6 0 12 14.1 9
-6 6 12 36.6 12.3
-6 0 12 4.7 8.4
0 -6 12 11.1 12.3
-7 1 -12 251.57 20.5
1 6 -12 282.57 28
1 6 -12 286.87 27.4
-1 -6 -12 262.07 19.5
-6 7 -12 269.47 29.8
7 -1 -12 292.77 24.3
-6 7 -12 281.97 28.7
-1 -6 -12 266.57 20.9
6 -7 -12 259.87 25.7
6 -7 -12 263.97 27.8
7 -1 -12 260.07 25.8
-6 7 12 225.58 22.1
-1 -6 12 261.97 25.5
-1 -6 12 296.87 28.9
6 -7 12 292.57 30.6
6 -7 12 289.47 25.5
-7 1 12 247.58 24.5
-6 7 12 236.28 26.3
-7 1 12 256.57 24.4
2 5 -12 53.39 12.5
5 -7 -12 75.39 15.1
-2 -5 -12 72.69 8.8
-7 2 -12 71.49 11.1
-2 -5 -12 63.79 9.2
7 -2 -12 61.19 13
-5 7 -12 69.29 14.8
-5 7 -12 43.3 14.5
-7 2 -12 45.8 12.3
7 -2 -12 46.2 10
2 5 -12 64.19 13.2
5 -7 -12 60.59 13.3
-5 7 12 61.39 10.3
5 -7 12 72.59 15.1
-5 7 12 106.29 16.6
5 -7 12 63.69 12.9
7 -2 12 90.09 9.5
7 -2 12 95.09 9.3
-2 -5 12 107.59 16.2
-2 -5 12 53.49 12.9
-7 2 12 69.69 12.4
-7 2 12 59.89 11.5
3 4 -12 315.07 27.5
-4 7 -12 358.86 31
4 -7 -12 329.37 28.8
-7 3 -12 322.77 26
3 4 -12 313.87 28.2
-4 7 -12 339.67 31.3
7 -3 -12 304.27 26
-7 3 12 305.57 26.8
4 -7 12 305.97 27.9
-4 7 12 252.67 23.2
4 -7 12 326.77 31.9
-3 -4 12 306.67 26.4
-7 3 12 302.37 25.6
7 -3 12 292.97 22.4
7 -3 12 301.97 19.3
-3 -4 12 295.27 27.3
-3 7 -12 2632.84 125.09
7 -4 -12 2089.19 120.59
-7 4 -12 2202.58 120.89
4 3 -12 2299.87 121.39
3 -7 -12 2224.18 119.79
3 -7 -12 2205.48 119.39
4 3 -12 2222.08 120.19
-3 7 -12 2486.65 123.99
7 -4 -12 2293.27 119.89
3 -7 12 2433.56 121.59
3 -7 12 2424.46 124.99
-3 7 12 2165.68 118.09
7 -4 12 2061.09 118.49
-4 -3 12 2371.26 118.89
-7 4 12 2215.68 117.89
-7 4 12 2223.88 119.69
-4 -3 12 2274.87 119.49
-3 7 12 2179.08 115.29
-2 7 -12 3146.29 147.49
5 2 -12 2821.52 144.69
-2 7 -12 3158.78 148.29
5 2 -12 2744.53 143.19
2 -7 -12 2662.73 142.09
7 -5 -12 2685.93 143.39
7 -5 -12 2471.35 144.29
2 -7 -12 2705.33 142.69
-7 5 -12 2579.64 145.09
-7 5 12 2420.16 129.99
2 -7 12 2827.12 136.09
7 -5 12 2401.86 127.19
2 -7 12 2728.03 133.29
-5 -2 12 2392.56 130.19
-5 -2 12 2408.06 129.79
-7 5 12 2477.65 132.19
7 -5 12 2429.06 132.89
-2 7 12 2440.66 126.59
6 1 -12 1380.46 76.09
-1 7 -12 1532.15 79.49
-7 6 -12 1263.37 78.39
7 -6 -12 1232.88 76.69
-1 7 -12 1423.26 78.29
7 -6 -12 1299.47 75.79
6 1 -12 1368.66 74.69
1 -7 -12 1164.28 77.49
-7 6 -12 1378.76 78.19
1 -7 -12 1420.86 73.19
-1 7 12 1245.38 70.89
-6 -1 12 1328.77 74.69
-6 -1 12 1313.07 74.89
-1 7 12 1270.67 70.99
1 -7 12 1497.65 80.69
7 -6 12 1313.77 73.29
-7 6 12 1414.06 77.89
1 -7 12 1513.85 78.39
7 -6 12 1355.36 81.39
-7 6 12 1319.57 74.39
0 -7 -12 46.1 11.9
0 7 -12 48.7 14.2
7 -7 -12 24.3 14.2
-7 7 -12 21.4 14.1
-7 7 -12 44.5 13.9
7 -7 -12 29.8 12.4
0 -7 -12 19 8.4
7 0 -12 11.2 12.1
7 0 -12 51.59 13.8
0 7 -12 36.5 11.9
-7 0 -12 46.1 6.7
0 -7 12 28.6 11.1
-7 0 12 51.79 12.7
0 7 12 40.8 6
-7 7 12 43.9 11.1
7 -7 12 41.1 11
-7 7 12 23.8 11.8
7 -7 12 33.1 12.5
0 -7 12 40.5 15.7
0 7 12 41 6.1
-7 0 12 57.49 13
-7 8 -12 244.28 29.9
-1 -7 -12 219.98 18.4
1 7 -12 240.58 27.5
-8 1 -12 236.98 17.9
-8 1 -12 189.78 18.7
7 -8 -12 167.98 28.3
-1 -7 -12 245.08 19.2
1 7 -12 214.28 27
8 -1 -12 200.08 22.5
7 -8 -12 201.08 25.9
8 -1 -12 213.98 25.4
-7 8 -12 263.67 30.9
-1 -7 12 250.47 29.3
-1 -7 12 242.98 26.6
-8 1 12 167.68 24
7 -8 12 218.18 25
-7 8 12 258.37 27.5
7 -8 12 213.58 30.5
-8 1 12 240.78 24.3
-7 8 12 196.58 22.5
-2 -6 -12 451.85 26.8
-6 8 -12 509.55 40.2
2 6 -12 515.45 36.8
6 -8 -12 427.36 35.3
-2 -6 -12 470.85 27.3
8 -2 -12 434.66 34.2
-8 2 -12 451.15 31.2
2 6 -12 458.95 36.8
6 -8 -12 458.85 38.6
-6 8 -12 473.45 39.7
8 -2 -12 423.36 35.3
-2 -6 12 497.65 39.4
6 -8 12 538.55 43.6
-8 2 12 463.35 35.2
-8 2 12 501.55 35.7
-6 8 12 471.85 33.2
-6 8 12 469.25 38
-2 -6 12 551.84 38.1
8 -3 -12 32.5 10.5
5 -8 -12 22.5 15.3
-5 8 -12 20.4 13.9
8 -3 -12 28.1 12
5 -8 -12 30.1 11.8
-5 8 -12 51.69 21
-8 3 -12 14.1 12.4
-8 3 -12 46 11.4
3 5 -12 27 12.9
3 5 -12 41.3 12.5
5 -8 12 47.6 16.4
-8 3 12 23.3 11.8
-5 8 12 13.8 11.8
8 -3 12 32.6 7.9
-3 -5 12 40.7 13.3
5 -8 12 22.2 12.7
-8 3 12 33 11.5
-3 -5 12 29.2 13.5
8 -4 -12 879.61 55.49
-4 8 -12 931.61 58.69
4 4 -12 921.01 56.09
-8 4 -12 925.61 54.49
8 -4 -12 896.21 53.49
4 -8 -12 838.42 53.59
4 4 -12 840.42 55.19
-4 8 -12 1071.29 60.39
4 -8 -12 721.63 58.49
4 -8 12 1061.89 62.89
-4 -4 12 952.7 56.89
-4 8 12 891.51 51.99
-4 -4 12 986.1 56.09
-8 4 12 880.11 54.89
-4 8 12 807.22 54.79
4 -8 12 997.3 59.29
8 -4 12 812.62 53.59
-8 4 12 947.01 56.49
-8 5 -12 3094.39 163.08
-3 8 -12 3269.27 164.98
8 -5 -12 2863.61 162.68
5 3 -12 3010 160.78
8 -5 -12 2968.4 160.78
3 -8 -12 3061.39 160.58
5 3 -12 3084.29 162.18
-3 8 -12 3620.04 166.98
-8 5 12 2847.62 150.28
3 -8 12 3043.6 154.58
8 -5 12 2796.42 150.38
3 -8 12 3150.28 152.38
-3 8 12 2797.32 145.29
-8 5 12 2694.63 147.69
-5 -3 12 2853.11 149.29
-5 -3 12 2710.63 148.09
8 -6 -12 2010.3 109.49
-8 6 -12 2025.2 112.09
2 -8 -12 2032.1 107.69
8 -6 -12 1827.82 111.29
6 2 -12 1984.2 109.89
2 -8 -12 1940.11 107.39
-2 8 -12 2342.37 114.39
-2 8 -12 2146.09 112.19
6 2 -12 2034.9 108.49
2 -8 12 2155.98 111.09
-6 -2 12 1865.71 104.49
-8 6 12 1962.1 107.69
2 -8 12 2137.79 108.09
-6 -2 12 1810.42 104.69
-2 8 12 1894.61 100.59
8 -6 12 1955.5 108.89
-8 6 12 1890.81 104.59
7 1 -12 231.28 26
1 -8 -12 242.38 22
-1 8 -12 211.08 28
7 1 -12 200.18 22.9
8 -7 -12 186.38 25.4
-8 7 -12 283.87 30.5
1 -8 -12 208.08 22
8 -7 -12 204.08 29.9
-1 8 -12 258.27 33.1
-7 -1 12 208.18 23.5
1 -8 12 219.28 30.3
-7 -1 12 195.28 25
-8 7 12 171.28 23.3
-8 7 12 218.38 27.5
1 -8 12 191.88 26.5
-1 8 12 212.08 16.7
-8 0 -12 124.69 13.3
0 8 -12 103.69 17.2
-8 8 -12 176.18 25.1
-8 0 -12 150.78 12.6
0 -8 -12 126.09 17.2
8 -8 -12 132.39 22.3
8 -8 -12 148.19 20.8
0 -8 -12 132.89 17.4
8 0 -12 127.99 23.1
0 8 -12 161.18 25.2
0 8 12 144.69 11.4
-8 8 12 143.59 24.5
0 -8 12 143.19 22.1
-8 0 12 170.98 22.3
8 -8 12 117.29 21.6
-8 8 12 138.99 22.2
0 -8 12 151.88 20.9
-8 0 12 128.19 22.9
-9 1 -12 332.37 25.7
-8 9 -12 412.26 39.7
-1 -8 -12 381.46 26.3
8 -9 -12 349.77 33.9
8 -9 -12 362.26 42.6
-1 -8 -12 384.86 26.5
-9 1 -12 352.96 24.2
9 -1 -12 390.36 34.2
1 8 -12 401.96 35.7
-1 -8 12 413.86 37.7
8 -9 12 353.46 39.2
-9 1 12 323.37 31.1
-9 1 12 331.37 29.8
-8 9 12 337.17 30
-1 -8 12 388.46 34.4
-2 -7 -12 603.94 34.6
-7 9 -12 599.64 48.8
-9 2 -12 589.34 36.1
-2 -7 -12 603.24 35
-9 2 -12 612.54 38.1
7 -9 -12 541.75 47.6
2 7 -12 645.74 44
9 -2 -12 555.14 43.2
7 -9 -12 558.24 43.6
-9 2 12 456.75 48.6
-2 -7 12 638.04 45.6
7 -9 12 658.33 49.99
7 -9 12 552.14 42.5
-2 -7 12 606.64 42.8
-9 2 12 578.64 40.4
-7 9 12 513.65 37.8
-6 9 -12 549.05 44.5
-3 -6 -12 507.35 27.4
9 -3 -12 471.85 35.4
-9 3 -12 548.65 36
3 6 -12 502.55 38.8
9 -3 -12 492.25 39.5
6 -9 -12 448.56 37.9
6 -9 -12 447.76 42.3
-6 9 -12 570.34 44.7
6 -9 12 469.15 39
-3 -6 12 540.85 39.3
9 -3 12 485.75 29.4
-9 3 12 447.76 36.2
-6 9 12 454.25 33.5
-3 -6 12 528.95 41.2
6 -9 12 554.94 45.1
9 -4 -12 14.8 13.8
-9 4 -12 29.6 11.9
-5 9 -12 23.9 16.2
-5 9 -12 15.3 13.1
9 -4 -12 30.6 11.2
5 -9 -12 29.1 18.1
4 5 -12 15.6 12.5
-9 4 -12 -6.5 11.5
5 -9 -12 15.4 10.8
-4 -5 12 31.5 12.5
-4 -5 12 35.4 16
9 -4 12 43.7 10.5
-5 9 12 41.3 14.2
-9 4 12 35.7 12.8
-9 4 12 45.7 14.1
5 -9 12 36.8 15.3
5 -9 12 50.49 16
4 -9 -12 1169.88 72.99
-4 9 -12 1420.96 76.69
9 -5 -12 1072.39 70.99
-4 9 -12 1200.98 72.89
-9 5 -12 1201.98 70.19
5 4 -12 1141.89 69.89
9 -5 -12 1063.19 67.89
4 -9 -12 1173.68 68.79
-5 -4 12 984.7 61.29
-9 5 12 946.51 60.69
-5 -4 12 1123.79 64.19
4 -9 12 1069.79 64.89
-4 9 12 997.9 57.89
9 -5 12 973.5 61.29
4 -9 12 1151.08 68.89
-9 5 12 945.41 62.39
-3 9 -12 1526.75 84.69
6 3 -12 1359.06 81.39
-9 6 -12 1457.75 83.99
-3 9 -12 1654.63 87.39
9 -6 -12 1368.66 80.69
3 -9 -12 1358.16 79.69
3 -9 -12 1421.96 80.19
9 -6 -12 1286.37 83.49
9 -6 12 1319.27 75.79
-9 6 12 1183.78 71.99
-3 9 12 1180.68 68.19
-6 -3 12 1216.28 73.19
-9 6 12 1228.88 74.99
3 -9 12 1376.86 79.29
3 -9 12 1367.26 76.69
-6 -3 12 1206.18 72.19
2 -9 -12 326.67 28
9 -7 -12 274.37 34.9
-2 9 -12 385.26 35.8
7 2 -12 311.77 30.8
9 -7 -12 313.77 30.9
-2 9 -12 330.27 33.8
2 -9 -12 311.97 28.3
-9 7 -12 354.36 35.4
2 -9 12 399.36 34.1
-9 7 12 297.47 32.2
2 -9 12 371.36 37.4
-9 7 12 282.97 30
9 -7 12 333.07 34
-7 -2 12 321.97 31.1
-2 9 12 301.47 23.5
-7 -2 12 312.67 29.3
8 1 -12 130.29 20
9 -8 -12 129.59 23.7
-9 8 -12 108.99 20.6
9 -8 -12 138.69 24.6
1 -9 -12 104.49 20.5
-1 9 -12 127.29 21
-9 8 -12 75.79 25.6
1 -9 -12 107.99 19.4
1 -9 12 103.69 17.7
-8 -1 12 82.39 15.1
-9 8 12 95.79 16.9
1 -9 12 79.59 19.1
-1 9 12 78.79 12.2
-9 8 12 85.09 19.5
-8 -1 12 61.89 15.5
-9 0 -12 354.36 22.4
0 -9 -12 295.67 25.6
9 -9 -12 264.37 31.5
0 -9 -12 270.47 24.7
9 -9 -12 328.17 46
0 9 -12 318.37 32.1
-9 9 -12 313.67 38.3
9 0 -12 285.57 31.6
-9 0 -12 264.27 20.1
-9 0 12 219.18 28.1
9 -9 12 317.37 37.5
-9 9 12 246.28 27.4
-9 0 12 234.28 25.6
0 -9 12 257.87 34
-1 -9 -12 10.6 10.3
10 -1 -12 -13.5 11.6
-1 -9 -12 20.6 9.2
9 -10 -12 -3.4 24.7
-10 1 -12 24.4 8.9
9 -10 -12 9.8 12.8
-9 10 -12 -34.1 25.5
1 9 -12 10.1 13
-10 1 -12 8 8
-9 10 -12 20.7 18.1
-10 1 12 -3.2 10.3
9 -10 12 16.4 18.3
-9 10 12 3.9 11.4
-10 1 12 15.4 14.8
-1 -9 12 10.7 17.2
-1 -9 12 8.5 12.7
-10 2 -12 14.4 10.4
-2 -8 -12 15.1 7.9
-8 10 -12 14.6 18.8
-10 2 -12 25 9.7
-8 10 -12 -45.4 22.9
2 8 -12 28.9 13.9
10 -2 -12 20.7 15.1
8 -10 -12 18.7 14.2
-2 -8 -12 33.2 9.1
8 -10 -12 0.8 21.2
-8 10 12 28.3 12.3
-10 2 12 19.7 14.3
-2 -8 12 26.5 16.3
-2 -8 12 12.4 14
8 -10 12 42.2 18
-10 2 12 25.2 12.4
10 -3 -12 274.67 31.6
3 7 -12 275.57 30.2
-10 3 -12 251.77 26.1
-7 10 -12 267.27 36.3
-3 -7 -12 266.97 17.7
-10 3 -12 254.07 23.2
7 -10 -12 252.27 29.5
7 -10 -12 255.27 37.8
-3 -7 -12 247.38 21.4
-10 3 12 197.78 27.6
-3 -7 12 254.87 31.9
-7 10 12 172.88 23
-10 3 12 188.98 34
-3 -7 12 227.68 28.3
7 -10 12 254.87 36.7
-10 4 -12 260.97 27.4
-6 10 -12 297.97 35.7
-6 10 -12 273.77 35.5
4 6 -12 250.47 29.2
-10 4 -12 214.48 23.6
6 -10 -12 230.98 28.8
10 -4 -12 229.18 30.9
-4 -6 12 240.68 31.3
6 -10 12 246.78 36
-4 -6 12 223.88 28.6
-10 4 12 157.68 23.9
6 -10 12 212.58 29.8
10 -4 12 213.48 20.4
-10 4 12 193.58 25.7
5 -10 -12 5.8 11.7
5 -10 -12 22.6 14.2
-5 10 -12 17.5 16.7
-5 10 -12 4.5 13.2
-10 5 -12 14.8 13.3
5 5 -12 25.1 12.8
10 -5 -12 8 12.9
-10 5 -12 -15.9 12.5
10 -5 -12 9.9 14.8
-5 10 12 0.7 8.7
-5 -5 12 4.5 12.9
5 -10 12 -0.8 14.4
-10 5 12 4.8 11.7
5 -10 12 26.9 17.4
-10 5 12 -3.3 12.7
-5 -5 12 -3.9 13.7
10 -5 12 22.1 10.1
4 -10 -12 151.68 25.3
4 -10 -12 185.28 25
10 -6 -12 194.18 26.4
-4 10 -12 219.58 32.6
6 4 -12 143.89 22.1
-4 10 -12 180.68 30.2
10 -6 -12 181.08 31.6
-10 6 -12 205.48 28.9
-6 -4 12 153.98 25
-6 -4 12 177.28 28.2
-10 6 12 156.78 25.8
-10 6 12 171.58 26.8
4 -10 12 157.08 25.8
4 -10 12 169.48 27.7
10 -6 12 196.88 25.5
-4 10 12 161.78 20.2
-3 10 -12 49 17.6
10 -7 -12 41.6 14.2
-10 7 -12 43.9 16.5
3 -10 -12 24.6 13
10 -7 -12 49.9 19.9
3 -10 -12 42.6 13.2
-3 10 -12 47.5 19.6
3 -10 12 24.5 13.9
-7 -3 12 44.5 16
3 -10 12 42.5 17.9
-10 7 12 27.3 16
-7 -3 12 23.7 13.4
-3 10 12 32.6 9.8
-10 7 12 19.7 14.1
10 -7 12 38.8 14.6
-10 8 -12 171.58 26.3
10 -8 -12 134.29 26.7
2 -10 -12 174.48 23.5
2 -10 -12 174.08 23.1
-2 10 -12 183.48 28.5
10 -8 -12 124.69 25.9
10 -8 12 158.78 25.1
2 -10 12 160.68 23.5
-8 -2 12 143.19 22.9
-8 -2 12 162.38 26.7
2 -10 12 112.99 21.3
-10 8 12 156.68 25.7
-2 10 12 142.09 16.8
-10 8 12 140.89 23.2
-10 9 -12 385.26 42.7
1 -10 -12 439.26 32.4
10 -9 -12 395.96 43.1
-1 10 -12 375.56 37.4
1 -10 -12 380.86 31.9
10 -9 -12 344.77 46.7
-1 10 12 362.46 23.6
-10 9 12 308.67 33.9
-9 -1 12 360.26 34.9
1 -10 12 379.76 40.6
1 -10 12 382.96 36.8
10 -9 12 447.56 41.7
-9 -1 12 317.67 31.8
-10 10 -12 25.9 19.3
-10 10 -12 -13.1 26.5
10 -10 -12 9.9 14
-10 0 -12 16.3 6.6
10 0 -12 -14.1 7.9
0 10 -12 29.1 15.2
0 -10 -12 27.5 10.8
-10 0 -12 26 7.4
0 -10 -12 11.1 11.2
10 -10 -12 19 27.6
-10 10 12 15.6 13.5
0 -10 12 20.9 13.6
-10 0 12 15.9 14.9
10 -10 12 7.8 15.9
0 -10 12 44.2 19.7
-10 0 12 11.7 12.6
-9 11 -12 94.69 25.5
9 -11 -12 98.39 20.7
-2 -9 -12 74.99 11.6
-9 11 -12 20.2 31.6
-2 -9 -12 63.99 15.1
-11 2 -12 77.49 13.9
-11 2 -12 95.39 12.8
11 -2 -12 63.39 17.9
2 9 -12 94.19 19.3
-11 2 12 62.79 17.7
-2 -9 12 59.99 19.8
-2 -9 12 73.69 19
9 -11 12 106.09 26.5
-11 2 12 77.29 16.4
-9 11 12 60.09 15
3 8 -12 21.8 11
-3 -8 -12 15.1 6.3
-8 11 -12 13.4 17.6
-3 -8 -12 21.6 7.3
11 -3 -12 3.2 15.4
-11 3 -12 5.7 11.7
8 -11 -12 15.5 16.4
8 -11 -12 35.7 29.2
-11 3 -12 2 9.9
-8 11 -12 -2.8 27.7
-11 3 12 2.7 17.1
8 -11 12 8.9 16.8
-8 11 12 3.6 10.7
-11 3 12 7.2 14.6
-3 -8 12 12.8 14.6
-3 -8 12 19.3 18.4
-7 11 -12 8.8 31.4
-11 4 -12 139.99 24.7
7 -11 -12 173.08 29.8
11 -4 -12 102.39 21.1
-7 11 -12 151.98 27.7
-11 4 -12 123.49 20.8
7 -11 -12 108.79 20.1
-4 -7 12 186.88 32
-7 11 12 133.59 22.1
-11 4 12 102.59 19.4
-4 -7 12 183.88 27.4
11 -4 12 124.69 14.7
-11 4 12 86.79 17
7 -11 12 147.99 28.5
-11 5 -12 82.29 17.6
-6 11 -12 45.4 17.5
-11 5 -12 73.19 16.2
6 -11 -12 72.89 17.7
11 -5 -12 57.49 19.2
6 -11 -12 88.59 19.7
6 -11 12 108.59 25
-5 -6 12 128.89 22.9
-6 11 12 62.69 13.6
-11 5 12 155.38 24.3
11 -5 12 82.59 14
-11 5 12 81.99 19
6 -11 12 109.29 21.5
-5 -6 12 100.59 19.7
5 -11 -12 32.7 16
5 -11 -12 57.59 15.9
-11 6 -12 28.2 16.3
-5 11 -12 53.09 17
6 5 -12 39.5 17.1
-11 6 -12 45.6 16
11 -6 -12 26.4 18.7
-6 -5 12 45.3 15.2
-5 11 12 53.19 12.3
-6 -5 12 54.09 17.6
-11 6 12 75.59 18.3
5 -11 12 64.49 22
11 -6 12 49.8 13.9
-11 6 12 49 15.4
5 -11 12 40.1 16.5
-11 7 -12 -1.7 15.4
-4 11 -12 -5.3 15.6
11 -7 -12 1.4 16.3
4 -11 -12 -4.5 12.1
7 4 -12 -3.5 17.3
4 -11 -12 -10.5 11.8
-11 7 -12 8.1 15.4
-7 -4 12 -2.1 14.8
-7 -4 12 9.3 13.3
4 -11 12 -4.4 14.1
-4 11 12 10.3 9.7
4 -11 12 8.8 17
11 -7 12 27.7 13.4
-11 7 12 18.4 14.6
11 -8 -12 124.29 27.5
-11 8 -12 201.98 28.1
-3 11 -12 179.28 29.9
3 -11 -12 177.98 25.6
3 -11 -12 113.69 23.7
8 3 -12 172.28 27.4
-3 11 12 150.98 19.8
-11 8 12 145.69 22.7
-11 8 12 183.28 30.8
11 -8 12 172.68 25.9
3 -11 12 147.89 24.9
3 -11 12 169.68 24.4
-8 -3 12 128.79 21.4
-8 -3 12 148.49 25.4
9 2 -12 222.18 30.2
-11 9 -12 268.27 38.8
11 -9 -12 240.78 35.9
-2 11 -12 227.58 41.2
2 -11 -12 257.37 28.2
2 -11 12 275.27 38.7
2 -11 12 275.97 32.5
-9 -2 12 227.48 32.1
-9 -2 12 183.78 26.4
-11 9 12 233.48 31
11 -9 12 234.68 42.1
-2 11 12 212.88 23.1
12 -5 -12 96.09 21.8
-12 5 -12 104.39 17.1
-12 6 -12 154.58 25.2
12 -6 -12 213.58 37.3
12 -7 -12 152.78 28.4
7 5 -12 159.48 28
0 0 -13 13.3 5.6
0 0 13 36.1 7.3
0 -1 -13 1233.98 62.09
1 -1 -13 1134.79 62.49
-1 0 -13 1209.98 61.99
1 0 -13 1225.48 62.99
-1 1 -13 1164.18 62.69
-1 1 -13 1184.78 62.59
0 -1 -13 1201.18 61.99
1 0 -13 1175.48 62.99
1 -1 -13 1156.18 62.39
0 1 -13 1188.58 63.19
-1 0 -13 1135.79 61.69
0 1 -13 1222.08 63.19
-1 0 13 1052.09 57.09
-1 1 13 1104.39 56.79
0 -1 13 1077.29 57.59
1 -1 13 1009 56.09
-1 0 13 1051.49 56.59
1 0 13 1018.9 56.49
0 -1 13 1038.1 56.69
0 1 13 1129.49 55.39
1 -1 13 1019.4 57.69
0 1 13 1090.39 56.19
1 0 13 1078.09 55.39
-1 -1 -13 1366.56 68.39
1 -2 -13 1371.56 69.59
2 -1 -13 1344.37 70.29
-1 -1 -13 1294.07 68.19
-1 2 -13 1335.57 70.79
-2 1 -13 1308.37 69.79
1 1 -13 1273.37 70.49
2 -1 -13 1353.76 70.19
-1 2 -13 1241.28 70.59
1 1 -13 1394.96 70.59
1 -2 -13 1362.26 69.49
-2 1 -13 1305.87 69.49
-1 2 13 1343.37 67.39
1 -2 13 1358.36 69.89
1 -2 13 1263.57 68.29
-1 2 13 1381.16 66.49
1 1 13 1362.96 65.39
1 1 13 1214.58 66.39
2 -1 13 1267.37 66.59
-1 -1 13 1260.77 68.19
-2 1 13 1358.46 68.49
2 -1 13 1196.18 67.59
-2 1 13 1280.37 67.59
-1 -1 13 1126.29 70.99
-2 0 -13 2057.99 104.29
0 -2 -13 2055.19 104.59
2 -2 -13 2115.89 105.99
-2 0 -13 2140.19 104.79
-2 2 -13 2064.09 106.89
0 2 -13 1962.7 106.69
-2 2 -13 1918.51 106.29
2 -2 -13 2121.59 106.09
0 2 -13 2095.19 106.69
2 0 -13 2018 106.29
0 -2 -13 2094.69 104.49
2 0 -13 2162.48 106.39
-2 0 13 1941.71 100.59
2 -2 13 1903.31 101.29
-2 0 13 1665.63 103.09
0 -2 13 2058.29 103.09
0 2 13 1959.2 98.79
0 2 13 2100.29 97.99
2 -2 13 1922.51 100.39
2 0 13 2050.99 97.99
0 -2 13 1905.51 100.99
2 0 13 1900.01 98.89
-2 2 13 2061.69 100.79
2 -3 -13 1164.98 62.29
2 -3 -13 1258.97 62.39
-2 3 -13 1192.88 64.49
3 -1 -13 1115.89 62.79
3 -1 -13 1245.28 62.89
-2 3 -13 1078.39 63.59
1 2 -13 1199.38 63.19
-3 1 -13 1077.29 62.09
-1 -2 -13 1188.08 59.89
1 2 -13 1105.69 65.59
-1 -2 -13 1206.38 59.89
-3 1 -13 1068.89 60.99
2 -3 13 1176.98 66.69
-3 1 13 1238.68 67.29
-1 -2 13 1196.58 66.39
-2 3 13 1284.37 65.69
1 2 13 1271.77 61.69
-3 1 13 1237.08 65.59
-2 3 13 1267.57 64.09
1 2 13 1094.99 62.49
3 -1 13 1248.28 63.19
3 -1 13 1205.78 63.49
-1 -2 13 1277.77 66.69
2 -3 13 1223.28 67.09
1 -3 -13 510.25 29.5
-3 2 -13 428.96 30.1
2 1 -13 420.96 35.1
-1 3 -13 440.66 31.4
-1 3 -13 477.55 31.7
3 -2 -13 455.45 30.8
2 1 -13 523.45 31.1
-2 -1 -13 479.65 27.1
-3 2 -13 492.65 31.2
-2 -1 -13 524.65 27.7
1 -3 -13 520.35 29.5
3 -2 -13 533.35 30.9
-1 3 13 543.65 29.3
3 -2 13 512.45 31
-2 -1 13 501.85 32.3
-3 2 13 545.45 32.8
2 1 13 545.85 27.3
-2 -1 13 497.05 32.2
-1 3 13 511.85 30.4
-3 2 13 505.15 31.3
2 1 13 508.05 28
1 -3 13 505.45 33.3
1 -3 13 559.24 34.2
3 -2 13 522.75 31.4
-3 0 -13 1036.7 56.49
0 3 -13 1058.29 59.69
0 -3 -13 1080.69 56.19
-3 3 -13 1060.69 59.69
3 -3 -13 1051.49 58.29
3 0 -13 1083.69 58.39
3 -3 -13 1114.79 58.39
0 -3 -13 1120.39 56.19
-3 3 -13 1055.99 59.89
-3 0 -13 983.6 55.09
0 3 -13 1066.09 59.29
3 0 13 1078.59 51.49
3 0 13 1004.5 51.69
0 3 13 1001.4 52.99
-3 0 13 1005.5 55.89
-3 0 13 1003.4 56.29
0 -3 13 977.2 57.09
-3 3 13 1054.19 56.69
0 3 13 1037.6 52.19
3 -3 13 1039.8 56.69
0 -3 13 1008.6 63.19
-3 3 13 1053.19 54.89
3 -3 13 916.61 56.99
4 -1 -13 230.78 19.6
-1 -3 -13 245.48 16
-4 1 -13 222.98 17.6
-3 4 -13 241.18 22.3
3 -4 -13 226.68 19.8
3 -4 -13 232.98 19.3
4 -1 -13 205.38 20.6
1 3 -13 214.88 20.3
-1 -3 -13 252.37 16
-4 1 -13 202.98 17
1 3 -13 233.78 21.6
-3 4 -13 239.08 21.4
3 -4 13 209.68 20.3
1 3 13 197.08 13.3
4 -1 13 218.98 14.1
4 -1 13 229.78 14.4
3 -4 13 211.98 20.7
-4 1 13 214.78 19.2
-3 4 13 226.98 20
1 3 13 236.58 12.9
-1 -3 13 213.78 20.4
-4 1 13 224.28 23.3
-1 -3 13 236.38 21
-4 2 -13 71.49 12.4
-2 4 -13 57.49 10.6
2 2 -13 80.79 14.1
4 -2 -13 73.59 12.3
2 2 -13 91.29 15.2
4 -2 -13 87.19 14
-2 4 -13 68.79 11.9
-2 -2 -13 89.69 9
-4 2 -13 84.99 13
-2 -2 -13 88.19 9
2 -4 -13 89.49 13.2
2 -4 -13 89.29 12.7
-4 2 13 103.89 15.1
4 -2 13 88.69 11.6
-2 4 13 111.49 11.6
-2 -2 13 99.79 15
4 -2 13 101.19 10.9
-2 4 13 109.59 13.7
2 -4 13 89.19 15.6
-4 2 13 97.49 14.1
2 -4 13 98.79 16
-2 -2 13 85.59 14.6
1 -4 -13 707.93 38.4
4 -3 -13 646.34 40.5
3 1 -13 664.83 40.7
4 -3 -13 711.83 40.5
-4 3 -13 577.24 40.1
-1 4 -13 685.13 42.5
-4 3 -13 668.93 41.7
-3 -1 -13 636.14 36.4
1 -4 -13 733.73 38.8
-3 -1 -13 675.33 35.5
-1 4 -13 692.03 42.4
3 1 -13 663.03 40.4
-3 -1 13 591.44 38.1
1 -4 13 654.73 40.1
1 -4 13 603.24 40.2
4 -3 13 637.24 37.2
-3 -1 13 643.14 38.5
-1 4 13 628.04 35.9
-1 4 13 646.24 34.5
-4 3 13 622.64 37.3
-4 3 13 661.33 39.2
4 -3 13 612.34 38.2
0 -4 -13 285.37 19.2
-4 4 -13 262.67 24.5
-4 4 -13 257.77 27.2
0 4 -13 270.57 24.7
4 -4 -13 306.07 22.4
4 0 -13 264.77 22
4 -4 -13 264.27 22.6
-4 0 -13 252.47 17.3
-4 0 -13 262.77 18.2
0 4 -13 293.37 24.4
0 -4 -13 281.97 18.9
4 0 -13 255.77 22.9
-4 4 13 196.58 17.5
-4 0 13 172.58 18.7
4 -4 13 230.28 19.6
0 4 13 193.78 13.2
-4 0 13 179.68 18.5
0 4 13 189.58 13.8
-4 4 13 210.48 20.3
0 -4 13 184.18 20.9
-5 1 -13 58.59 10.3
-1 -4 -13 55.09 9.5
-1 -4 -13 63.59 9.6
-5 1 -13 42.5 8.2
4 -5 -13 50.19 9.5
-4 5 -13 54.19 11.2
-4 5 -13 35.2 10.9
5 -1 -13 50.99 11.1
1 4 -13 67.69 12.7
1 4 -13 54.99 12.3
5 -1 -13 48.9 9.7
4 -5 -13 33.7 9.8
-4 5 13 98.49 13.6
-5 1 13 106.59 16.8
5 -1 13 94.49 7.8
5 -1 13 106.99 7.7
-1 -4 13 96.99 17.1
4 -5 13 107.49 17
4 -5 13 74.29 13.2
-5 1 13 70.89 11.4
-1 -4 13 92.09 15
-4 5 13 80.49 13
-2 -3 -13 776.72 39.7
-3 5 -13 833.82 48.2
3 -5 -13 750.32 44.7
-5 2 -13 698.13 43.4
-3 5 -13 843.62 49.1
3 -5 -13 792.92 44.9
-5 2 -13 684.93 44.4
-2 -3 -13 763.62 39.7
5 -2 -13 764.02 45.9
2 3 -13 751.62 45.9
5 -2 -13 720.23 44.5
2 3 -13 780.92 46.8
5 -2 13 734.33 39
-2 -3 13 758.02 44.6
-3 5 13 720.13 43.9
3 -5 13 742.43 45.4
5 -2 13 728.83 40.3
-3 5 13 693.93 43.6
-5 2 13 772.92 44.9
-5 2 13 742.93 43.5
3 -5 13 721.23 46.9
-2 -3 13 706.83 44.7
-3 -2 -13 1656.03 82.19
5 -3 -13 1627.44 87.09
2 -5 -13 1650.53 86.19
2 -5 -13 1624.24 85.99
-3 -2 -13 1651.13 81.49
-2 5 -13 1754.82 90.19
-2 5 -13 1761.32 90.49
-5 3 -13 1512.65 88.19
3 2 -13 1656.13 87.69
-5 3 -13 1540.85 87.19
3 2 -13 1690.23 88.39
5 -3 -13 1550.04 87.59
-2 5 13 1366.76 74.89
-5 3 13 1386.16 75.39
-3 -2 13 1451.75 76.79
-2 5 13 1396.26 72.79
5 -3 13 1338.27 75.29
2 -5 13 1369.56 79.19
-5 3 13 1438.96 77.19
5 -3 13 1408.96 73.19
-3 -2 13 1400.16 76.19
2 -5 13 1524.65 78.69
-4 -1 -13 1354.76 71.79
5 -4 -13 1346.47 78.09
4 1 -13 1478.45 78.09
5 -4 -13 1467.65 77.89
-1 5 -13 1490.35 80.39
1 -5 -13 1465.55 75.99
1 -5 -13 1438.46 75.49
-4 -1 -13 1468.25 72.59
-1 5 -13 1615.84 80.99
-5 4 -13 1362.56 78.79
4 1 -13 1411.76 78.49
-5 4 -13 1373.66 80.19
-1 5 13 1680.53 86.19
-5 4 13 1759.72 90.59
5 -4 13 1684.83 87.69
-4 -1 13 1613.84 88.89
-1 5 13 1634.24 84.89
-5 4 13 1661.33 87.99
1 -5 13 1855.11 91.69
1 -5 13 1651.03 91.89
-4 -1 13 1741.03 89.39
5 -4 13 1444.26 89.39
0 -5 -13 308.87 21.2
5 -5 -13 310.87 25.6
0 5 -13 317.97 27.4
5 0 -13 298.17 25.7
-5 5 -13 244.38 27.2
0 -5 -13 300.17 21.1
-5 5 -13 282.97 26.3
5 -5 -13 327.77 25.1
0 5 -13 296.57 35.8
-5 0 -13 301.67 18.8
5 0 -13 316.97 24.6
-5 0 -13 269.97 18.7
5 -5 13 359.26 26.8
-5 5 13 371.96 28.7
-5 0 13 332.27 26.3
-5 0 13 350.96 26.8
0 -5 13 341.37 29.5
-5 5 13 356.36 25.3
0 5 13 321.07 20.3
-5 6 -13 29.2 12.2
-5 6 -13 39.1 11.1
5 -6 -13 38.2 12.9
5 -6 -13 60.79 10.9
1 5 -13 48.7 13
-1 -5 -13 33 9.2
1 5 -13 56.39 13.5
6 -1 -13 45.7 11.1
6 -1 -13 39.8 12
-1 -5 -13 49.1 7.7
-6 1 -13 29 8
-1 -5 13 38 12.6
-6 1 13 41.1 11.2
-5 6 13 47.8 9.8
-5 6 13 44.8 11.8
-1 -5 13 30.3 11.1
-6 1 13 45.5 11.1
5 -6 13 51.29 13
5 -6 13 19.3 9.4
-6 2 -13 502.75 30.9
2 4 -13 516.55 35.3
-4 6 -13 534.35 38.2
6 -2 -13 454.65 34.6
4 -6 -13 488.25 33.6
6 -2 -13 532.25 33.4
-2 -4 -13 469.05 27.2
-2 -4 -13 513.15 27.2
4 -6 -13 500.25 34.6
-4 6 -13 550.24 37.3
-6 2 -13 420.96 31.4
2 4 -13 457.75 34.9
-6 2 13 520.05 33.6
4 -6 13 453.15 37.3
6 -2 13 505.45 27.1
6 -2 13 512.45 34.4
4 -6 13 478.65 35.5
-4 6 13 483.25 34.7
-6 2 13 490.65 34.6
-2 -4 13 476.25 34.4
-2 -4 13 487.35 35.3
-3 6 -13 1855.51 92.59
6 -3 -13 1599.54 88.59
6 -3 -13 1554.04 93.09
3 -6 -13 1608.24 87.39
3 3 -13 1658.23 89.29
3 -6 -13 1593.24 87.29
3 3 -13 1593.74 88.29
-3 6 -13 1874.91 92.09
-6 3 -13 1606.74 87.09
-6 3 -13 1464.15 87.69
6 -3 13 1462.25 75.09
-3 -3 13 1467.05 80.29
-6 3 13 1488.55 80.59
-3 -3 13 1548.84 80.39
-3 6 13 1426.96 79.39
-3 6 13 1461.95 76.39
3 -6 13 1513.75 84.09
-6 3 13 1218.18 85.29
6 -3 13 1429.96 77.69
3 -6 13 1571.74 82.29
-2 6 -13 2796.02 131.99
6 -4 -13 2463.45 127.89
2 -6 -13 2402.06 126.39
-6 4 -13 2387.96 128.69
2 -6 -13 2384.56 126.59
-2 6 -13 2674.43 131.29
6 -4 -13 2385.36 128.59
-6 4 -13 2285.57 129.19
4 2 -13 2473.45 128.09
4 2 -13 2388.26 128.69
6 -4 13 2069.99 125.69
6 -4 13 2342.37 122.99
-4 -2 13 2446.56 126.09
-2 6 13 2366.26 124.79
-2 6 13 2402.46 122.39
2 -6 13 2704.13 128.89
-6 4 13 2489.75 127.59
2 -6 13 2663.23 131.29
-6 4 13 2437.56 125.39
-4 -2 13 2341.77 126.19
1 -6 -13 1593.34 84.69
-1 6 -13 1881.81 91.09
6 -5 -13 1600.64 87.09
-1 6 -13 1721.13 90.19
1 -6 -13 1560.04 84.69
-5 -1 -13 1490.85 79.49
5 1 -13 1652.63 86.89
5 1 -13 1599.64 87.89
6 -5 -13 1546.95 87.89
-6 5 -13 1485.65 89.29
-6 5 -13 1620.14 89.39
6 -5 13 1587.34 91.49
6 -5 13 1644.14 89.99
-6 5 13 1675.73 91.09
1 -6 13 1705.23 92.89
1 -6 13 1789.52 91.39
-1 6 13 1597.34 84.29
-6 5 13 1593.44 87.79
-5 -1 13 1574.84 88.69
-5 -1 13 1712.93 89.39
6 0 -13 385.36 28.6
0 6 -13 408.36 32.4
0 -6 -13 361.16 25.2
-6 0 -13 351.16 22.4
6 -6 -13 372.96 29.7
0 6 -13 403.96 32.8
-6 6 -13 367.46 33
6 -6 -13 361.46 31.6
-6 6 -13 389.76 32.4
6 0 -13 376.06 30.3
0 6 13 366.16 21.1
-6 0 13 347.07 28.7
6 -6 13 349.77 33.3
-6 0 13 339.87 28.4
0 -6 13 408.86 33.6
-6 6 13 365.76 27.6
0 -6 13 378.06 33.2
-6 6 13 367.06 31.5
6 -6 13 397.26 31.7
1 6 -13 105.09 17.7
-6 7 -13 92.09 18.4
6 -7 -13 78.09 17.3
6 -7 -13 81.39 14.2
-7 1 -13 112.39 14
-6 7 -13 111.39 18.5
1 6 -13 106.69 16.7
-1 -6 -13 83.49 12.9
7 -1 -13 100.29 14.7
7 -1 -13 125.99 20.9
-1 -6 -13 105.89 13.1
-7 1 13 92.69 14.8
-1 -6 13 71.99 13.4
-6 7 13 81.59 16.6
-6 7 13 70.59 11.4
6 -7 13 96.09 18.3
-7 1 13 82.19 14.2
-1 -6 13 99.69 17.9
6 -7 13 88.29 14
5 -7 -13 195.68 22.6
2 5 -13 158.08 23.7
-2 -5 -13 208.98 14.8
-5 7 -13 224.08 28
7 -2 -13 193.48 23.7
7 -2 -13 219.08 21.8
2 5 -13 193.18 24.6
-2 -5 -13 223.28 14.7
5 -7 -13 197.28 24.8
-7 2 -13 184.88 25.4
-5 7 -13 218.88 26.2
-7 2 13 174.28 21.4
-2 -5 13 196.08 25.2
5 -7 13 222.28 27.8
7 -2 13 217.88 12.8
-2 -5 13 191.28 24
5 -7 13 197.78 24.2
7 -2 13 202.58 13.4
-7 2 13 236.88 27.5
-5 7 13 188.88 18.8
-5 7 13 170.28 23.2
4 -7 -13 919.11 55.79
3 4 -13 962.7 56.49
-7 3 -13 883.11 57.29
-4 7 -13 1037.5 59.69
7 -3 -13 863.61 55.99
-4 7 -13 1023.7 60.49
7 -3 -13 928.31 54.69
3 4 -13 925.71 56.49
4 -7 -13 847.32 55.19
4 -7 13 1028.9 61.69
-4 7 13 932.71 56.29
-7 3 13 933.61 54.99
7 -3 13 915.01 52.09
-7 3 13 953.3 56.69
7 -3 13 934.41 49.6
-3 -4 13 956.4 57.39
-4 7 13 858.81 52.19
4 -7 13 952 58.19
-4 7 13 930.51 56.19
-3 -4 13 980.4 56.59
3 -7 -13 1193.08 67.39
7 -4 -13 1106.69 68.59
3 -7 -13 1140.59 67.49
-7 4 -13 1132.29 68.89
-3 7 -13 1334.67 72.69
-3 7 -13 1286.97 71.99
7 -4 -13 1236.48 68.19
4 3 -13 1184.98 69.39
4 3 -13 1200.58 68.29
-7 4 13 1354.56 73.89
-7 4 13 1294.47 71.69
-4 -3 13 1210.98 72.79
-4 -3 13 1304.27 72.29
7 -4 13 1146.59 70.99
3 -7 13 1344.87 84.79
-3 7 13 1259.37 68.39
3 -7 13 1410.26 75.49
-2 7 -13 896.41 54.29
7 -5 -13 796.22 52.09
-7 5 -13 823.62 51.89
-7 5 -13 787.92 52.69
5 2 -13 868.71 52.39
2 -7 -13 794.12 48.6
-2 7 -13 939.21 54.69
5 2 -13 832.12 50.59
7 -5 -13 856.61 51.19
2 -7 -13 693.23 51.99
2 -7 13 915.61 52.69
7 -5 13 765.62 45.4
7 -5 13 775.32 50.69
-7 5 13 838.22 51.59
-7 5 13 713.23 52.59
-5 -2 13 784.92 49.1
2 -7 13 883.61 55.09
-5 -2 13 779.32 49.6
-2 7 13 775.12 44.6
-1 7 -13 636.04 42.8
7 -6 -13 577.64 39.6
-7 6 -13 517.15 40.5
1 -7 -13 554.54 35.7
-1 7 -13 625.74 42.8
-7 6 -13 549.95 42.2
6 1 -13 583.94 38.3
7 -6 -13 468.15 40.3
-6 -1 13 574.84 38.3
7 -6 13 546.55 35.9
7 -6 13 522.15 46.5
-6 -1 13 555.04 38.6
1 -7 13 614.34 40.9
1 -7 13 563.34 43.1
-7 6 13 505.25 40.1
-7 6 13 573.54 37.7
-1 7 13 531.55 31.8
0 7 -13 855.71 53.19
7 0 -13 725.33 50.39
-7 0 -13 897.01 42.4
7 -7 -13 785.62 51.19
7 0 -13 772.22 48.8
-7 0 -13 724.43 42.6
7 -7 -13 743.33 52.39
0 -7 -13 823.02 46.1
-7 7 -13 812.42 54.19
0 7 -13 865.51 53.59
0 -7 -13 799.92 46
-7 7 -13 756.62 54.59
7 -7 13 688.73 44.5
-7 7 13 694.63 43.8
0 7 13 698.43 36.9
0 7 13 633.34 36.3
-7 7 13 633.54 52.59
0 -7 13 795.62 48.2
7 -7 13 754.72 50.89
-7 0 13 698.73 45.2
-7 0 13 706.83 45.2
0 -7 13 780.02 50.69
1 7 -13 252.77 28.7
7 -8 -13 197.08 26
1 7 -13 233.08 27.7
7 -8 -13 211.08 30.4
-1 -7 -13 211.68 18.9
-1 -7 -13 238.68 18.7
-8 1 -13 245.28 18.4
-7 8 -13 226.98 31.3
-8 1 -13 202.18 19
-7 8 -13 216.48 30.3
8 -1 -13 236.38 23.6
8 -1 -13 212.98 26.6
-8 1 13 215.38 23.9
-8 1 13 193.28 24.7
7 -8 13 209.58 30.4
-7 8 13 161.88 25.5
-7 8 13 211.98 22.6
7 -8 13 176.18 28.9
-1 -7 13 224.08 29.8
-1 -7 13 220.38 26.5
2 6 -13 9.4 11.6
-8 2 -13 20.1 9.5
8 -2 -13 -2.3 11.1
-6 8 -13 20.9 13.3
-8 2 -13 16.5 10.1
2 6 -13 1.2 11.1
6 -8 -13 6.6 15.1
-2 -6 -13 8.6 5.8
6 -8 -13 3.8 9.7
-2 -6 -13 9 5.8
-6 8 -13 14.7 15.2
-2 -6 13 66.49 15
-6 8 13 28.8 10.3
-8 2 13 30.6 12.3
6 -8 13 28 12.6
-2 -6 13 43.8 15.6
-8 2 13 23.2 15.6
6 -8 13 46 16.9
-6 8 13 39.9 14.3
8 -3 -13 431.26 35.5
-5 8 -13 542.45 49.99
-5 8 -13 490.55 40.2
5 -8 -13 428.86 37.2
8 -3 -13 468.65 33.6
5 -8 -13 407.76 34.4
-8 3 -13 469.05 33.1
3 5 -13 444.06 36.1
3 5 -13 482.35 36.7
-8 3 13 622.64 43.5
8 -3 13 620.34 37.8
-3 -5 13 642.84 45.7
-8 3 13 614.74 43
5 -8 13 670.63 46.4
5 -8 13 710.43 50.59
-3 -5 13 722.13 45.9
-5 8 13 763.12 61.89
-4 8 -13 823.22 54.29
4 4 -13 789.02 51.59
-8 4 -13 785.72 49.7
8 -4 -13 766.62 50.89
-4 8 -13 873.71 54.69
4 -8 -13 779.92 51.09
8 -4 -13 744.13 49
4 4 -13 793.42 50.49
4 -8 -13 740.63 48.8
-8 4 13 890.71 55.39
-4 8 13 840.72 50.29
-8 4 13 838.02 53.79
-4 -4 13 909.01 54.99
8 -4 13 800.62 51.49
4 -8 13 945.61 57.69
-4 -4 13 909.71 56.09
4 -8 13 1011.3 61.49
3 -8 -13 61.79 12.9
5 3 -13 67.69 15.9
8 -5 -13 53.29 13.4
-3 8 -13 57.49 14.3
-3 8 -13 78.99 17.8
-8 5 -13 63.69 14.6
8 -5 -13 41.8 14.5
-8 5 -13 4.3 16.4
3 -8 -13 47.7 17.8
5 3 -13 44.1 12.6
8 -5 13 86.69 15.3
3 -8 13 131.59 23.1
-8 5 13 107.39 17.8
-5 -3 13 90.89 15.1
-5 -3 13 119.29 20.6
-3 8 13 101.59 15.3
3 -8 13 78.39 17
-8 5 13 99.09 16.6
-2 8 -13 487.75 37.9
-8 6 -13 460.95 38.4
6 2 -13 445.16 33
2 -8 -13 410.36 31.5
2 -8 -13 335.67 31.5
-2 8 -13 493.25 38.1
8 -6 -13 360.96 36.8
8 -6 -13 469.15 34.8
6 2 -13 428.76 35.7
2 -8 13 405.06 33.7
2 -8 13 436.16 38.2
-8 6 13 359.56 31
-2 8 13 363.96 25.4
8 -6 13 378.56 33.3
-8 6 13 370.96 33.9
-6 -2 13 345.17 31.9
-6 -2 13 375.96 30.9
-1 8 -13 980 59.99
1 -8 -13 934.81 53.79
8 -7 -13 906.41 57.79
8 -7 -13 822.52 59.99
7 1 -13 866.91 55.09
1 -8 -13 956.3 54.09
7 1 -13 952.4 58.09
-8 7 -13 966.9 61.89
-1 8 13 887.21 49.1
1 -8 13 1011.6 59.19
-8 7 13 877.71 65.39
-7 -1 13 925.31 55.89
8 -7 13 954.2 67.59
1 -8 13 990.2 61.89
-8 7 13 854.31 55.29
-7 -1 13 841.92 55.89
8 0 -13 320.17 31.3
0 -8 -13 347.67 25.5
-8 0 -13 290.07 20.8
8 -8 -13 285.27 35.4
0 -8 -13 335.97 25.6
-8 8 -13 311.07 36
0 8 -13 309.07 32.9
0 8 -13 352.26 33.2
-8 0 -13 352.26 20
8 -8 -13 327.57 32.1
-8 0 13 336.97 29.2
-8 8 13 315.07 32.8
-8 0 13 299.97 30
0 -8 13 344.47 35.9
0 -8 13 354.86 32.6
8 -8 13 364.56 36
-8 8 13 255.67 27.9
8 -9 -13 17 12.9
8 -9 -13 26.4 20.2
-9 1 -13 30.9 8.4
-8 9 -13 -23 27.8
-1 -8 -13 32.9 9.3
-8 9 -13 43.8 19.1
1 8 -13 22.9 14.6
-1 -8 -13 30.4 9
9 -1 -13 19 13.6
-9 1 -13 29.5 9.1
-9 1 13 42.5 12.5
-1 -8 13 33 17.7
-1 -8 13 16.5 16.3
-8 9 13 20.9 11.7
8 -9 13 29.7 16.9
-9 1 13 36.8 12.5
-2 -7 -13 62.49 9.2
9 -2 -13 36.5 15.2
-9 2 -13 52.39 11.4
-7 9 -13 30.9 21.3
-2 -7 -13 59.09 9
-9 2 -13 38.2 10.2
7 -9 -13 42.5 13.8
7 -9 -13 46.9 19.7
2 7 -13 53.79 16.8
-7 9 -13 65.99 25.8
7 -9 13 44.4 17
-9 2 13 34.4 24.2
-9 2 13 6.5 19.3
-2 -7 13 30.5 14.2
-2 -7 13 41.6 17
-7 9 13 19.3 10
-6 9 -13 262.37 33.4
9 -3 -13 223.38 25.1
-6 9 -13 282.07 34.5
9 -3 -13 241.88 28.8
3 6 -13 271.37 29.8
6 -9 -13 231.98 28.2
-9 3 -13 271.87 25.1
6 -9 -13 239.08 33.5
6 -9 13 212.88 35
-3 -6 13 197.08 26.5
-6 9 13 197.88 20.7
-9 3 13 163.58 24.8
-3 -6 13 213.28 28.6
-9 3 13 184.38 24.2
9 -3 13 183.98 14.8
6 -9 13 217.68 28
9 -4 -13 905.21 55.89
-9 4 -13 966.3 56.79
5 -9 -13 871.61 61.19
4 5 -13 836.22 57.79
-5 9 -13 975.3 62.49
5 -9 -13 874.11 57.09
-5 9 -13 1011.9 63.99
9 -4 -13 879.21 58.89
5 -9 13 942.31 60.79
-5 9 13 794.62 48.8
-4 -5 13 935.21 55.09
-9 4 13 798.12 53.09
-4 -5 13 832.12 55.09
5 -9 13 859.81 67.19
-9 4 13 766.42 51.99
9 -4 13 739.43 48
-9 5 -13 741.93 48.7
9 -5 -13 658.13 49.9
5 4 -13 658.33 48.2
9 -5 -13 717.43 47.1
-4 9 -13 705.93 51.39
4 -9 -13 680.03 49.7
4 -9 -13 659.13 46.2
-4 9 -13 827.62 53.89
-9 5 13 611.54 44.5
9 -5 13 528.95 40.7
-5 -4 13 656.63 45.2
-9 5 13 593.04 42.6
4 -9 13 678.43 46.8
-5 -4 13 613.44 43
-4 9 13 542.95 38.1
4 -9 13 720.53 50.99
9 -6 -13 509.45 43.4
9 -6 -13 511.95 39.9
-9 6 -13 562.54 43.1
-3 9 -13 660.23 46.4
3 -9 -13 489.95 37.9
-3 9 -13 583.34 44.3
3 -9 -13 480.55 38.2
-6 -3 13 443.36 36.2
-9 6 13 458.55 39
-3 9 13 473.65 31.5
3 -9 13 498.65 40.3
-6 -3 13 462.35 37.9
3 -9 13 533.45 44.2
9 -6 13 470.85 37.9
-9 6 13 437.26 36.3
7 2 -13 716.73 49.99
-9 7 -13 748.33 54.09
9 -7 -13 714.23 49.7
2 -9 -13 760.62 47.2
9 -7 -13 652.63 53.09
2 -9 -13 721.63 47.1
-2 9 -13 837.82 54.49
-2 9 -13 814.22 53.09
-7 -2 13 719.03 48.7
2 -9 13 840.42 52.99
-2 9 13 751.62 43.5
-9 7 13 713.63 49.4
-9 7 13 739.73 56.59
2 -9 13 794.12 56.19
-7 -2 13 749.82 50.69
9 -7 13 741.03 53.19
1 -9 -13 442.86 32.7
1 -9 -13 440.56 32.3
8 1 -13 440.06 37.4
9 -8 -13 428.56 37.3
9 -8 -13 371.36 42.4
-9 8 -13 482.45 43
-8 -1 13 389.76 32.3
-8 -1 13 339.47 33.2
1 -9 13 420.76 45.4
-9 8 13 323.87 32.1
1 -9 13 416.06 35.6
-9 8 13 325.67 35.5
-1 9 13 385.96 24
-9 9 -13 3.4 16.8
0 -9 -13 26.5 10.5
-9 0 -13 29.3 6.9
-9 0 -13 22.3 6.3
-9 9 -13 -15.1 24.3
0 9 -13 13.7 14.7
9 -9 -13 15.6 20.4
0 -9 -13 36 10.5
9 0 -13 46.6 15.9
9 -9 -13 21.6 12.8
-9 9 13 11.7 11.4
-9 0 13 19.2 14.4
0 -9 13 37.5 19.1
-9 0 13 10 11.8
9 -9 13 44.3 17.5
0 -9 13 30.2 14.3
-10 1 -13 149.79 17.6
9 -10 -13 197.48 32.5
-1 -9 -13 221.08 25.1
9 -10 -13 140.39 23.3
-1 -9 -13 177.78 19.3
-9 10 -13 145.39 27.3
1 9 -13 183.38 28.7
-9 10 -13 59.99 29.8
10 -1 -13 186.48 29.5
9 -10 13 201.68 29.4
-1 -9 13 207.88 34.7
-10 1 13 178.88 29.1
-1 -9 13 197.58 32.1
-10 1 13 122.69 18.8
-9 10 13 162.78 26.4
-2 -8 -13 418.66 26.8
10 -2 -13 365.36 36.9
8 -10 -13 342.07 48.8
-10 2 -13 408.86 27.8
-10 2 -13 367.96 29.7
-8 10 -13 463.85 44.7
2 8 -13 390.66 37
8 -10 -13 407.46 45.9
-2 -8 -13 408.16 26.2
-10 2 13 259.87 42
-8 10 13 319.37 30.6
-2 -8 13 363.36 34.6
-2 -8 13 442.86 40.8
-10 2 13 329.17 34
8 -10 13 432.56 43.8
3 7 -13 27.3 14.4
-7 10 -13 56.69 24.3
7 -10 -13 37.8 20.8
7 -10 -13 21.9 14
-10 3 -13 54.69 13.3
-10 3 -13 45.7 11.9
10 -3 -13 42.1 16.7
-10 3 13 27 14.7
-3 -7 13 59.39 18.5
-7 10 13 33.6 11.7
-10 3 13 6.8 11.3
-3 -7 13 36.8 15
7 -10 13 12.7 16.1
-6 10 -13 139.29 22.9
-10 4 -13 134.79 22.5
6 -10 -13 135.79 25.7
-10 4 -13 76.69 15.6
-6 10 -13 172.48 26.2
10 -4 -13 101.59 20.5
6 -10 -13 124.19 19.5
4 6 -13 133.19 20
-4 -6 13 87.29 17.7
10 -4 13 85.09 14.6
6 -10 13 109.69 20.9
-10 4 13 82.59 17.4
-4 -6 13 113.29 21.3
-10 4 13 98.99 17.7
6 -10 13 104.89 19.5
-5 10 -13 676.73 49.99
5 -10 -13 579.14 44
-10 5 -13 626.14 44.2
10 -5 -13 481.15 51.39
10 -5 -13 572.74 47.1
-5 10 -13 721.73 51.29
5 5 -13 538.35 44.1
5 -10 -13 498.45 54.29
-10 5 13 518.15 42.6
-5 -5 13 619.14 43.8
-10 5 13 524.35 42.2
5 -10 13 565.64 45.6
10 -5 13 503.55 38.2
-5 -5 13 626.84 46.1
-5 10 13 539.45 38.1
5 -10 13 706.83 51.99
6 4 -13 409.36 38.4
-10 6 -13 478.85 40.5
4 -10 -13 441.36 36.8
10 -6 -13 409.26 36.8
10 -6 -13 470.95 42.6
-4 10 -13 468.85 43.4
4 -10 -13 486.75 37.9
-4 10 -13 493.15 42.8
10 -6 13 447.76 36.4
-6 -4 13 407.36 36
-10 6 13 427.06 38.8
-4 10 13 432.76 31.8
-10 6 13 406.06 36.6
-6 -4 13 441.06 39.6
4 -10 13 503.65 40.4
4 -10 13 481.65 44.4
-10 7 -13 356.46 37.5
7 3 -13 383.66 33.4
3 -10 -13 338.67 31.1
10 -7 -13 299.57 32.5
-3 10 -13 325.77 36
3 -10 -13 312.57 30
10 -7 -13 294.57 37.5
-3 10 13 294.57 25.5
10 -7 13 317.07 33.5
-7 -3 13 319.57 34.2
-7 -3 13 337.57 31.3
-10 7 13 331.27 34.6
-10 7 13 346.77 33.3
3 -10 13 374.26 40.2
3 -10 13 375.56 36.2
8 2 -13 121.99 20.1
-10 8 -13 110.49 22.7
10 -8 -13 122.19 21.5
10 -8 -13 151.68 26.1
2 -10 -13 142.09 22.3
-2 10 -13 186.98 29.6
2 -10 -13 149.79 23
-8 -2 13 124.59 18.4
10 -8 13 70.89 18.9
-2 10 13 97.89 15.2
-10 8 13 92.59 17.3
-8 -2 13 113.39 19.5
2 -10 13 122.99 21.1
2 -10 13 100.09 21
-10 8 13 112.79 25.2
-10 9 -13 32 19.4
10 -9 -13 16.6 14.3
1 -10 -13 34.4 15.9
1 -10 -13 28.9 11.9
-1 10 -13 22.8 15.3
-10 9 -13 24.3 25.4
9 1 -13 18.7 14.7
10 -9 -13 34.9 21.9
-9 -1 13 29.4 15.7
-10 9 13 26.7 14.7
1 -10 13 23.4 13.9
1 -10 13 30.5 18.3
-9 -1 13 32.2 12.9
10 -9 13 -0.2 8.5
-10 10 -13 249.38 40.4
0 10 -13 264.77 32.8
0 -10 -13 227.38 25.1
10 -10 -13 251.47 38.7
0 -10 -13 220.98 23.5
10 -10 -13 186.98 30.3
10 0 -13 188.28 30.9
-10 10 13 212.28 29
0 -10 13 244.38 37.2
10 -10 13 214.18 37.3
0 -10 13 238.38 31.5
-10 0 13 139.49 20.9
-10 0 13 200.78 29.9
11 -2 -13 271.57 35.5
9 -11 -13 289.57 46.9
-11 2 -13 263.57 24
-3 -8 -13 176.98 14.4
3 8 -13 227.68 30.2
-3 -8 -13 192.38 14.8
8 -11 -13 163.18 26.9
-11 3 -13 193.48 24.7
-8 11 -13 227.68 33.8
11 -3 -13 203.48 32.3
-11 3 -13 187.08 21.4
-8 11 13 153.08 24.7
-3 -8 13 241.38 35.1
8 -11 13 234.38 39.6
-11 3 13 169.08 26.4
-3 -8 13 199.38 30.6
-11 3 13 173.68 29.4
7 -11 -13 12.8 15.6
-11 4 -13 28.4 13.4
11 -4 -13 43.5 17.7
-7 11 -13 38.1 18.5
-11 4 -13 19.5 12.2
7 -11 -13 22.1 15.2
4 7 -13 26.7 14.1
-4 -7 13 11.7 14
-4 -7 13 42.5 18.1
-11 4 13 34.3 13.4
7 -11 13 35 19
-7 11 13 51.29 12.2
-11 4 13 29.4 15.3
6 -11 -13 132.09 21.5
-6 11 -13 71.89 19.8
-11 5 -13 85.59 28.7
-6 11 -13 133.09 22.8
6 -11 -13 134.39 22.1
11 -5 -13 121.59 23.1
-6 11 13 77.99 14.6
-11 5 13 87.49 18.8
11 -5 13 61.29 12.4
-5 -6 13 55.39 17.7
6 -11 13 63.49 21.7
-11 5 13 43.8 14.5
-5 -6 13 93.49 20
-11 6 -13 227.88 39.2
-5 11 -13 206.18 34.9
5 -11 -13 222.98 29.5
11 -6 -13 207.08 34.4
5 -11 -13 225.78 29.2
11 -6 13 197.98 25
5 -11 13 244.78 32.1
-6 -5 13 228.48 32.9
-5 11 13 164.08 22.8
-6 -5 13 208.68 29.6
5 -11 13 250.07 37.9
-11 6 13 186.18 29.5
-11 6 13 196.68 29.3
11 -7 -13 45.2 20
4 -11 -13 85.09 29.3
-11 7 -13 84.69 23.3
4 -11 -13 74.89 16.6
-4 11 -13 74.39 19.1
-11 7 -13 18.3 18
4 -11 13 67.39 20
-7 -4 13 41.4 18.2
4 -11 13 92.79 22.7
11 -7 13 64.89 16.4
-11 7 13 66.19 17.6
-7 -4 13 47.7 14.6
-4 11 13 50.99 13.5
11 -8 -13 69.69 22.2
-11 8 -13 41.8 24.9
3 -11 -13 33.4 14.5
3 -11 -13 37.7 15
-3 11 -13 37.3 16.9
-11 8 -13 0.8 18.7
-3 11 13 23.1 10.2
-11 8 13 12.4 15.8
11 -8 13 36 15.7
3 -11 13 4 13.2
-8 -3 13 6.4 15.5
3 -11 13 24.2 17.5
-8 -3 13 34.4 14.9
9 2 -13 2.3 17
11 -9 -13 36.2 25.7
-11 9 -13 14.3 25.9
0 0 -14 4.7 5.1
0 0 -14 3.6 5.5
0 0 14 6.4 5.1
0 0 14 3.6 5.4
1 0 -14 292.77 20.5
1 -1 -14 275.77 19.8
-1 0 -14 286.97 19.1
0 1 -14 273.97 20.4
1 0 -14 277.07 20.5
0 -1 -14 290.37 19.1
1 -1 -14 276.67 19.9
-1 1 -14 272.47 20.1
0 -1 -14 270.97 19.3
-1 1 -14 271.17 19.7
-1 0 -14 280.17 19.1
0 1 -14 281.37 20.4
0 1 14 383.66 23.6
1 -1 14 349.87 23.4
0 -1 14 381.96 25.2
-1 0 14 367.06 24.6
1 -1 14 347.57 25.1
-1 0 14 377.46 24.1
0 1 14 373.26 22.4
1 0 14 360.26 23.9
1 0 14 361.36 22.4
0 -1 14 352.86 24
-1 1 14 386.86 24.3
-1 2 -14 1618.64 85.79
-2 1 -14 1609.74 84.89
1 1 -14 1621.54 85.69
-2 1 -14 1560.54 84.39
-1 2 -14 1556.44 85.69
1 -2 -14 1630.34 84.59
-1 -1 -14 1667.33 83.49
1 -2 -14 1657.63 84.49
1 1 -14 1665.43 85.59
2 -1 -14 1640.44 85.39
2 -1 -14 1679.63 85.29
-1 -1 -14 1669.93 83.49
-1 2 14 1441.86 72.29
2 -1 14 1370.86 71.29
1 -2 14 1309.77 72.89
-2 1 14 1486.25 73.59
-2 1 14 1324.57 72.29
2 -1 14 1272.87 72.39
1 -2 14 1408.56 74.59
1 1 14 1468.35 70.19
-1 2 14 1409.46 71.09
1 1 14 1255.17 71.19
-1 -1 14 1368.76 73.19
-1 -1 14 1423.56 73.69
-2 0 -14 1960.1 98.19
0 2 -14 1966.5 100.19
-2 2 -14 1773.92 99.49
0 -2 -14 1974.3 97.99
0 -2 -14 1917.11 97.99
0 2 -14 1891.01 100.39
-2 0 -14 1846.72 97.39
-2 2 -14 1900.81 100.19
2 0 -14 1998.8 99.79
2 -2 -14 2030.8 99.39
2 -2 -14 1927.51 99.29
2 0 -14 1884.41 99.69
-2 0 14 1998 99.49
0 -2 14 1969.7 100.29
0 2 14 1942.91 97.09
2 0 14 1786.52 96.99
0 2 14 2046.9 96.19
2 -2 14 1800.22 99.39
-2 0 14 1888.41 98.79
2 -2 14 1862.11 98.59
2 0 14 1923.61 95.99
-2 2 14 1949.41 98.89
0 -2 14 1826.02 99.09
2 -3 -14 714.53 39.4
-1 -2 -14 646.24 36.8
3 -1 -14 751.42 40.4
-1 -2 -14 686.03 36.9
-2 3 -14 622.14 41
-2 3 -14 679.53 41.5
-3 1 -14 621.34 38
-3 1 -14 660.03 39.5
3 -1 -14 667.53 40.2
1 2 -14 678.53 40.3
2 -3 -14 715.43 39.7
1 2 -14 652.33 40.7
3 -1 14 744.13 39
2 -3 14 732.23 43.4
-2 3 14 642.54 42.8
2 -3 14 706.23 42.7
-3 1 14 735.83 41.8
3 -1 14 736.53 39.6
1 2 14 638.54 38.4
-1 -2 14 702.53 42.5
1 2 14 783.52 37.5
-2 3 14 761.52 41.9
-1 -2 14 691.33 42.4
-3 1 14 737.43 42.7
-1 3 -14 3398.76 170.18
-2 -1 -14 3478.15 166.28
2 1 -14 3465.15 169.18
-3 2 -14 3361.66 169.88
2 1 -14 3274.07 169.18
3 -2 -14 3285.57 168.78
1 -3 -14 3514.05 167.88
-3 2 -14 2890.81 168.08
3 -2 -14 3538.75 168.88
1 -3 -14 3428.76 167.58
-1 3 -14 3118.89 169.68
-2 -1 -14 3327.77 165.78
1 -3 14 3435.16 183.38
-3 2 14 3532.55 181.68
2 1 14 3787.62 178.18
-2 -1 14 3651.03 182.98
-2 -1 14 3421.16 182.48
1 -3 14 3734.23 184.38
-3 2 14 3647.24 182.88
-1 3 14 3770.02 179.88
-1 3 14 3712.33 181.18
3 -2 14 3640.44 181.48
3 -2 14 3543.55 181.88
2 1 14 3605.94 178.98
3 -3 -14 1017.8 54.89
-3 3 -14 945.81 56.29
0 -3 -14 1005.3 52.59
3 0 -14 933.01 55.19
-3 0 -14 963.8 51.69
3 -3 -14 961.9 54.89
0 3 -14 911.31 55.99
0 3 -14 994.7 55.99
-3 3 -14 993.3 56.39
-3 0 -14 992 53.19
0 -3 -14 1067.79 52.79
3 0 -14 989.4 54.89
3 0 14 981.8 47.8
3 -3 14 912.61 52.89
3 -3 14 876.11 52.59
-3 0 14 918.51 52.49
-3 3 14 960.4 51.19
-3 3 14 944.91 53.09
-3 0 14 925.01 52.79
0 -3 14 906.81 53.69
0 3 14 940.61 49.4
0 -3 14 935.51 54.29
3 0 14 909.91 48
0 3 14 967.2 48.4
1 3 -14 95.49 15.8
-4 1 -14 71.19 11.3
-4 1 -14 75.19 11.7
-3 4 -14 86.19 14.5
-1 -3 -14 92.39 11
1 3 -14 101.19 17
3 -4 -14 96.09 15.7
3 -4 -14 64.89 11.1
-1 -3 -14 91.69 10.4
4 -1 -14 63.69 11.3
-3 4 -14 70.09 12.1
4 -1 -14 94.59 14.8
-4 1 14 115.79 16.8
3 -4 14 111.89 16.6
4 -1 14 113.79 9.8
3 -4 14 115.29 16.6
-1 -3 14 113.29 17.4
4 -1 14 105.29 10
-4 1 14 112.19 15.5
-1 -3 14 131.99 17.1
1 3 14 96.49 8.9
1 3 14 108.09 10.4
-3 4 14 95.69 15.9
2 2 -14 2387.36 126.59
2 2 -14 2494.65 125.89
-4 2 -14 2184.68 124.69
-2 4 -14 2476.75 127.59
-2 -2 -14 2493.85 121.39
4 -2 -14 2370.66 125.49
2 -4 -14 2569.14 124.79
-4 2 -14 2074.79 124.29
2 -4 -14 2570.44 124.69
-2 4 -14 2579.84 127.99
4 -2 -14 2415.26 124.99
-2 -2 -14 2567.14 121.59
-2 4 14 2630.44 130.49
4 -2 14 2525.95 128.89
-2 -2 14 2461.55 131.39
-4 2 14 2701.13 132.19
2 -4 14 2700.23 133.19
2 -4 14 2345.27 132.69
-2 4 14 2642.44 128.49
-4 2 14 2445.76 130.29
4 -2 14 2519.65 128.49
-3 -1 -14 2183.08 113.59
-4 3 -14 2172.28 118.79
-1 4 -14 2369.86 120.39
-4 3 -14 2158.78 118.89
4 -3 -14 2351.36 118.19
1 -4 -14 2394.16 116.69
-3 -1 -14 2265.37 114.79
-1 4 -14 2305.57 119.99
1 -4 -14 2359.16 116.19
4 -3 -14 2192.98 118.09
3 1 -14 2323.47 118.29
3 1 -14 2275.67 120.29
4 -3 14 2404.46 119.59
1 -4 14 2499.55 122.49
-3 -1 14 2282.47 120.39
1 -4 14 2192.08 121.99
-4 3 14 2457.95 121.29
-1 4 14 2382.16 116.69
-1 4 14 2400.16 118.19
4 -3 14 2272.57 120.09
-3 -1 14 2006.1 124.69
-4 3 14 2345.97 119.39
4 -4 -14 882.01 48.8
-4 4 -14 867.41 51.29
0 -4 -14 862.61 45.3
-4 0 -14 780.12 43.9
-4 0 -14 766.82 44.8
0 -4 -14 854.61 45.7
0 4 -14 859.01 50.59
4 0 -14 797.42 49.2
4 0 -14 835.82 48.4
0 4 -14 837.92 50.49
4 -4 -14 773.12 48.6
0 4 14 843.42 45.5
-4 0 14 854.71 49.99
0 -4 14 923.41 52.19
4 -4 14 867.21 50.49
-4 4 14 907.31 51.39
-4 4 14 919.71 48.9
0 -4 14 817.12 51.79
-4 0 14 878.11 53.09
4 -4 14 686.93 56.89
0 4 14 886.71 45
-4 5 -14 803.52 47.9
-4 5 -14 772.42 46.6
5 -1 -14 729.13 44.4
1 4 -14 742.93 45.4
-5 1 -14 695.13 40.1
4 -5 -14 689.13 43.5
4 -5 -14 724.73 43.5
-1 -4 -14 659.43 41.8
-1 -4 -14 728.33 38.7
5 -1 -14 727.43 43.2
-5 1 -14 602.74 39.8
1 4 -14 670.23 45.6
-1 -4 14 691.43 44.1
-1 -4 14 703.93 44.1
5 -1 14 688.43 34.9
-5 1 14 713.83 42.6
4 -5 14 645.54 44.3
-5 1 14 647.54 41.3
-4 5 14 632.74 38.8
4 -5 14 648.44 43
-4 5 14 669.53 42.6
5 -1 14 705.63 34.8
-2 -3 -14 1252.47 60.69
3 -5 -14 1226.88 65.59
-5 2 -14 1038.6 64.69
-3 5 -14 1270.27 68.69
5 -2 -14 1164.28 66.39
-3 5 -14 1249.38 69.59
-5 2 -14 1144.79 64.59
2 3 -14 1199.18 66.89
5 -2 -14 1173.28 65.59
3 -5 -14 1234.18 65.69
-2 -3 -14 1230.08 60.79
2 3 -14 1048.9 68.19
-3 5 14 1310.87 70.69
-5 2 14 1431.06 74.89
5 -2 14 1329.47 68.89
-2 -3 14 1328.27 74.69
-3 5 14 1297.27 73.59
-5 2 14 1418.06 73.49
-2 -3 14 1335.27 76.49
5 -2 14 1346.87 69.89
3 -5 14 1359.06 75.59
3 -5 14 1322.97 76.79
-5 3 -14 1228.28 71.99
-2 5 -14 1397.06 75.09
-2 5 -14 1442.46 75.79
-3 -2 -14 1322.87 66.39
5 -3 -14 1211.18 72.39
-3 -2 -14 1299.47 66.99
3 2 -14 1290.97 72.49
3 2 -14 1339.17 73.39
5 -3 -14 1354.86 72.19
-5 3 -14 1240.78 72.99
2 -5 -14 1339.67 71.29
2 -5 -14 1357.96 71.09
5 -3 14 1373.46 74.19
-3 -2 14 1461.95 77.99
-5 3 14 1411.56 76.69
-2 5 14 1452.75 76.19
2 -5 14 1507.05 79.79
2 -5 14 1372.46 80.09
-3 -2 14 1389.06 77.89
-2 5 14 1443.66 73.99
5 -3 14 1384.46 76.19
-5 3 14 1481.65 78.69
-5 4 -14 801.72 48.6
4 1 -14 779.62 47.1
4 1 -14 765.92 48
-1 5 -14 891.21 50.69
-5 4 -14 751.52 49.5
5 -4 -14 830.12 47.5
-1 5 -14 835.82 49.99
-4 -1 -14 730.43 40.8
1 -5 -14 807.02 44.9
1 -5 -14 807.22 45.2
-4 -1 -14 771.42 41.6
5 -4 -14 724.83 47.3
-1 5 14 925.21 49.5
-1 5 14 881.61 47.9
5 -4 14 893.01 50.99
1 -5 14 981.9 55.19
-5 4 14 915.51 51.69
-5 4 14 979.3 54.49
1 -5 14 894.31 55.69
-4 -1 14 891.31 52.89
-4 -1 14 875.01 52.79
5 -4 14 820.22 52.99
5 0 -14 739.43 49
0 -5 -14 848.72 45.4
5 -5 -14 809.42 48.8
5 -5 -14 786.62 49.1
0 5 -14 808.92 51.09
5 0 -14 855.61 48.5
0 5 -14 839.22 51.29
-5 0 -14 855.91 43.4
-5 5 -14 753.52 50.09
0 -5 -14 795.02 44.7
-5 0 -14 743.53 42.7
-5 5 -14 843.92 52.69
-5 5 14 764.72 45.2
0 5 14 659.73 36.6
-5 5 14 675.03 41.1
0 -5 14 741.33 44.9
5 -5 14 685.93 42.6
-5 0 14 693.73 42.7
-5 0 14 656.13 47.6
0 5 14 681.63 36.4
0 -5 14 628.14 45.3
-1 -5 -14 771.52 43.8
-5 6 -14 842.02 53.79
6 -1 -14 814.72 48.4
6 -1 -14 730.33 56.99
5 -6 -14 819.82 50.39
1 5 -14 773.62 55.49
-1 -5 -14 835.52 44.1
-6 1 -14 710.23 44.8
-5 6 -14 892.01 52.99
5 -6 -14 799.62 49.2
1 5 -14 837.62 51.79
-1 -5 14 678.73 46
-1 -5 14 667.53 44.8
-6 1 14 668.93 42.8
5 -6 14 635.04 46.4
5 -6 14 719.03 44.6
-6 1 14 682.53 43.3
-5 6 14 696.73 45.1
-5 6 14 695.43 41
-6 2 -14 635.04 37.8
6 -2 -14 637.14 41.6
2 4 -14 646.74 42.2
4 -6 -14 604.54 40.3
4 -6 -14 626.94 41.1
-6 2 -14 558.04 38.9
6 -2 -14 654.73 40.4
-2 -4 -14 620.94 34.1
-4 6 -14 697.83 44.3
2 4 -14 601.14 42.4
-4 6 -14 727.83 46
-2 -4 -14 622.44 33.9
4 -6 14 661.93 43.5
6 -2 14 704.13 35.8
6 -2 14 636.54 35.2
-4 6 14 573.84 42.9
-4 6 14 667.73 44.8
-6 2 14 629.14 40.7
-6 2 14 632.14 41.8
4 -6 14 624.24 45.1
-2 -4 14 699.23 43
-2 -4 14 603.04 42.6
-3 -3 -14 230.28 13.9
-3 6 -14 222.98 26.6
6 -3 -14 210.18 23.2
-6 3 -14 210.48 22
3 3 -14 228.58 22.6
3 -6 -14 232.08 22.3
-6 3 -14 203.48 20.3
-3 6 -14 289.57 26.2
3 -6 -14 205.98 20.9
3 3 -14 257.97 24.9
6 -3 -14 203.98 23.3
-3 -3 -14 221.08 13.6
-3 -3 14 198.18 23.9
6 -3 14 239.68 17.2
3 -6 14 239.98 24.3
-3 -3 14 210.18 23.2
-3 6 14 222.28 24.9
3 -6 14 293.87 28.1
-6 3 14 237.08 23.9
-3 6 14 234.48 18.6
6 -3 14 246.48 19.9
2 -6 -14 517.45 33.2
-4 -2 -14 490.95 25.9
4 2 -14 491.45 35
6 -4 -14 484.25 35.7
2 -6 -14 501.75 33
-6 4 -14 512.35 35.6
-2 6 -14 550.44 38.6
6 -4 -14 496.35 34.8
4 2 -14 490.55 36
-6 4 -14 491.45 36.5
-2 6 -14 522.65 37.5
-2 6 14 433.86 27.1
6 -4 14 392.56 30.9
2 -6 14 459.95 34.2
-4 -2 14 405.76 32
-4 -2 14 442.86 32.2
2 -6 14 526.25 37.6
-6 4 14 439.86 31.6
-6 4 14 456.25 33.8
6 -5 -14 412.86 31.9
5 1 -14 391.66 32.2
1 -6 -14 396.46 27.9
-6 5 -14 419.56 32.5
1 -6 -14 389.46 27.6
-1 6 -14 475.85 35
-6 5 -14 424.96 34.1
-1 6 -14 419.66 33.4
6 -5 -14 381.56 30.7
-5 -1 -14 403.26 22
5 1 -14 396.46 30.6
-5 -1 14 327.37 28
-1 6 14 342.07 21.7
6 -5 14 328.17 28.6
6 -5 14 328.17 25.3
1 -6 14 381.56 32.7
1 -6 14 347.87 29.9
-1 6 14 339.77 22.9
-6 5 14 345.27 27.1
-6 5 14 336.77 29.4
-5 -1 14 345.37 28.1
6 0 -14 580.84 37.7
-6 6 -14 522.45 41.8
6 -6 -14 579.94 40.2
-6 0 -14 511.25 30.7
0 -6 -14 471.85 40.5
0 6 -14 580.04 41.6
-6 6 -14 574.04 41.4
0 6 -14 618.34 41.1
6 -6 -14 582.94 38.7
6 0 -14 546.15 39.1
-6 6 14 650.23 40.4
0 -6 14 715.93 44.6
6 -6 14 619.64 40.9
0 6 14 585.74 33.6
0 6 14 622.34 33.7
-6 0 14 677.03 42
-6 0 14 625.04 41.4
-6 6 14 623.64 43.4
0 -6 14 675.83 46.2
-1 -6 -14 968.7 48.8
7 -1 -14 852.41 52.79
6 -7 -14 841.92 56.09
-1 -6 -14 855.71 48.4
-6 7 -14 881.11 57.99
-6 7 -14 937.51 60.19
-7 1 -14 783.72 49.2
7 -1 -14 877.71 54.69
1 6 -14 919.71 57.39
1 6 -14 982.8 57.59
6 -7 -14 850.71 54.49
-6 7 14 724.03 49.6
6 -7 14 745.33 48.1
-1 -6 14 770.82 49.1
-1 -6 14 823.22 51.59
-7 1 14 772.42 47.7
6 -7 14 728.73 52.19
-6 7 14 701.63 44.7
-7 1 14 700.23 46.7
-5 7 -14 962.3 58.69
7 -2 -14 842.82 53.09
-5 7 -14 989.7 59.99
5 -7 -14 803.12 53.99
7 -2 -14 879.51 54.99
-2 -5 -14 903.31 48.8
5 -7 -14 920.11 55.69
2 5 -14 979.4 57.29
2 5 -14 946.91 56.69
-7 2 -14 813.72 51.59
-2 -5 -14 884.41 47.1
7 -2 14 843.62 41
-7 2 14 722.83 48.6
-2 -5 14 865.21 52.59
7 -2 14 792.42 41.3
-2 -5 14 832.82 52.59
5 -7 14 766.62 54.39
5 -7 14 904.41 58.29
-7 2 14 753.82 49.8
-5 7 14 760.02 50.79
4 -7 -14 331.37 29.5
-7 3 -14 330.57 27.8
7 -3 -14 352.66 30.4
4 -7 -14 346.47 28.9
3 4 -14 354.66 31.1
-4 7 -14 376.56 32.5
-4 7 -14 388.26 33.9
7 -3 -14 347.37 28.6
3 4 -14 354.56 30.2
-7 3 14 361.76 29.6
-4 7 14 346.27 28.8
-3 -4 14 375.86 29.7
-7 3 14 365.36 28.5
4 -7 14 347.57 31
-3 -4 14 340.97 30.5
4 -7 14 359.56 33.8
7 -3 14 291.17 20.3
-4 7 14 308.77 24
4 3 -14 -1.6 8.7
-7 4 -14 11.3 8.9
-3 7 -14 -2.2 10.8
3 -7 -14 16.4 13.3
7 -4 -14 7.1 11.7
-3 7 -14 3.4 13.5
7 -4 -14 8.7 9.2
-7 4 -14 0.4 9.6
3 -7 -14 14.2 8.8
4 3 -14 7.8 11
-7 4 14 3.6 11.2
-3 7 14 1.9 6.3
-4 -3 14 0.1 8.8
-4 -3 14 17.7 11.8
-7 4 14 3 9.7
7 -4 14 14.5 8
3 -7 14 2.9 9.2
-2 7 -14 187.88 24.8
7 -5 -14 160.38 23.4
2 -7 -14 173.98 19.2
-2 7 -14 199.08 26.7
5 2 -14 182.68 24.3
-7 5 -14 161.78 21.7
7 -5 -14 177.58 22.5
2 -7 -14 133.09 19.8
5 2 -14 156.58 20.9
-7 5 -14 145.59 23.4
7 -5 14 117.89 19.4
2 -7 14 164.68 23.6
-2 7 14 142.69 14.7
-7 5 14 169.38 23.1
2 -7 14 199.18 26.5
-5 -2 14 133.69 20
-5 -2 14 135.19 21.2
7 -5 14 101.89 14
-7 6 -14 89.69 18.5
-1 7 -14 119.19 18.8
6 1 -14 69.09 16
1 -7 -14 122.49 16.7
-1 7 -14 120.69 19.2
6 1 -14 102.89 15.9
7 -6 -14 82.99 15
-7 6 -14 85.49 17.3
7 -6 -14 110.49 19
1 -7 14 171.08 23.8
-7 6 14 140.89 21.2
-6 -1 14 156.98 22.4
-7 6 14 155.18 23.6
1 -7 14 208.78 27.5
-1 7 14 150.58 14
-6 -1 14 170.68 22
7 -6 14 168.08 24
7 -6 14 178.38 22.8
7 -7 -14 336.07 33.6
7 -7 -14 314.17 31
0 7 -14 402.16 34.3
-7 0 -14 346.37 21.9
-7 7 -14 402.86 37
0 -7 -14 367.16 26.1
7 0 -14 329.27 31.6
-7 0 -14 385.76 21.9
0 7 -14 406.46 35.1
7 0 -14 354.36 29.7
0 -7 -14 347.47 26
-7 7 -14 358.56 34.3
-7 0 14 428.86 34.1
0 -7 14 482.55 40.1
-7 7 14 443.66 32.9
7 -7 14 517.35 38.7
0 -7 14 458.75 36.3
-7 7 14 423.46 36.5
-7 0 14 423.96 34.6
7 -8 -14 184.08 25
-1 -7 -14 171.48 17.1
1 7 -14 207.28 29
-1 -7 -14 192.98 16.9
-7 8 -14 174.68 30.3
1 7 -14 180.48 25.6
-7 8 -14 179.18 29.3
-8 1 -14 159.08 17.3
8 -1 -14 120.49 21.6
8 -1 -14 154.18 24.8
7 -8 -14 162.78 27.8
-8 1 14 190.98 25.7
7 -8 14 172.18 28.9
-1 -7 14 191.98 26.4
-1 -7 14 234.48 30.9
-8 1 14 212.58 25.5
-7 8 14 158.38 21.9
8 -2 -14 255.77 25.4
-2 -6 -14 255.87 17.5
8 -2 -14 210.28 32
-6 8 -14 282.87 32.9
6 -8 -14 241.38 27
-2 -6 -14 254.97 17.9
-6 8 -14 279.67 31.2
-8 2 -14 245.38 22.6
2 6 -14 257.77 29.5
6 -8 -14 234.88 30.3
2 6 -14 263.27 29.1
-2 -6 14 269.27 28.9
-8 2 14 234.68 26.2
6 -8 14 279.17 28.6
-2 -6 14 254.97 30.4
-6 8 14 257.07 23.6
-8 2 14 246.28 26.5
6 -8 14 286.67 32.7
8 -3 -14 261.67 27.2
-5 8 -14 227.08 39
5 -8 -14 228.88 28.5
8 -3 -14 250.57 24.9
5 -8 -14 227.18 25.4
3 5 -14 216.28 27.1
-5 8 -14 264.97 31.3
-8 3 -14 219.98 23.6
3 5 -14 258.87 28.1
5 -8 14 237.98 28.1
-3 -5 14 265.17 28.3
8 -3 14 234.48 17.8
-3 -5 14 247.68 29
5 -8 14 280.07 31.9
-8 3 14 264.27 26.2
-8 3 14 227.48 25.8
-5 8 14 210.98 21.6
-8 4 -14 165.08 23.6
-4 8 -14 247.18 29.8
4 4 -14 171.38 24.4
4 -8 -14 199.48 26.2
8 -4 -14 194.78 25.7
4 -8 -14 186.48 23.1
4 4 -14 207.88 27
-4 8 -14 227.18 28.4
8 -4 -14 229.08 23.9
-8 4 14 205.68 24.5
-4 -4 14 208.08 24.6
-4 -4 14 224.98 26.5
-4 8 14 176.48 18.8
8 -4 14 183.68 22.4
-8 4 14 189.28 24.9
4 -8 14 182.38 27
4 -8 14 199.08 29.5
-8 5 -14 8.3 15.7
3 -8 -14 -4.3 9
-8 5 -14 -2.8 10.8
5 3 -14 15 10.7
-3 8 -14 8 13.3
5 3 -14 13.2 13.2
-3 8 -14 13.2 11.9
8 -5 -14 -0.9 13
8 -5 -14 -3.7 10.9
3 -8 -14 14.1 14.1
-5 -3 14 8 9.9
-8 5 14 2 11.6
-5 -3 14 11.4 12.9
-8 5 14 2.7 11.3
-3 8 14 5.5 6.9
3 -8 14 2.7 11.5
3 -8 14 12.6 13
8 -5 14 4.4 8.5
2 -8 -14 49.4 16
2 -8 -14 89.19 13.9
-2 8 -14 84.69 18
-2 8 -14 95.29 19.1
6 2 -14 80.79 17.7
8 -6 -14 87.29 17.9
8 -6 -14 54.29 14.2
-8 6 -14 71.79 17.2
6 2 -14 55.19 12.6
2 -8 14 65.89 14.9
-8 6 14 65.39 16.8
8 -6 14 38.1 13.2
-6 -2 14 59.69 13.1
2 -8 14 77.39 17
-8 6 14 87.39 15.6
-6 -2 14 65.79 14.9
8 -7 -14 53.89 13.4
1 -8 -14 97.29 17
1 -8 -14 107.59 17.6
-8 7 -14 103.69 20.1
-1 8 -14 131.09 21.6
8 -7 -14 93.39 19.6
7 1 -14 81.99 16.5
-1 8 -14 134.79 20.6
7 1 -14 76.49 20.6
-1 8 14 74.49 11.3
-7 -1 14 78.69 16.4
1 -8 14 77.29 15.7
-8 7 14 65.19 14.2
8 -7 14 103.99 25.5
-7 -1 14 84.89 16.3
1 -8 14 102.59 21.4
-8 7 14 86.99 18.3
-8 8 -14 277.57 35.1
0 -8 -14 275.97 23.3
8 -8 -14 250.57 29.9
0 -8 -14 263.27 23.3
-8 0 -14 310.27 17.4
8 -8 -14 236.18 37.4
0 8 -14 257.17 43.3
-8 0 -14 244.08 17.2
0 8 -14 245.38 31.3
8 0 -14 234.48 29.3
-8 8 14 240.38 26.5
0 -8 14 323.07 35.6
0 -8 14 280.47 31.3
-8 0 14 225.78 28
-8 0 14 266.47 27.1
8 -8 14 296.47 33.9
8 -9 -14 160.18 27.7
-9 1 -14 163.58 17.4
-1 -8 -14 157.28 18.1
8 -9 -14 198.18 27.6
-8 9 -14 158.68 25.7
1 8 -14 208.28 29
-1 -8 -14 181.78 18.2
-9 1 -14 192.28 16.6
9 -1 -14 168.48 28
-9 1 14 219.68 28.5
-1 -8 14 197.48 28.8
8 -9 14 272.67 35.2
-1 -8 14 269.77 34.9
-8 9 14 211.28 25.5
-9 1 14 220.58 28.1
7 -9 -14 50.49 15.1
9 -2 -14 28.2 14.2
-7 9 -14 80.29 21.9
-9 2 -14 36.1 11.1
-2 -7 -14 48.3 8.3
-7 9 -14 88.59 34
2 7 -14 45.4 16.2
-2 -7 -14 49.99 8.5
-9 2 -14 53.09 11.5
7 -9 -14 36.3 20.1
-9 2 14 24.4 12.3
7 -9 14 31.1 15.9
-9 2 14 10.3 13.9
-2 -7 14 15.9 15.8
-2 -7 14 23 16.8
-7 9 14 35 12.3
9 -3 -14 255.37 26.6
6 -9 -14 260.87 33.5
6 -9 -14 263.17 28.9
-6 9 -14 335.97 36.7
-6 9 -14 326.47 35.2
9 -3 -14 251.37 29.8
3 6 -14 255.17 30.7
-9 3 -14 287.77 26.7
-9 3 14 229.88 28.1
-3 -6 14 248.98 29
6 -9 14 219.28 32.9
-9 3 14 254.67 27.4
6 -9 14 235.58 40.4
-3 -6 14 249.88 31.7
9 -4 -14 299.37 29.6
5 -9 -14 348.27 31.9
5 -9 -14 351.16 35.4
-5 9 -14 332.77 36.8
4 5 -14 320.77 33.3
9 -4 -14 309.87 33.2
-9 4 -14 319.67 30.4
-5 9 -14 397.06 37.7
-5 9 14 252.67 24.3
9 -4 14 278.77 23.3
-4 -5 14 347.57 31.9
5 -9 14 276.47 31.9
-9 4 14 299.17 29.9
-4 -5 14 313.27 32.8
5 -9 14 332.97 37
-9 4 14 305.77 30.6
9 -5 -14 29.9 12.3
-9 5 -14 16.9 17.8
9 -5 -14 29.5 15.9
-4 9 -14 69.09 18.3
4 -9 -14 11.4 19.1
-4 9 -14 46.2 18.7
-9 5 -14 24.4 13.8
5 4 -14 36.6 16
4 -9 -14 34.8 12.7
4 -9 14 21.8 13.5
-9 5 14 22 13.1
-4 9 14 33.2 9.8
4 -9 14 14.8 14
-9 5 14 42.9 14.3
-5 -4 14 20.2 15
9 -5 14 4.4 8.8
-5 -4 14 9.5 11.3
-9 6 -14 19.8 14.2
6 3 -14 29.3 14.2
9 -6 -14 15.9 11.8
3 -9 -14 34 12.6
9 -6 -14 62.09 18.3
3 -9 -14 25 11.7
-3 9 -14 32.9 15.6
-3 9 -14 41.7 17.2
3 -9 14 27.5 13.1
3 -9 14 24.7 16.8
9 -6 14 51.19 13.5
-6 -3 14 31.5 12.8
-9 6 14 20.9 13.4
-6 -3 14 12.8 14.8
-3 9 14 30.2 8.9
-9 6 14 18.6 12.1
2 -9 -14 155.98 20.4
9 -7 -14 94.59 16.9
7 2 -14 124.59 19.9
-9 7 -14 120.89 21.2
-2 9 -14 107.69 20.2
2 -9 -14 122.99 21
-2 9 -14 174.88 28
9 -7 -14 142.29 23.7
-2 9 14 131.49 15.3
2 -9 14 106.79 18.2
-7 -2 14 118.69 19.5
-9 7 14 101.69 18
2 -9 14 136.29 24.8
-7 -2 14 76.69 14.7
9 -7 14 118.29 20
-9 7 14 163.58 26.2
9 -8 -14 301.37 32.9
-9 8 -14 347.97 38.7
1 -9 -14 333.87 28.1
9 -8 -14 294.47 39.3
8 1 -14 333.17 34.6
1 -9 -14 379.76 29
-1 9 -14 392.06 36.5
1 -9 14 350.46 53.09
1 -9 14 368.66 34.6
9 -8 14 386.36 39.9
-8 -1 14 334.47 31
-8 -1 14 326.97 32.9
-9 8 14 321.97 31.8
0 9 -14 589.54 46.2
9 0 -14 538.15 44.4
9 -9 -14 565.84 50.59
0 -9 -14 559.34 37
0 -9 -14 594.64 37.6
-9 9 -14 607.24 50.79
9 -9 -14 492.75 43.2
0 -9 14 694.53 52.39
0 -9 14 697.23 48.7
9 -9 14 692.33 52.09
-9 0 14 588.74 45.6
-9 0 14 581.94 43.7
-9 9 14 528.75 43.5
-10 1 -14 431.66 25.4
-1 -9 -14 373.16 27.7
-10 1 -14 337.87 26.4
1 9 -14 407.66 38.2
-1 -9 -14 400.76 29.4
9 -10 -14 385.96 46.7
-9 10 -14 433.76 45.3
9 -10 -14 321.87 36.8
10 -1 -14 339.27 36.6
-1 -9 14 347.87 35.6
9 -10 14 344.27 41.4
-9 10 14 241.38 39.2
-1 -9 14 345.47 40
-10 1 14 285.87 33.9
-10 1 14 293.57 34.9
-2 -8 -14 223.18 25.9
2 8 -14 251.77 31.9
-2 -8 -14 257.57 20
-8 10 -14 265.37 38.5
8 -10 -14 241.98 40.4
10 -2 -14 245.48 32.2
-10 2 -14 280.17 21.9
-10 2 -14 252.27 23.8
8 -10 -14 210.88 38.1
8 -10 14 204.08 30.3
-2 -8 14 266.37 35.2
-10 2 14 224.48 30
-8 10 14 201.78 25.5
-10 2 14 203.28 26.5
-2 -8 14 291.67 36.3
-7 10 -14 733.23 56.59
-7 10 -14 827.92 56.49
10 -3 -14 549.35 50.59
7 -10 -14 618.54 48.1
3 7 -14 699.13 49.7
-10 3 -14 645.94 44.4
7 -10 -14 686.73 55.49
-10 3 -14 644.04 41.3
7 -10 14 710.83 55.19
-3 -7 14 725.13 48.4
-7 10 14 555.24 41.9
-3 -7 14 715.53 51.59
-10 3 14 583.94 44.9
-10 3 14 630.14 46.3
-6 10 -14 755.82 54.59
6 -10 -14 598.94 47.4
10 -4 -14 550.84 48.3
-6 10 -14 795.72 54.89
-10 4 -14 619.84 44.5
4 6 -14 623.04 47.7
6 -10 -14 623.34 51.49
-10 4 14 559.64 43.6
-10 4 14 574.14 43.7
-4 -6 14 668.23 48.4
-4 -6 14 642.54 46.5
-6 10 14 509.35 46.3
6 -10 14 642.14 52.49
10 -4 14 594.44 43
-5 10 -14 198.38 32.3
5 5 -14 132.89 21.8
10 -5 -14 136.89 24
-5 10 -14 128.39 23.2
5 -10 -14 146.39 24.8
-10 5 -14 164.78 25.6
5 -10 14 188.18 29.9
-10 5 14 140.69 20.7
-5 -5 14 139.39 21.4
-5 -5 14 153.18 25.3
5 -10 14 198.28 33.4
10 -5 14 121.09 19.2
-5 10 14 160.38 20.9
-10 5 14 165.18 26.5
10 -6 -14 27.5 14.8
4 -10 -14 55.19 14.4
-4 10 -14 27.6 16.8
6 4 -14 43.1 17.2
-10 6 -14 45.6 16.3
10 -6 -14 43.1 17.5
4 -10 -14 59.79 15.7
-4 10 -14 76.59 20.8
-10 6 -14 0 17.2
-10 6 14 41.5 16.1
10 -6 14 80.19 15.8
-6 -4 14 55.69 16
-4 10 14 50.89 11.1
4 -10 14 71.19 17.9
-6 -4 14 43.9 15.3
-10 6 14 34.2 18.5
4 -10 14 69.99 21.1
-10 7 -14 143.29 24.5
3 -10 -14 159.28 24.2
10 -7 -14 122.39 24.5
-3 10 -14 138.19 23.3
7 3 -14 155.78 26.2
10 -7 -14 100.89 19.2
3 -10 -14 125.19 18.7
-7 -3 14 133.29 22.3
3 -10 14 189.98 33.3
-10 7 14 108.79 17.4
3 -10 14 107.59 19.5
-7 -3 14 120.69 19.3
-10 7 14 147.09 23.3
10 -7 14 134.59 21
-3 10 14 122.89 17.3
10 -8 -14 182.28 28.6
-2 10 -14 143.59 22.3
2 -10 -14 159.38 25.6
8 2 -14 132.79 21.8
2 -10 -14 181.98 29
10 -8 -14 129.59 21.3
-10 8 -14 133.39 25.3
-8 -2 14 175.48 30.1
10 -8 14 175.28 29.7
2 -10 14 198.58 30.2
-8 -2 14 174.88 25.7
-2 10 14 201.38 18
2 -10 14 252.97 36.6
-10 8 14 152.88 22.9
10 -9 -14 280.47 42.6
1 -10 -14 273.07 27.5
9 1 -14 256.87 33.1
-1 10 -14 320.47 35.6
-10 9 -14 304.37 40.7
1 -10 -14 309.57 28.2
-10 9 14 238.78 30.3
1 -10 14 273.47 32.8
-9 -1 14 262.77 32.1
-9 -1 14 249.88 28.7
1 -10 14 266.57 38.1
10 -10 -14 484.95 51.49
10 0 -14 401.06 40.1
3 8 -14 388.56 37.9
11 -3 -14 354.76 40
-11 3 -14 395.36 28.9
8 -11 -14 350.86 48.2
-8 11 -14 414.06 47
-11 3 -14 350.26 31.5
8 -11 -14 287.87 44.3
-8 11 14 298.77 30.8
8 -11 14 427.96 44.9
-11 3 14 310.27 33.6
-3 -8 14 291.07 42.6
-11 3 14 307.77 35.7
-3 -8 14 403.46 42
7 -11 -14 503.45 43.7
4 7 -14 475.95 42.9
11 -4 -14 448.76 44.9
-11 4 -14 489.15 38.6
-11 4 -14 484.05 35.4
-7 11 -14 585.54 50.89
-11 4 14 442.46 40.4
-4 -7 14 578.64 48.2
-4 -7 14 575.44 45.5
-11 4 14 502.45 42.7
7 -11 14 592.94 52.39
-11 5 -14 196.98 27.6
5 6 -14 175.88 24.9
6 -11 -14 206.78 30.4
-6 11 -14 179.28 30.3
-6 11 -14 233.08 35.7
11 -5 -14 144.79 25.5
6 -11 -14 217.08 30.7
-6 11 14 173.78 23.7
-11 5 14 182.88 29.6
6 -11 14 165.98 27.7
-11 5 14 221.18 29
-5 -6 14 241.48 31.7
-5 -6 14 191.88 34
11 -6 -14 173.38 27.2
-11 6 -14 265.47 31.9
5 -11 -14 204.88 33.3
-5 11 -14 223.78 36.5
6 5 -14 258.27 33
5 -11 -14 211.58 29.2
-6 -5 14 203.48 33.1
-11 6 14 172.28 29.8
5 -11 14 215.58 37.7
11 -6 14 170.98 24.1
-6 -5 14 240.48 30.6
-5 11 14 205.08 23.7
4 -11 -14 244.28 30.7
-11 7 -14 254.47 35
-4 11 -14 292.57 36.6
11 -7 -14 220.98 31.8
4 -11 -14 242.58 29.9
7 4 -14 298.77 30.5
4 -11 14 237.28 32.1
-7 -4 14 211.58 29.1
-7 -4 14 238.68 34.1
-11 7 14 164.98 30.3
-11 7 14 202.48 40.2
11 -7 14 235.68 40.6
-4 11 14 212.88 23.7
4 -11 14 310.67 40.2
3 -11 -14 137.19 19.6
-11 8 -14 140.29 26.3
11 -8 -14 160.38 28.3
-3 11 -14 109.19 23.3
8 3 -14 72.49 17
3 -11 -14 120.19 19.4
3 -11 14 71.09 21.5
-11 8 14 85.79 18.7
-8 -3 14 125.59 23.4
-8 -3 14 113.59 22.8
3 -11 14 130.39 21.6
11 -8 14 87.39 19.8
-3 11 14 77.59 13.5
0 0 -15 11.4 5.6
0 0 -15 0.6 5.5
0 0 15 6 5.5
0 0 15 6.5 6.2
1 0 -15 50.29 9.4
1 -1 -15 38.8 7.5
-1 1 -15 44.9 9
0 -1 -15 62.09 10.7
-1 1 -15 32.4 7.4
0 -1 -15 34.3 7.4
1 -1 -15 40.7 7.6
0 1 -15 32.5 7.8
1 0 -15 52.89 9.1
-1 0 -15 38.5 7.2
0 1 -15 52.19 8.5
-1 0 -15 41.2 7.2
-1 1 15 62.29 9.5
0 -1 15 57.39 10.1
1 -1 15 58.09 11.4
0 1 15 38.3 7.5
1 0 15 45.5 8.4
0 -1 15 39.6 7.7
1 0 15 62.49 9.5
0 1 15 63.59 9.7
-1 0 15 36.7 8.6
1 -1 15 60.89 10.3
-1 0 15 60.49 9.3
2 -1 -15 446.46 28.8
-1 -1 -15 464.35 27
-2 1 -15 437.66 28
2 -1 -15 433.26 28.9
1 -2 -15 424.66 27.8
-2 1 -15 440.46 28.4
1 1 -15 457.85 29.2
1 -2 -15 457.25 28.3
-1 2 -15 454.95 29.4
-1 2 -15 420.06 29.3
1 1 -15 427.26 29.3
-1 -1 -15 458.65 27
1 -2 15 507.45 32.3
-1 -1 15 470.95 30.7
1 -2 15 491.75 30.5
-2 1 15 485.45 30.8
-1 -1 15 506.55 31.6
1 1 15 414.46 28.3
-1 2 15 513.15 29.9
2 -1 15 435.26 29.6
1 1 15 490.05 27.1
-2 1 15 483.25 30
-1 2 15 524.55 28.7
2 -1 15 458.55 28.5
0 2 -15 454.55 30.2
-2 0 -15 446.96 27.2
0 -2 -15 441.16 27.2
0 -2 -15 466.85 27.2
2 0 -15 445.06 29.2
2 0 -15 414.06 28.9
-2 2 -15 391.46 28.7
-2 2 -15 443.66 29.4
2 -2 -15 436.56 28.5
-2 0 -15 422.86 26.5
0 2 -15 466.65 29.7
2 -2 -15 446.16 29.1
-2 0 15 419.26 27.8
0 -2 15 390.66 28.2
0 2 15 446.06 24.6
0 -2 15 434.06 29.3
2 0 15 393.36 25.6
-2 0 15 456.15 28.8
-2 2 15 426.16 27.9
2 0 15 432.96 24.6
0 2 15 417.16 25.9
2 -2 15 380.06 28.3
2 -3 -15 1101.29 59.69
1 2 -15 1080.39 61.09
-3 1 -15 1055.99 59.69
-1 -2 -15 1161.38 57.39
3 -1 -15 1157.08 60.29
-1 -2 -15 1116.29 57.29
-3 1 -15 1078.89 58.49
2 -3 -15 1136.79 59.69
-2 3 -15 930.91 60.39
1 2 -15 1073.79 60.39
3 -1 -15 1060.99 60.29
-2 3 -15 1061.19 61.59
2 -3 15 1193.28 67.09
2 -3 15 1178.28 66.29
3 -1 15 1259.77 63.49
-3 1 15 1211.48 65.99
1 2 15 1044 62.09
-1 -2 15 1145.99 65.99
1 2 15 1281.67 61.19
-1 -2 15 1240.78 66.59
-2 3 15 1197.28 64.09
-3 1 15 1204.48 65.29
3 -1 15 1211.88 62.59
-2 3 15 1272.97 65.29
2 1 -15 202.58 20.3
2 1 -15 217.78 20.1
-2 -1 -15 224.48 16.7
3 -2 -15 246.08 19.9
-2 -1 -15 224.18 16.3
-3 2 -15 210.78 19.3
1 -3 -15 230.98 18.4
-1 3 -15 215.48 21.3
-1 3 -15 222.08 20.8
1 -3 -15 249.68 18.8
-3 2 -15 222.78 20.4
3 -2 -15 209.78 20.6
-1 3 15 238.28 17.6
3 -2 15 224.28 18.6
2 1 15 215.38 14.9
-2 -1 15 206.88 19.6
1 -3 15 217.48 21.2
3 -2 15 207.28 17.5
1 -3 15 223.78 20.8
2 1 15 233.18 13.9
-3 2 15 217.18 20.1
-3 2 15 221.38 18.6
-1 3 15 211.28 15.9
-2 -1 15 218.18 20.5
3 0 -15 2446.46 131.49
-3 3 -15 2339.97 132.09
3 -3 -15 2700.33 131.59
3 -3 -15 2516.05 131.29
3 0 -15 2647.54 131.69
-3 3 -15 2623.34 133.19
-3 0 -15 2444.16 128.29
0 3 -15 2547.55 132.79
0 -3 -15 2621.44 129.19
-3 0 -15 2533.55 129.79
0 3 -15 2618.84 132.59
0 -3 -15 2638.94 129.29
3 -3 15 2353.36 136.39
3 0 15 2813.62 131.09
-3 3 15 2730.53 134.39
3 0 15 2626.34 131.49
-3 0 15 2575.34 135.39
0 -3 15 2633.04 136.89
0 3 15 2547.25 132.59
0 3 15 2782.92 131.69
3 -3 15 2503.55 135.89
-3 3 15 2720.23 136.29
-3 0 15 2648.83 136.09
0 -3 15 2786.22 137.99
-3 4 -15 3720.23 185.58
-3 4 -15 3817.12 185.58
3 -4 -15 3511.55 182.48
-4 1 -15 3268.37 180.48
-1 -3 -15 3723.93 179.68
1 3 -15 3701.93 184.58
-4 1 -15 3220.28 181.28
4 -1 -15 3736.73 183.08
3 -4 -15 3408.86 186.88
4 -1 -15 3582.14 183.38
-1 -3 -15 3932.31 179.78
1 3 -15 3708.73 184.18
1 3 15 3948.51 178.78
-4 1 15 3563.04 182.58
1 3 15 3282.77 178.18
-1 -3 15 3771.32 184.68
3 -4 15 3547.34 184.48
-4 1 15 3759.62 183.88
-3 4 15 3676.43 183.38
-1 -3 15 3606.44 184.28
4 -1 15 3677.63 178.78
3 -4 15 3370.26 184.48
4 -1 15 3540.85 178.58
2 -4 -15 915.71 49.3
-2 4 -15 886.61 52.29
2 -4 -15 884.51 49
4 -2 -15 862.91 50.39
-4 2 -15 739.73 48.4
4 -2 -15 864.21 49.8
-2 -2 -15 886.41 45.5
-2 -2 -15 890.41 45.7
-4 2 -15 782.32 49.1
2 2 -15 876.31 50.49
-2 4 -15 895.51 52.49
2 2 -15 784.12 50.19
-4 2 15 988.4 54.29
4 -2 15 899.01 50.09
2 -4 15 975.3 55.09
-2 4 15 967.6 50.19
-4 2 15 876.41 52.29
2 2 15 913.11 46.4
-2 -2 15 963.2 54.09
-2 4 15 909.81 52.09
-2 -2 15 926.81 53.89
4 -2 15 926.71 50.49
2 -4 15 882.71 54.89
-4 3 -15 175.58 19.4
4 -3 -15 191.18 20.7
4 -3 -15 213.18 20.3
1 -4 -15 214.48 18.1
-3 -1 -15 188.98 14.5
-1 4 -15 217.78 21.9
-4 3 -15 211.48 21
-1 4 -15 202.88 22.6
3 1 -15 185.58 20.5
-3 -1 -15 205.88 16
3 1 -15 187.48 20.2
1 -4 -15 189.58 17.9
4 -3 15 169.18 17.3
-4 3 15 157.18 17.6
-3 -1 15 160.78 19.1
-3 -1 15 168.88 19.3
-1 4 15 166.98 13.8
1 -4 15 176.88 20.8
-4 3 15 222.88 20.6
4 -3 15 181.68 18.1
1 -4 15 181.78 20.7
-1 4 15 177.48 15.5
4 -4 -15 2646.74 130.89
0 -4 -15 2585.44 127.99
-4 4 -15 2670.23 133.39
-4 0 -15 2353.36 127.69
4 -4 -15 2446.06 130.49
0 4 -15 2563.14 132.59
4 0 -15 2524.35 131.29
4 0 -15 2594.14 130.89
-4 4 -15 2279.57 134.99
0 4 -15 2503.55 132.49
-4 0 -15 2451.25 126.39
0 -4 -15 2640.44 127.59
4 -4 15 2677.43 139.79
4 0 15 2800.72 132.39
-4 0 15 2735.93 139.69
4 -4 15 2457.05 140.09
0 4 15 2790.02 134.39
-4 4 15 2776.62 137.89
-4 4 15 2835.12 140.69
0 4 15 2624.24 134.99
0 -4 15 2671.33 141.39
0 -4 15 2822.52 141.39
-4 0 15 2544.75 139.09
-4 5 -15 2376.76 119.69
-5 1 -15 2175.98 112.99
4 -5 -15 2346.97 116.39
5 -1 -15 2155.38 116.29
-1 -4 -15 2255.87 111.39
-1 -4 -15 2162.38 113.49
5 -1 -15 2235.88 115.69
1 4 -15 2166.68 117.49
-4 5 -15 2344.67 118.99
1 4 -15 2297.87 117.89
-5 1 -15 1908.61 112.29
4 -5 -15 2123.19 115.59
5 -1 15 2017.5 98.09
-1 -4 15 2114.39 107.19
4 -5 15 1780.12 106.89
-5 1 15 1985.5 104.49
-4 5 15 2047 105.99
-1 -4 15 1874.21 106.29
4 -5 15 2002.3 106.39
-5 1 15 2021 105.39
5 -1 15 1963.4 98.09
-5 2 -15 1705.33 95.99
3 -5 -15 1852.31 97.19
-3 5 -15 1876.81 99.99
-2 -3 -15 1866.21 92.29
5 -2 -15 1755.72 97.59
3 -5 -15 1793.42 96.69
5 -2 -15 1841.92 97.39
-2 -3 -15 1848.92 92.39
2 3 -15 1872.51 99.19
2 3 -15 1827.82 98.29
-3 5 -15 1938.21 101.29
-2 -3 15 1532.95 86.39
-5 2 15 1694.73 86.59
5 -2 15 1578.04 81.39
-5 2 15 1597.84 85.09
-3 5 15 1538.35 85.19
3 -5 15 1689.53 87.89
-2 -3 15 1581.54 86.09
3 -5 15 1449.76 87.89
5 -2 15 1563.64 80.49
-3 5 15 1610.84 82.49
2 -5 -15 112.09 15.7
-2 5 -15 120.49 21
3 2 -15 105.69 16.5
-5 3 -15 98.99 16
-3 -2 -15 115.79 10.5
-3 -2 -15 101.49 10.9
5 -3 -15 124.29 19.2
3 2 -15 114.89 17.7
-5 3 -15 98.59 17.3
5 -3 -15 96.19 17.3
-2 5 -15 127.79 19.1
-5 3 15 55.69 11.6
-3 -2 15 38.5 11.8
-5 3 15 64.59 11.4
2 -5 15 62.89 12.9
-2 5 15 45.6 7.9
5 -3 15 47.7 9.9
-3 -2 15 40.3 10.8
5 -3 15 86.59 11.3
2 -5 15 67.39 14.6
-2 5 15 66.49 10.6
-5 4 -15 584.24 39.8
-5 4 -15 520.55 37.6
1 -5 -15 584.44 35.2
4 1 -15 583.84 38.9
5 -4 -15 616.84 38
-1 5 -15 576.54 39.8
4 1 -15 518.85 37.1
5 -4 -15 515.15 37.7
-1 5 -15 637.84 41
-4 -1 -15 561.94 31.6
-4 -1 -15 545.75 30.6
1 -5 -15 558.14 34.5
-1 5 15 530.85 29.9
-5 4 15 525.35 36.7
5 -4 15 484.15 35.2
5 -4 15 484.25 37.6
-1 5 15 455.25 35.1
1 -5 15 504.65 38.1
-4 -1 15 521.85 35.4
-5 4 15 523.55 34
1 -5 15 628.34 38.3
-4 -1 15 543.15 35.8
0 5 -15 1652.93 91.39
5 0 -15 1675.73 88.59
5 -5 -15 1631.84 88.79
5 0 -15 1646.14 89.29
0 5 -15 1678.03 91.09
5 -5 -15 1551.84 88.69
-5 5 -15 1710.83 92.59
-5 5 -15 1568.34 90.49
0 -5 -15 1599.54 84.69
0 -5 -15 1641.14 85.29
-5 0 -15 1556.44 82.99
-5 0 -15 1707.73 83.69
5 -5 15 1434.56 88.79
-5 5 15 1487.65 78.79
-5 0 15 1408.26 80.09
0 -5 15 1617.14 82.89
-5 5 15 1532.95 82.39
-5 0 15 1458.85 80.69
0 -5 15 1497.95 83.59
0 5 15 1320.57 76.39
0 5 15 1473.65 74.19
6 -1 -15 409.16 30.7
5 -6 -15 382.96 32.5
-6 1 -15 400.36 25.5
1 5 -15 417.46 34.3
-1 -5 -15 384.06 25.1
-5 6 -15 409.06 35.3
1 5 -15 422.36 33.7
-1 -5 -15 308.37 28.8
5 -6 -15 415.26 31
6 -1 -15 361.26 31.3
-5 6 -15 445.86 34.5
-5 6 15 343.77 29.9
5 -6 15 355.26 32
-1 -5 15 373.86 31.1
-6 1 15 328.47 28.7
-1 -5 15 345.47 31.9
-6 1 15 363.66 29
5 -6 15 363.26 30.3
-5 6 15 343.37 25.9
4 -6 -15 740.43 46.7
-4 6 -15 858.21 52.19
6 -2 -15 728.03 46.6
4 -6 -15 766.92 47.7
-2 -4 -15 793.92 40.6
-6 2 -15 605.14 46.2
2 4 -15 753.72 50.79
-6 2 -15 790.72 44.4
6 -2 -15 745.43 48
-2 -4 -15 750.52 40.6
2 4 -15 786.72 49
-4 6 -15 825.22 50.59
-4 6 15 713.83 45.2
-2 -4 15 679.93 46.3
4 -6 15 708.33 48.7
-6 2 15 726.93 45.5
6 -2 15 671.83 37.8
-6 2 15 687.83 44.1
6 -2 15 728.43 37.4
-4 6 15 659.43 40.8
-2 -4 15 758.42 46.4
4 -6 15 711.63 46.6
3 3 -15 521.35 36.4
-3 6 -15 645.84 41.6
-6 3 -15 457.75 35.2
3 -6 -15 462.35 34.7
6 -3 -15 491.75 36.3
-6 3 -15 490.35 34.3
3 3 -15 387.06 42.7
3 -6 -15 515.65 34.6
6 -3 -15 531.95 35.8
-3 6 -15 585.14 39.1
-3 -3 -15 529.45 27.9
-3 -3 -15 518.75 27.4
3 -6 15 504.25 34.9
-3 6 15 429.26 31.5
-3 -3 15 436.86 33.7
-3 -3 15 467.65 33.2
3 -6 15 447.76 36.6
-3 6 15 455.55 28.1
-6 3 15 447.96 33.3
6 -3 15 354.36 25.5
6 -3 15 459.75 28.9
4 2 -15 0.8 10.1
-2 6 -15 35.4 14.2
6 -4 -15 28.5 11.1
4 2 -15 8.8 10.6
2 -6 -15 20.9 8.6
6 -4 -15 20.7 10.6
-4 -2 -15 17.7 4
-4 -2 -15 16.4 4.2
-2 6 -15 16.7 10
2 -6 -15 12.3 9.9
-6 4 -15 16.6 9.7
-6 4 -15 29.3 11.4
-6 4 15 22 10.6
-2 6 15 24 6.8
2 -6 15 29.6 13.8
6 -4 15 49.6 10.6
-4 -2 15 17.9 10.8
-6 4 15 15.3 9.8
-4 -2 15 20.8 11.3
2 -6 15 16.3 10
6 -5 -15 235.48 26
5 1 -15 247.28 24.6
6 -5 -15 256.87 24.8
-1 6 -15 266.47 26.7
1 -6 -15 272.77 21.7
-1 6 -15 257.37 28.2
5 1 -15 214.18 26.6
1 -6 -15 254.77 21.6
-5 -1 -15 225.18 14.9
-6 5 -15 235.38 27.3
-6 5 -15 283.57 26.2
1 -6 15 211.88 26.9
-1 6 15 178.48 18.9
-6 5 15 191.18 23.9
6 -5 15 170.58 21.7
-1 6 15 214.98 16.6
-5 -1 15 199.08 22.4
-5 -1 15 181.88 22.1
1 -6 15 218.48 24.1
-6 5 15 171.68 20.8
6 -5 15 179.08 19.3
0 -6 -15 74.59 10.9
0 -6 -15 46.8 12.3
-6 6 -15 63.29 14.5
6 -6 -15 71.79 14.5
6 -6 -15 55.79 14.7
6 0 -15 82.09 14.5
-6 0 -15 71.19 10.7
0 6 -15 78.99 16.2
0 6 -15 88.49 16.4
-6 6 -15 64.59 16.9
-6 0 15 73.99 14.4
0 6 15 68.69 8
0 6 15 69.69 8
0 -6 15 73.19 16.6
-6 6 15 52.59 12.1
0 -6 15 99.39 16.8
-6 0 15 42.3 11.6
6 -6 15 56.19 12.5
-6 6 15 48.7 13.7
-1 -6 -15 320.27 23.1
-6 7 -15 368.56 36.1
1 6 -15 427.16 34.5
-7 1 -15 314.27 23.6
6 -7 -15 359.46 33.5
1 6 -15 316.57 32.5
7 -1 -15 351.26 31.4
7 -1 -15 286.07 28.1
6 -7 -15 341.17 30.3
-6 7 -15 346.97 33.4
-6 7 15 264.87 24.7
6 -7 15 326.97 31.8
-1 -6 15 282.57 29.2
-7 1 15 287.67 27.8
-6 7 15 274.77 29.5
6 -7 15 291.17 28.4
-7 1 15 276.07 27.5
-1 -6 15 315.27 32.7
-2 -5 -15 94.19 10.9
7 -2 -15 110.29 19.2
7 -2 -15 72.59 15.2
2 5 -15 64.59 16.4
-2 -5 -15 74.09 10.6
-5 7 -15 98.09 19.3
5 -7 -15 48.7 12.1
2 5 -15 83.59 16.9
-7 2 -15 75.69 12.4
-5 7 -15 62.49 14.6
5 -7 -15 74.89 22.5
-2 -5 15 93.29 18.2
5 -7 15 81.99 15.7
7 -2 15 86.79 8
-7 2 15 84.49 15.8
5 -7 15 71.29 18
-2 -5 15 88.29 16.6
-7 2 15 68.99 13.9
-5 7 15 67.09 14.7
7 -2 15 106.89 7.7
-4 7 -15 80.99 16.5
3 4 -15 63.39 15
-7 3 -15 58.89 13
3 4 -15 47.9 13.4
-4 7 -15 75.19 16.4
7 -3 -15 65.79 14.9
7 -3 -15 71.69 13.5
4 -7 -15 53.99 12.1
4 -7 -15 68.89 15.2
7 -3 15 48.2 8.7
-4 7 15 35.4 9.2
4 -7 15 44.8 14.2
-4 7 15 43.2 13.3
4 -7 15 33.5 13.1
-7 3 15 39.7 13
-3 -4 15 42.4 12.4
-7 3 15 58.39 13.2
-3 -4 15 61.69 15
7 -4 -15 12.8 9.6
-7 4 -15 11.3 10.2
3 -7 -15 14.4 9.2
-3 7 -15 13.3 10.5
-7 4 -15 35.3 10.3
4 3 -15 14 12.3
4 3 -15 27.6 12.2
7 -4 -15 15.7 12.1
-3 7 -15 23.8 13.4
3 -7 -15 29.3 12.6
3 -7 15 -8.5 14.2
-4 -3 15 -2.2 12.5
7 -4 15 14.9 8.6
-7 4 15 14.7 11.4
3 -7 15 7.6 10.6
-7 4 15 17.8 11.9
-3 7 15 1.8 6.6
-4 -3 15 9.9 10.2
5 2 -15 86.99 16.5
7 -5 -15 72.19 14.4
-2 7 -15 95.99 19.2
2 -7 -15 61.69 12
-7 5 -15 74.49 15.6
-7 5 -15 77.49 14.3
5 2 -15 72.99 12.8
7 -5 -15 68.99 15.6
-2 7 -15 100.39 18
2 -7 -15 98.59 17.5
-2 7 15 88.99 13
7 -5 15 69.99 13.7
2 -7 15 96.99 16.3
-7 5 15 68.59 14.4
2 -7 15 98.79 17
-7 5 15 51.39 15.2
-5 -2 15 89.39 19.3
-5 -2 15 103.99 16.7
7 -6 -15 17.9 11.9
1 -7 -15 13.8 13.4
1 -7 -15 10.3 8.2
6 1 -15 12.8 12.1
-1 7 -15 3.1 13.1
6 1 -15 0.5 17.2
-7 6 -15 3.9 12.4
-1 7 -15 5.6 10.6
-7 6 -15 12.3 14.4
7 -6 -15 10 13.2
-7 6 15 2.6 9.4
-7 6 15 9.2 11.7
1 -7 15 1.8 11.8
-1 7 15 5.4 5.4
-6 -1 15 16.6 13.5
-6 -1 15 -11.1 9.7
7 -6 15 8.2 10.1
1 -7 15 8.3 11.1
-7 0 -15 496.25 28.7
7 0 -15 505.85 37.5
7 -7 -15 491.75 41.2
0 7 -15 559.84 42.4
0 -7 -15 544.65 33.9
0 7 -15 537.05 41.3
-7 7 -15 536.95 42.4
7 0 -15 493.95 39.5
-7 7 -15 520.85 43.9
7 -7 -15 532.15 39.4
0 -7 -15 506.45 33.3
-7 7 15 404.66 32.1
-7 0 15 431.26 33.9
0 -7 15 452.25 36.3
-7 0 15 377.26 33.7
0 -7 15 466.05 40.1
-7 7 15 428.66 36.6
1 7 -15 1375.46 76.79
8 -1 -15 1175.18 73.99
-8 1 -15 1160.58 66.59
-1 -7 -15 1308.57 66.59
-7 8 -15 1319.77 78.99
7 -8 -15 1223.18 76.29
-7 8 -15 1316.17 80.39
-1 -7 -15 1234.88 66.79
7 -8 -15 1210.38 74.19
8 -1 -15 1182.68 71.39
-1 -7 15 1226.98 72.99
7 -8 15 1308.77 77.29
-8 1 15 1163.08 70.89
-8 1 15 1244.28 71.29
-1 -7 15 1336.87 76.79
-7 8 15 1038 68.29
-6 8 -15 826.32 59.39
2 6 -15 886.91 55.69
2 6 -15 838.62 54.09
8 -2 -15 744.13 49.8
6 -8 -15 794.62 54.59
8 -2 -15 797.02 52.69
-6 8 -15 859.71 57.59
-2 -6 -15 830.32 42.8
-2 -6 -15 809.52 43.2
-8 2 -15 671.93 47.4
6 -8 -15 777.62 52.19
-2 -6 15 824.62 52.89
-8 2 15 724.43 50.29
-6 8 15 717.93 47.1
-2 -6 15 872.31 55.49
6 -8 15 947.91 58.59
-8 2 15 724.13 50.19
3 5 -15 149.19 24.5
-8 3 -15 133.49 19.4
-5 8 -15 121.99 20.5
5 -8 -15 149.59 21.1
5 -8 -15 108.09 16.9
-5 8 -15 151.58 33.5
8 -3 -15 134.39 23.6
3 5 -15 117.09 19.2
-8 3 -15 67.99 17.5
8 -3 -15 115.09 20.3
5 -8 15 133.69 20.8
5 -8 15 150.78 23.4
-8 3 15 125.99 22.6
-3 -5 15 140.29 22
-8 3 15 148.69 23.4
-3 -5 15 143.39 21.5
8 -3 15 129.59 13.1
8 -4 -15 26 11
-4 8 -15 22.8 14.9
4 -8 -15 35.1 14.5
8 -4 -15 36.3 13.6
-4 8 -15 25.5 13.6
4 4 -15 22.9 15
4 4 -15 19.6 11
-8 4 -15 29.2 11.8
-8 4 -15 -1.5 11.1
4 -8 -15 33 12
-4 -4 15 22 12.5
-8 4 15 13.1 12.1
-4 -4 15 5.4 12.1
-8 4 15 14.5 12.6
8 -4 15 15.9 8.7
4 -8 15 28.7 15.9
-4 8 15 6.8 7.7
4 -8 15 9.4 23.4
-8 5 -15 93.69 16.9
3 -8 -15 75.99 14
5 3 -15 80.69 13.9
-3 8 -15 91.59 18.2
8 -5 -15 63.19 15.9
3 -8 -15 91.49 17.1
5 3 -15 78.89 17.3
8 -5 -15 86.99 16.3
-3 8 -15 70.99 17.4
-3 8 15 73.59 11.3
-5 -3 15 63.79 15.8
8 -5 15 53.29 12.5
-8 5 15 92.99 15.6
3 -8 15 105.69 21.6
-5 -3 15 93.59 15.7
3 -8 15 90.99 17.9
-8 5 15 63.69 15
-2 8 -15 178.08 26.2
-8 6 -15 129.29 21.3
8 -6 -15 132.19 19.7
6 2 -15 135.49 21.8
6 2 -15 133.89 20.8
-2 8 -15 160.68 27.8
2 -8 -15 114.49 19.4
8 -6 -15 153.98 23.1
-6 -2 15 139.49 19.4
2 -8 15 140.89 23.7
2 -8 15 137.79 23.9
-2 8 15 122.39 14.6
8 -6 15 122.99 21
-6 -2 15 95.39 17.5
-8 6 15 98.79 17.6
-8 6 15 132.99 23
-1 8 -15 52.99 17.3
-8 7 -15 30.2 14.9
1 -8 -15 23.4 10.8
8 -7 -15 28 14.5
7 1 -15 41.8 15.9
1 -8 -15 22 10.4
-1 8 -15 29.9 14.2
8 -7 -15 42.8 17.5
-7 -1 15 4.9 13.4
1 -8 15 19 13.9
1 -8 15 16.6 15.6
-7 -1 15 5.1 21.1
-8 7 15 28.5 13
-8 7 15 16 14.2
-1 8 15 15.4 5.9
8 -7 15 15.9 12.1
8 -8 -15 472.15 39
0 -8 -15 460.75 31.8
-8 0 -15 433.76 29.1
-8 0 -15 443.56 25.3
8 -8 -15 451.45 41.9
0 -8 -15 514.65 32.2
0 8 -15 491.75 40.9
-8 8 -15 492.75 43.9
8 0 -15 427.16 38.3
-8 0 15 455.05 38.3
0 -8 15 585.94 45.9
-8 8 15 402.66 35.6
0 -8 15 521.95 40.7
8 -8 15 531.75 42.6
-8 0 15 442.56 36.6
8 -9 -15 571.74 52.19
8 -9 -15 579.24 46.9
-8 9 -15 720.63 54.89
-1 -8 -15 675.33 38.8
-1 -8 -15 649.64 38.9
-9 1 -15 718.63 37.2
1 8 -15 720.53 50.29
-9 1 -15 577.74 38
9 -1 -15 616.54 48.1
8 -9 15 674.23 52.79
-9 1 15 626.74 45.9
-1 -8 15 675.33 48.1
-9 1 15 579.94 44.7
-8 9 15 629.74 43.6
-1 -8 15 705.93 52.69
-2 -7 -15 1426.46 71.89
9 -2 -15 1379.46 89.99
-7 9 -15 1656.03 90.39
7 -9 -15 1274.27 83.59
-9 2 -15 1263.97 75.59
7 -9 -15 1263.67 81.19
-2 -7 -15 1438.46 71.79
2 7 -15 1430.16 83.09
-2 -7 15 1547.15 87.29
7 -9 15 1522.95 88.89
-2 -7 15 1536.15 83.89
-9 2 15 1343.67 81.19
-9 2 15 1332.07 80.49
-7 9 15 1246.68 77.99
-9 3 -15 493.35 35
9 -3 -15 444.86 39.4
-6 9 -15 439.56 62.19
9 -3 -15 453.15 36
6 -9 -15 463.95 41.9
3 6 -15 462.85 39.7
-6 9 -15 540.05 44.1
6 -9 -15 445.06 38.2
-9 3 15 370.26 35.8
6 -9 15 508.35 44.1
-9 3 15 380.76 35.6
-3 -6 15 505.05 39.9
-3 -6 15 489.35 41.5
-9 4 -15 99.59 17.5
9 -4 -15 107.89 17.5
-5 9 -15 124.79 22.2
5 -9 -15 82.39 19.8
9 -4 -15 89.29 17.6
4 5 -15 104.49 20.3
5 -9 -15 112.39 22.6
-5 9 -15 130.09 23.7
5 -9 15 97.29 17.4
-9 4 15 75.49 16.3
9 -4 15 107.09 15
-4 -5 15 66.99 16.4
-5 9 15 72.39 12.5
5 -9 15 53.49 17.1
-4 -5 15 103.39 18.9
-9 4 15 92.69 17.2
-4 9 -15 -16.9 14.6
4 -9 -15 -0.1 10
-4 9 -15 2.4 12.1
-9 5 -15 -1 12.1
5 4 -15 -0.3 13.4
4 -9 -15 10.1 19.5
-9 5 -15 -6.3 16.9
9 -5 -15 -1.3 12.2
9 -5 -15 -4.4 10.2
-5 -4 15 -13.2 11.1
-5 -4 15 -12.7 10.1
-9 5 15 1.2 10.8
4 -9 15 10 12.3
9 -5 15 18.1 9.1
-9 5 15 -12.2 11.9
-4 9 15 4.7 8.3
4 -9 15 9.2 15.7
-9 6 -15 14 14.1
6 3 -15 22.6 14.9
-3 9 -15 20.3 15.1
-3 9 -15 33.9 16.9
3 -9 -15 20.3 11.9
-9 6 -15 4.6 19.2
9 -6 -15 14.6 15.6
9 -6 -15 12.1 12.7
3 -9 -15 7.9 13.1
-9 6 15 36.2 14.5
-9 6 15 11.1 12.6
3 -9 15 23 13.5
-3 9 15 12.8 9.8
-6 -3 15 17 12.8
-6 -3 15 14.7 15.1
9 -6 15 6 10.8
3 -9 15 12.5 15.2
-2 9 -15 56.69 18.4
9 -7 -15 32.8 13.3
2 -9 -15 39.4 12.1
9 -7 -15 27.6 16.6
2 -9 -15 31.3 12
-9 7 -15 -10.4 20.6
7 2 -15 22.5 15.8
-9 7 -15 21.1 15.2
-2 9 -15 41 16
2 -9 15 19.9 16
2 -9 15 18.1 12.5
-7 -2 15 16.6 12.3
-9 7 15 3.5 12.7
-2 9 15 21.1 7.6
-7 -2 15 26.3 13.6
-9 7 15 12.2 14.1
9 -7 15 14.4 11.9
1 -9 -15 -1 9.6
9 -8 -15 14.8 11.1
8 1 -15 13.2 14.6
1 -9 -15 4.6 10
-9 8 -15 -19.1 22
-1 9 -15 -0.1 13.9
9 -8 -15 -25 16.2
-9 8 -15 5 15
-8 -1 15 9.6 14.6
-8 -1 15 -16.3 13.6
9 -8 15 -2.5 18.4
1 -9 15 -2.6 17.9
1 -9 15 -6.9 10.7
-1 9 15 11.9 5.4
-9 8 15 -1.8 11.1
0 -9 -15 73.69 16.9
-9 9 -15 -6.7 25.3
9 0 -15 63.19 18.2
0 -9 -15 78.49 13.1
9 -9 -15 92.29 19.5
-9 9 -15 85.49 21.2
0 9 -15 65.39 18.4
9 -9 -15 47.2 22.8
-9 0 15 70.09 16.8
-9 9 15 101.09 18
0 -9 15 99.59 21.7
0 -9 15 92.19 20.1
9 -9 15 38.5 16.1
-9 0 15 90.09 16.8
10 -1 -15 91.69 20.6
-1 -9 -15 106.19 18.3
-10 1 -15 109.39 17.9
-9 10 -15 60.69 20.5
9 -10 -15 67.89 17.9
9 -10 -15 92.99 28.2
-10 1 -15 125.09 14.2
-1 -9 -15 136.59 17.9
1 9 -15 89.69 20.1
-9 10 15 117.39 19.7
-10 1 15 105.49 18.9
-10 1 15 105.39 21.1
-1 -9 15 120.99 23.5
-1 -9 15 132.69 21.4
9 -10 15 137.59 25.4
8 -10 -15 338.57 41.9
-10 2 -15 413.96 27.8
-2 -8 -15 396.26 25.4
8 -10 -15 299.77 45.5
-2 -8 -15 401.46 25.7
10 -2 -15 403.46 38.1
-8 10 -15 423.46 45.8
-10 2 -15 359.36 36.2
2 8 -15 441.56 39.9
-8 10 15 342.07 32.6
-2 -8 15 433.26 43
-2 -8 15 456.95 39.2
-10 2 15 358.26 34.5
-10 2 15 322.17 35.6
8 -10 15 482.05 45.4
7 -10 -15 161.48 27.6
-7 10 -15 177.88 29.9
10 -3 -15 132.09 22.5
3 7 -15 166.08 29.4
7 -10 -15 166.78 29
-10 3 -15 144.49 21.7
-7 10 -15 260.57 34.2
7 -10 15 150.38 26.5
-10 3 15 136.59 20.8
-7 10 15 145.49 21.5
-3 -7 15 195.68 33.1
-10 3 15 147.69 21.7
-3 -7 15 168.58 27.6
-6 10 -15 6.1 14.7
4 6 -15 -2.5 13.9
6 -10 -15 4.2 12.3
6 -10 -15 -2 18.2
-10 4 -15 7.1 13.1
10 -4 -15 -7.2 15
-10 4 -15 12.2 12
-6 10 -15 5.7 17.4
-4 -6 15 24.6 16.5
-4 -6 15 6.2 14.8
6 -10 15 4.6 15.8
-6 10 15 -4 8.7
-10 4 15 -1.9 13
-10 4 15 13.7 14.7
10 -4 15 14.9 6.4
5 -10 -15 125.79 23.9
-5 10 -15 116.39 23.3
-5 10 -15 126.39 23.9
-10 5 -15 34.1 17.7
10 -5 -15 74.79 18.6
5 5 -15 53.49 17.8
5 -10 -15 85.89 17.1
-10 5 -15 145.39 25
-5 -5 15 83.49 17
-10 5 15 69.59 17.4
-10 5 15 86.19 17.5
5 -10 15 58.89 19
10 -5 15 96.39 17.1
-5 -5 15 95.59 20.6
-5 10 15 77.79 13.5
6 4 -15 45.9 18.1
10 -6 -15 32.8 14.2
4 -10 -15 69.89 16.8
-10 6 -15 19.2 20.2
4 -10 -15 71.59 16.1
10 -6 -15 69.29 19.6
-4 10 -15 72.09 20.9
-4 10 -15 54.29 17.9
-10 6 -15 70.09 18.5
4 -10 15 64.79 21
10 -6 15 52.29 13.2
-4 10 15 48.4 11.3
-6 -4 15 76.19 17.1
-10 6 15 55.49 15.4
-10 6 15 58.19 16.5
-6 -4 15 61.69 17
4 -10 15 79.19 18.2
-10 7 -15 -10.6 21.4
10 -7 -15 66.09 19.8
3 -10 -15 55.89 15.2
-10 7 -15 88.89 21.1
10 -7 -15 62.79 16
7 3 -15 106.69 20.6
-3 10 -15 76.59 20.5
3 -10 -15 69.29 15.8
-7 -3 15 95.89 18
10 -7 15 90.99 17.7
3 -10 15 97.59 21.5
-10 7 15 67.49 15.5
-3 10 15 80.39 12.6
-10 7 15 96.09 31.6
-7 -3 15 93.89 18.6
3 -10 15 115.19 20.6
2 -10 -15 207.88 25.3
10 -8 -15 191.38 32.4
-10 8 -15 229.48 35.2
8 2 -15 191.78 29.8
-2 10 -15 231.38 33.5
2 -10 -15 191.68 25.1
10 -8 -15 169.08 28.5
2 -10 15 165.78 29.9
10 -8 15 179.68 30
-10 8 15 172.68 27.9
2 -10 15 213.48 36.7
-8 -2 15 170.08 24.5
-8 -2 15 166.48 26.1
1 -10 -15 261.27 26.5
1 -10 -15 278.87 26.4
-1 10 -15 221.58 34.1
10 -9 -15 238.08 40
9 1 -15 224.78 33.1
-10 9 -15 244.18 38.9
10 -9 15 289.97 43.2
-10 9 15 281.77 32.1
-9 -1 15 247.28 33.6
1 -10 15 303.07 34.4
-9 -1 15 228.38 32.8
1 -10 15 317.77 40
-11 4 -15 0.1 11.1
4 7 -15 5.2 15.2
7 -11 -15 40 27.7
11 -4 -15 17.9 17.8
-11 4 15 21.7 16.5
-7 11 15 27.2 18.9
-11 4 15 7.1 14
-4 -7 15 2.1 17.3
6 -11 -15 290.57 33.3
-6 11 -15 353.36 41.3
5 6 -15 317.07 37
-11 5 -15 305.47 32.6
11 -5 -15 217.08 36.4
6 -11 -15 200.28 35.8
-6 11 -15 325.87 39.8
-6 11 15 248.78 27
6 -11 15 314.77 40.4
11 -5 15 270.07 23.1
-5 -6 15 281.77 37.6
-11 5 15 212.98 32.3
-5 -6 15 313.07 35.6
-11 5 15 195.88 33.1
11 -6 -15 260.27 37.3
5 -11 -15 271.17 33
-11 6 -15 289.27 34.6
-5 11 -15 375.66 40.7
5 -11 -15 294.07 32.6
6 5 -15 243.28 35.6
5 -11 15 301.67 40.2
-5 11 15 192.28 23.9
-6 -5 15 248.48 35.4
-6 -5 15 215.58 30.9
11 -6 15 208.48 24.8
-11 6 15 154.48 22.9
-11 6 15 213.18 30.1
-11 7 -15 9.3 18.3
7 4 -15 21.3 16.3
11 -7 -15 48 21.1
-4 11 -15 78.19 21.6
4 -11 -15 51.79 16
-11 7 15 43 27.1
-7 -4 15 65.49 20.5
0 0 -16 7.2 6.7
0 0 -16 4.1 5.6
0 0 16 7.5 6.8
0 0 16 0.5 5.6
1 -1 -16 97.39 13.4
1 0 -16 75.79 13.4
1 -1 -16 91.79 13.6
-1 0 -16 84.99 12
-1 1 -16 58.39 10.5
0 1 -16 85.79 14
0 -1 -16 91.99 12.8
0 1 -16 97.39 13.9
-1 1 -16 92.49 12.8
0 -1 -16 72.79 11.9
-1 0 -16 69.19 11.9
1 0 -16 88.59 14.1
-1 1 16 43.7 8.8
1 0 16 41.3 8.2
-1 0 16 39.5 8.7
0 1 16 36.6 8
1 -1 16 45.7 9.6
0 -1 16 70.79 11.5
-1 1 16 29.6 7.5
-1 0 16 41.9 8.6
1 -1 16 58.49 11.3
0 1 16 42.5 7.2
1 0 16 35.2 7.2
0 -1 16 45.3 8.9
-1 -1 -16 136.29 13.5
-1 2 -16 146.69 16.5
-1 -1 -16 130.39 13.7
2 -1 -16 113.09 16.2
1 1 -16 135.49 16.1
1 1 -16 118.99 16.5
1 -2 -16 139.59 14.9
-2 1 -16 131.09 15
-2 1 -16 117.99 14.4
1 -2 -16 132.39 15.2
2 -1 -16 125.69 15.5
-1 2 -16 127.99 16.6
-1 2 16 134.89 14.8
-1 2 16 120.99 12.9
-1 -1 16 140.49 16.5
2 -1 16 116.39 14.6
-1 -1 16 133.49 16
-2 1 16 115.39 14.6
1 -2 16 139.19 14.2
1 1 16 116.49 12.9
1 -2 16 137.19 17
1 1 16 109.29 11.3
2 -1 16 112.79 13.3
-2 1 16 128.69 15.9
2 0 -16 335.97 24.5
0 -2 -16 327.57 22.1
0 2 -16 307.67 24.5
2 -2 -16 317.97 23.6
-2 2 -16 301.97 23.9
-2 0 -16 305.07 21.5
2 -2 -16 327.27 24.3
-2 0 -16 333.27 22.5
0 2 -16 308.47 24.9
-2 2 -16 304.37 24.2
2 0 -16 328.47 24.7
0 -2 -16 317.77 22.3
-2 0 16 264.37 21.8
0 -2 16 292.07 23.1
2 -2 16 233.28 21.7
-2 2 16 255.87 21.1
0 -2 16 257.37 21.7
2 0 16 264.47 17.6
0 2 16 268.37 19.3
-2 0 16 268.07 21.3
0 2 16 278.17 17.7
2 -2 16 255.07 20.9
2 0 16 243.28 19
-2 3 -16 944.61 58.99
1 2 -16 1068.09 59.59
3 -1 -16 1091.49 58.49
1 2 -16 981.2 58.29
3 -1 -16 1011.4 58.39
2 -3 -16 1058.29 57.79
2 -3 -16 1111.79 57.99
-1 -2 -16 1055.49 55.49
-3 1 -16 1005.2 57.89
-1 -2 -16 1093.39 55.49
-2 3 -16 1046.8 59.99
-3 1 -16 974.7 56.19
-2 3 16 983 52.89
-1 -2 16 984.9 54.29
3 -1 16 890.21 49.6
3 -1 16 947.91 50.49
-3 1 16 949.6 53.59
1 2 16 792.52 49.2
1 2 16 976.8 48.2
-1 -2 16 867.91 53.29
2 -3 16 1007.4 55.09
-3 1 16 932.31 52.49
2 -3 16 876.71 52.89
-2 3 16 973.5 50.79
-3 2 -16 1032.6 62.19
1 -3 -16 1144.69 61.59
-1 3 -16 1096.69 64.09
2 1 -16 1128.09 63.59
-3 2 -16 1132.39 64.09
1 -3 -16 1146.49 61.59
-2 -1 -16 1174.38 60.39
-1 3 -16 1122.89 64.09
3 -2 -16 1202.68 63.29
2 1 -16 1168.78 63.29
-2 -1 -16 1146.19 59.79
3 -2 -16 1127.89 63.09
-2 -1 16 1044.5 58.09
-2 -1 16 1034.6 58.29
-1 3 16 1053.79 55.99
1 -3 16 959.6 58.39
2 1 16 991.2 53.69
3 -2 16 999.5 56.89
-3 2 16 1083.89 58.69
-1 3 16 1002.7 54.29
1 -3 16 1085.19 59.89
-3 2 16 1021.6 56.79
2 1 16 1051.99 52.59
3 -2 16 1024.6 56.09
0 -3 -16 933.21 48.7
3 0 -16 901.01 51.39
-3 0 -16 825.82 47.4
3 -3 -16 961.5 51.49
3 0 -16 844.62 51.29
0 -3 -16 891.91 48.6
-3 3 -16 870.71 52.39
3 -3 -16 854.91 50.99
-3 0 -16 901.01 49.3
0 3 -16 870.61 52.59
0 3 -16 919.61 52.39
-3 3 -16 769.02 51.19
0 -3 16 719.33 45.8
3 -3 16 667.93 43.6
0 3 16 718.83 40.2
0 3 16 764.92 39
3 -3 16 627.14 47.3
3 0 16 750.32 39
-3 0 16 729.73 44.3
0 -3 16 732.63 44.9
3 0 16 742.43 38.3
-3 3 16 719.83 43.9
-3 3 16 785.02 42
-3 0 16 703.33 43.5
-1 -3 -16 562.64 31.4
-3 4 -16 553.64 37
4 -1 -16 526.35 35
1 3 -16 554.94 36.4
-1 -3 -16 552.54 31.1
-4 1 -16 463.15 32.9
-4 1 -16 480.15 31.8
4 -1 -16 532.65 35.9
-3 4 -16 552.74 37.7
3 -4 -16 512.85 34.9
1 3 -16 520.55 36.8
4 -1 16 563.54 31.4
-1 -3 16 565.34 38.3
3 -4 16 571.34 38.1
-1 -3 16 533.65 38.2
4 -1 16 582.34 31.6
-4 1 16 594.54 37.5
1 3 16 592.24 30.2
-3 4 16 630.54 37.6
-3 4 16 552.84 34.2
3 -4 16 565.34 38.3
-4 1 16 568.54 36.6
1 3 16 516.45 31
-2 4 -16 1460.65 80.09
4 -2 -16 1429.76 77.99
2 -4 -16 1431.76 76.89
-4 2 -16 1308.17 76.39
-2 -2 -16 1448.26 73.49
4 -2 -16 1461.75 77.69
-2 -2 -16 1476.95 73.79
2 2 -16 1465.35 78.29
2 -4 -16 1404.96 76.49
-2 4 -16 1428.86 79.79
2 2 -16 1448.06 78.69
-4 2 -16 1356.06 77.39
-2 -2 16 1721.73 89.79
-4 2 16 1749.92 89.69
2 -4 16 1541.65 90.39
-2 4 16 1628.64 85.39
4 -2 16 1659.33 85.89
2 2 16 1623.04 82.19
4 -2 16 1614.14 85.79
2 2 16 1708.03 81.99
2 -4 16 1770.22 90.89
-2 4 16 1666.13 87.69
-4 2 16 1635.14 87.99
-2 -2 16 1595.94 89.39
-1 4 -16 1004.2 60.29
-1 4 -16 1066.39 60.69
-3 -1 -16 974.9 58.59
1 -4 -16 1086.99 56.39
1 -4 -16 1075.19 56.79
3 1 -16 1015.1 58.39
4 -3 -16 1002.7 58.59
4 -3 -16 1033.2 58.39
-4 3 -16 925.51 58.59
-4 3 -16 1001 58.99
-3 -1 -16 1018.2 53.59
3 1 -16 1028.8 58.99
4 -3 16 1000.9 57.69
-4 3 16 1069.89 57.69
-3 -1 16 989.4 58.49
4 -3 16 991.8 57.29
-1 4 16 1049.09 54.29
-4 3 16 1058.09 59.69
1 -4 16 1076.79 60.69
-3 -1 16 1050.99 59.09
-1 4 16 1019.9 55.69
1 -4 16 986 60.49
-4 0 -16 511.85 39.5
0 4 -16 551.04 39.6
0 -4 -16 620.14 34.4
4 0 -16 591.64 43.5
4 -4 -16 572.34 38
0 -4 -16 566.84 34.4
-4 4 -16 508.25 38.9
-4 4 -16 607.14 40.5
4 0 -16 563.54 38.3
4 -4 -16 632.24 38.2
0 4 -16 600.94 39.4
-4 0 -16 541.45 32.5
0 4 16 559.84 30.6
-4 0 16 565.94 37.2
0 -4 16 535.95 38.6
4 -4 16 589.64 37.2
4 -4 16 499.25 39.6
-4 4 16 549.95 34.8
0 4 16 513.55 31.3
-4 4 16 591.84 37.9
4 0 16 577.44 28.3
0 -4 16 589.84 38.7
-4 0 16 523.05 36.6
5 -1 -16 221.18 21.7
-1 -4 -16 177.28 16
1 4 -16 187.18 23.8
5 -1 -16 176.28 22.6
-4 5 -16 211.78 23.7
4 -5 -16 187.28 21.2
-5 1 -16 202.48 17.8
1 4 -16 198.98 23.4
-4 5 -16 192.98 25.6
-5 1 -16 177.88 17.2
4 -5 -16 157.68 21.6
-1 -4 -16 197.78 16
4 -5 16 172.08 23.1
4 -5 16 216.08 24
-5 1 16 239.88 23.4
-1 -4 16 212.78 24.6
5 -1 16 210.58 13.6
5 -1 16 238.98 13.8
-1 -4 16 203.38 24.5
-5 1 16 218.58 22.8
-5 2 -16 508.65 35.1
2 3 -16 572.14 39.2
3 -5 -16 581.44 36.8
5 -2 -16 574.14 37.2
-3 5 -16 601.54 41
2 3 -16 563.04 38
3 -5 -16 497.85 36.1
-3 5 -16 550.84 39.1
-2 -3 -16 568.04 31.5
5 -2 -16 555.74 37.7
-2 -3 -16 583.54 31.5
-5 2 -16 506.25 35
5 -2 16 552.74 31.6
-2 -3 16 548.95 37.3
-3 5 16 523.95 33
3 -5 16 478.95 38.3
-5 2 16 577.04 37.6
-2 -3 16 519.35 37.6
-5 2 16 569.14 36.4
5 -2 16 524.45 30.7
-3 5 16 576.54 36.9
3 -5 16 596.34 38.9
-2 5 -16 1481.45 75.69
-5 3 -16 1201.78 71.79
-3 -2 -16 1270.97 66.49
3 2 -16 1250.17 72.59
-2 5 -16 1379.56 74.39
5 -3 -16 1281.87 71.39
5 -3 -16 1227.38 71.79
3 2 -16 1265.57 71.99
-5 3 -16 1172.88 71.19
2 -5 -16 1305.47 69.99
-3 -2 -16 1313.67 65.69
2 -5 -16 1280.17 70.49
2 -5 16 1464.65 75.79
-5 3 16 1249.57 71.79
-3 -2 16 1251.77 73.39
5 -3 16 1323.47 71.09
-2 5 16 1324.87 68.69
-3 -2 16 1370.46 73.69
2 -5 16 1174.18 75.19
-5 3 16 1355.36 74.39
5 -4 -16 710.93 46.9
-1 5 -16 818.82 50.09
4 1 -16 763.72 46.8
1 -5 -16 784.12 44.6
-1 5 -16 788.72 49.6
1 -5 -16 753.22 43.8
-4 -1 -16 731.03 40.1
4 1 -16 749.23 47.5
-4 -1 -16 733.83 41.2
5 -4 -16 739.43 46.6
-5 4 -16 667.43 46.6
-5 4 -16 823.02 49.3
5 -4 16 642.24 40.2
-1 5 16 688.03 38.1
5 -4 16 630.84 42
-5 4 16 690.63 43.8
-1 5 16 669.03 36.7
1 -5 16 626.84 45
-5 4 16 638.04 40.8
-4 -1 16 634.14 42.5
1 -5 16 715.43 44.7
-4 -1 16 663.43 42.5
-5 5 -16 644.34 45.5
0 5 -16 777.62 47.7
5 -5 -16 702.03 45
-5 5 -16 687.33 47.4
5 0 -16 694.43 44.1
5 -5 -16 706.93 44.6
0 5 -16 701.03 47.2
-5 0 -16 681.83 38.2
-5 0 -16 719.13 38.8
5 0 -16 681.73 45.4
0 -5 -16 671.73 40.5
0 -5 -16 633.14 42.7
-5 5 16 705.33 42
0 5 16 667.43 36.4
0 -5 16 693.23 47
5 -5 16 624.54 45.1
-5 0 16 692.53 43.7
-5 5 16 682.73 50.69
5 -5 16 687.43 43.4
0 -5 16 748.33 46
-5 0 16 697.73 44
0 5 16 657.33 36.7
5 -6 -16 1753.52 97.59
1 5 -16 1900.71 100.19
-6 1 -16 1620.24 92.59
5 -6 -16 1688.23 97.59
-5 6 -16 1965.4 102.49
1 5 -16 1887.71 100.49
-1 -5 -16 1785.92 92.29
-6 1 -16 1816.12 92.69
-5 6 -16 1948.21 101.29
6 -1 -16 1757.92 96.69
6 -1 -16 1687.53 97.69
-1 -5 -16 1780.12 91.99
-6 1 16 1562.44 86.89
-1 -5 16 1598.74 90.29
-1 -5 16 1704.53 89.69
5 -6 16 1577.64 90.89
-5 6 16 1573.24 88.69
-5 6 16 1535.95 84.49
5 -6 16 1584.24 88.39
-6 1 16 1575.74 87.79
-4 6 -16 836.12 50.89
2 4 -16 687.93 47.2
-6 2 -16 591.54 41.8
-2 -4 -16 710.63 38.2
4 -6 -16 702.03 45.3
6 -2 -16 735.93 44.9
2 4 -16 744.43 47.1
-4 6 -16 798.92 49
4 -6 -16 649.83 44.5
-2 -4 -16 618.24 41.5
-6 2 -16 739.23 42.4
6 -2 -16 695.23 45.8
-2 -4 16 592.24 42.7
4 -6 16 529.95 50.59
-4 6 16 595.64 40.9
-6 2 16 603.94 40.2
-6 2 16 649.43 41.5
4 -6 16 615.24 44.4
-2 -4 16 645.64 42.5
6 -2 16 568.14 33
6 -2 16 622.24 32.6
3 3 -16 490.85 37
-3 -3 -16 524.25 28.7
3 -6 -16 484.05 35
6 -3 -16 486.55 37
6 -3 -16 501.15 36
-3 -3 -16 523.85 28.2
-3 6 -16 616.84 39.9
-6 3 -16 517.75 35
3 -6 -16 488.95 44.7
3 3 -16 502.75 38.2
-6 3 -16 485.15 35.8
-3 6 -16 569.64 41.1
3 -6 16 532.75 41.5
-3 -3 16 550.54 38.5
6 -3 16 550.04 33.8
-3 6 16 536.85 33.1
-3 -3 16 534.65 39.4
-6 3 16 595.54 39.4
3 -6 16 588.64 40
-6 3 16 471.05 47.1
-6 4 -16 328.07 28.4
-4 -2 -16 342.87 19.5
-2 6 -16 358.06 32.5
-4 -2 -16 341.57 19.2
2 -6 -16 323.67 26.3
4 2 -16 354.76 30.1
4 2 -16 322.17 28.5
6 -4 -16 296.27 27.6
-6 4 -16 362.66 30.6
6 -4 -16 317.77 29.3
-2 6 -16 297.57 35.4
2 -6 -16 351.26 26.6
-6 4 16 302.87 26.5
6 -4 16 308.57 25.7
-4 -2 16 347.67 28.6
2 -6 16 293.77 31.2
2 -6 16 338.97 30
-6 4 16 352.56 29.4
-4 -2 16 262.97 27.3
-2 6 16 322.57 21.8
5 1 -16 84.69 14.1
-6 5 -16 95.69 16.1
-5 -1 -16 78.29 11.8
-1 6 -16 110.79 18.6
1 -6 -16 92.99 13.3
6 -5 -16 82.19 15.8
5 1 -16 78.69 14.8
1 -6 -16 128.39 16.8
-6 5 -16 81.99 14.4
6 -5 -16 114.89 19.5
-1 6 -16 93.09 16
-1 6 16 133.59 13.1
-5 -1 16 119.59 20.9
1 -6 16 156.38 25
6 -5 16 111.69 17.2
-6 5 16 125.89 19.7
-5 -1 16 134.19 20.9
-6 5 16 126.89 19.3
6 -5 16 122.69 17.5
1 -6 16 170.98 23.1
0 -6 -16 1064.69 58.19
6 0 -16 1034.2 61.89
6 0 -16 1062.59 63.59
-6 0 -16 982.7 54.79
0 -6 -16 1014.6 58.09
6 -6 -16 1006.3 63.59
-6 6 -16 1164.18 68.89
0 6 -16 1148.29 66.29
0 6 -16 1094.49 65.49
6 -6 -16 1016.7 62.69
-6 6 -16 1065.69 65.49
-6 6 16 851.71 51.89
0 6 16 840.42 44.9
0 -6 16 944.81 56.49
-6 6 16 896.41 55.99
-6 0 16 894.91 53.99
0 -6 16 929.61 58.69
-6 0 16 814.22 53.39
1 6 -16 1011.1 61.19
7 -1 -16 925.41 58.49
7 -1 -16 922.01 56.19
-7 1 -16 880.31 51.49
-6 7 -16 954.3 62.99
1 6 -16 1044 61.29
-1 -6 -16 850.41 50.99
-6 7 -16 976.2 61.79
6 -7 -16 907.01 60.09
6 -7 -16 920.61 58.09
-6 7 16 868.51 53.79
6 -7 16 1012.3 61.99
-1 -6 16 994.1 59.09
-1 -6 16 960.4 61.29
-7 1 16 824.32 56.09
-7 1 16 935.41 57.39
2 5 -16 1495.55 85.79
-7 2 -16 1265.07 79.69
-5 7 -16 1610.34 87.99
7 -2 -16 1472.95 82.39
7 -2 -16 1438.66 83.99
-2 -5 -16 1526.25 75.99
5 -7 -16 1434.26 83.99
5 -7 -16 1478.55 83.79
-5 7 -16 1662.03 89.39
2 5 -16 1539.45 86.29
-2 -5 16 1623.34 86.39
-2 -5 16 1516.25 86.39
5 -7 16 1441.16 84.89
-7 2 16 1348.86 81.99
5 -7 16 1517.35 88.29
-7 2 16 1490.95 83.59
-7 3 -16 447.26 31.8
3 4 -16 429.66 36
-4 7 -16 534.45 38.8
7 -3 -16 426.56 33.7
3 4 -16 440.46 37.2
-4 7 -16 539.25 41.2
4 -7 -16 472.55 35.4
7 -3 -16 394.06 35.2
4 -7 -16 435.16 33.7
-7 3 -16 444.46 33.7
4 -7 16 555.74 42.5
-3 -4 16 492.75 38.7
-3 -4 16 480.95 38
7 -3 16 476.85 30.1
-4 7 16 492.85 32.1
-7 3 16 461.55 35.8
-7 3 16 530.95 38.2
4 -7 16 508.65 39.2
4 3 -16 355.56 30.3
7 -4 -16 325.27 29.3
3 -7 -16 348.97 28.2
3 -7 -16 340.87 29.3
-7 4 -16 344.27 28.6
-3 7 -16 356.36 33.1
-7 4 -16 284.17 29.4
7 -4 -16 344.27 30.9
-3 7 -16 381.86 34.9
-7 4 16 334.47 30
-3 7 16 324.67 23.1
-4 -3 16 319.97 29.4
-4 -3 16 291.77 29.8
-7 4 16 277.07 27.9
3 -7 16 362.86 30.9
3 -7 16 279.47 34
7 -4 16 273.37 24.3
2 -7 -16 13.8 9.2
-2 7 -16 39 16.1
2 -7 -16 19.7 11.5
7 -5 -16 20.7 11.8
7 -5 -16 15.7 12.7
-7 5 -16 21.7 11.3
5 2 -16 17 10.7
-2 7 -16 15.9 13.2
-7 5 -16 18.8 13
5 2 -16 11.8 16.4
2 -7 16 28.5 16
2 -7 16 31.7 13.2
-5 -2 16 22.7 11.3
-2 7 16 30.1 7.6
-5 -2 16 21.3 12.4
-7 5 16 25.7 11.6
7 -5 16 28 10.8
-7 5 16 36.1 13.5
-1 7 -16 453.85 37.4
7 -6 -16 389.46 35.1
7 -6 -16 355.56 33.8
-7 6 -16 353.76 33.3
6 1 -16 359.66 33.5
-7 6 -16 391.06 36.5
1 -7 -16 376.26 28.4
-1 7 -16 390.36 35
-1 7 16 368.26 24
1 -7 16 447.56 39.1
-7 6 16 411.56 31.8
-6 -1 16 375.26 33
-7 6 16 359.16 33.9
1 -7 16 443.16 34.8
7 -6 16 362.26 33.1
-6 -1 16 391.36 32.9
0 7 -16 731.53 49.5
-7 0 -16 595.24 34.1
-7 7 -16 649.74 47.9
7 0 -16 626.94 43.2
-7 7 -16 588.14 49.4
0 -7 -16 621.04 39
0 7 -16 620.94 53.69
7 0 -16 685.13 46.7
7 -7 -16 630.84 45.1
-7 0 16 622.14 44.9
-7 7 16 615.34 42.8
0 -7 16 712.33 47.4
-7 0 16 645.94 44.6
0 -7 16 681.23 50.59
7 -8 -16 54.69 15.2
1 7 -16 63.69 19.1
-8 1 -16 70.59 10.5
8 -1 -16 50.39 16.2
1 7 -16 79.29 18.3
-1 -7 -16 67.39 10.3
7 -8 -16 67.99 19.9
-1 -7 -16 58.69 10.1
-7 8 -16 31.9 15.8
-8 1 -16 30.5 10.3
-7 8 -16 65.39 19.9
8 -1 -16 35.9 18.5
-1 -7 16 70.79 16.9
-8 1 16 42.2 14.5
-1 -7 16 74.49 20.8
-7 8 16 71.29 13.9
-8 1 16 78.79 16.3
7 -8 16 71.79 18.5
8 -2 -16 426.56 37.6
-2 -6 -16 449.76 26.8
-6 8 -16 521.85 44
8 -2 -16 435.16 34.9
-2 -6 -16 472.45 27.3
6 -8 -16 421.06 36.7
6 -8 -16 446.86 39.3
-8 2 -16 396.36 31.3
2 6 -16 490.95 40.2
-6 8 -16 521.55 42.7
2 6 -16 547.25 40.9
-2 -6 16 393.16 38
-2 -6 16 428.96 36.1
-8 2 16 384.06 32.8
-6 8 16 371.96 29
-8 2 16 352.56 32.3
6 -8 16 398.86 38.5
-5 8 -16 319.37 41.6
-8 3 -16 253.17 26.1
-5 8 -16 316.67 34.9
5 -8 -16 252.67 30.4
3 5 -16 282.97 30.6
3 5 -16 249.48 32
5 -8 -16 267.57 28
8 -3 -16 246.28 30.1
8 -3 -16 281.67 27.5
5 -8 16 278.97 30.6
-3 -5 16 254.47 31.1
-5 8 16 240.78 22.3
-3 -5 16 271.47 30
-8 3 16 255.77 28
5 -8 16 284.47 33.6
8 -3 16 238.08 17.3
-8 3 16 256.87 28.5
8 -4 -16 30.6 12.2
8 -4 -16 56.29 16.3
4 4 -16 25.3 11.8
4 -8 -16 48.3 15.4
4 4 -16 25.2 14.4
-4 8 -16 55.19 18.6
4 -8 -16 24.7 11.4
-8 4 -16 40.7 12.9
-4 8 -16 36.6 14.6
-4 8 16 50.99 10.2
-8 4 16 44.3 13.9
4 -8 16 40.6 14.1
4 -8 16 69.59 18.9
-4 -4 16 36.1 14.1
-8 4 16 33.5 13.6
8 -4 16 58.69 10.6
-4 -4 16 70.49 18
-3 8 -16 69.59 16.5
-8 5 -16 19.3 13.5
3 -8 -16 59.29 15.9
5 3 -16 43.9 15.4
-3 8 -16 29.5 15.5
5 3 -16 48.7 13.4
8 -5 -16 28.3 15.8
3 -8 -16 34.1 11.7
8 -5 -16 62.59 15.1
8 -5 16 37.8 11.3
3 -8 16 36.5 17.1
3 -8 16 26.1 16.5
-8 5 16 28.8 15.8
-3 8 16 32.2 9
-8 5 16 32.4 12.6
-5 -3 16 27.1 12.2
-5 -3 16 24.8 13.4
-8 6 -16 23.7 14.5
-2 8 -16 18.7 13.6
-2 8 -16 26.3 16
6 2 -16 9.7 13.7
8 -6 -16 12.4 13.8
2 -8 -16 21.7 16.7
6 2 -16 30.7 13.7
2 -8 -16 19.5 9.9
8 -6 -16 20.5 12.3
-8 6 16 17.3 12.4
-8 6 16 36.4 14.6
-2 8 16 29.8 7.7
8 -6 16 20.4 11.1
2 -8 16 29.4 12.1
2 -8 16 62.69 17.2
-6 -2 16 22.2 13
-6 -2 16 27 14.5
-8 7 -16 344.47 37.2
1 -8 -16 336.67 27.7
1 -8 -16 318.07 27.1
8 -7 -16 296.97 32.2
-1 8 -16 355.36 34.5
7 1 -16 316.07 33.5
8 -7 -16 279.97 36.1
-1 8 -16 387.46 36.8
-7 -1 16 265.47 41.7
-1 8 16 356.26 21.9
1 -8 16 409.96 39.8
1 -8 16 391.36 34.3
8 -7 16 297.67 33
-7 -1 16 344.37 31.8
0 -8 -16 396.56 28.1
0 8 -16 435.86 39.5
-8 0 -16 330.97 20.2
8 -8 -16 365.76 39.1
-8 8 -16 397.66 41.5
8 0 -16 354.16 35.2
8 -8 -16 311.37 33.6
0 -8 -16 388.96 27.7
-8 0 16 357.16 35.8
0 -8 16 439.76 37.5
0 -8 16 499.55 43.6
-8 8 16 376.86 33.3
-8 0 16 390.26 33.9
-1 -8 -16 247.98 21.5
8 -9 -16 244.18 35.9
-8 9 -16 304.07 39.1
-9 1 -16 212.88 25.2
9 -1 -16 226.88 34.2
8 -9 -16 255.37 31.2
-9 1 -16 255.67 20.2
-1 -8 -16 294.67 21.7
1 8 -16 283.77 34.1
-1 -8 16 372.76 40.4
8 -9 16 292.27 36.5
-1 -8 16 347.27 33.6
-9 1 16 261.47 29.4
-9 1 16 259.57 31.3
-8 9 16 255.97 28.3
7 -9 -16 5 17.9
-7 9 -16 24.8 16.5
-9 2 -16 32.3 11.5
-9 2 -16 60.69 12
-2 -7 -16 62.89 8.5
7 -9 -16 41.1 15.2
2 7 -16 34.7 19.6
9 -2 -16 30.9 16.8
-7 9 -16 -10 24.7
-9 2 16 29.2 14.1
-2 -7 16 54.69 19.3
-2 -7 16 27.9 13.6
7 -9 16 21.3 14.8
-7 9 16 20.3 10.4
-9 2 16 68.49 17.3
-6 9 -16 387.76 39.7
-6 9 -16 358.66 37
9 -3 -16 235.38 38.9
3 6 -16 291.97 34.3
6 -9 -16 344.47 36
9 -3 -16 283.07 33
-9 3 -16 284.77 27.8
6 -9 -16 323.67 32.1
-6 9 16 237.88 32.7
-3 -6 16 282.87 35.3
-9 3 16 288.97 30.7
-3 -6 16 334.87 33.3
6 -9 16 293.37 36.6
-9 3 16 261.57 29.9
4 5 -16 215.88 32.1
-5 9 -16 324.07 37.2
-9 4 -16 283.67 28.1
5 -9 -16 237.98 30.1
-5 9 -16 338.27 35.7
5 -9 -16 223.98 32
9 -4 -16 264.37 30.6
9 -4 -16 224.58 27.7
-4 -5 16 241.98 33.4
-9 4 16 316.17 30.6
-9 4 16 263.17 29.6
-5 9 16 225.28 22.9
5 -9 16 257.57 35.6
9 -4 16 242.58 20.7
-4 -5 16 284.87 31.6
-9 5 -16 208.78 27.3
4 -9 -16 205.28 25.8
9 -5 -16 146.79 31.3
5 4 -16 199.98 30.4
-4 9 -16 194.68 30.9
9 -5 -16 194.48 28.8
4 -9 -16 199.98 29.5
-4 9 -16 251.47 34.3
4 -9 16 225.58 29.9
4 -9 16 185.58 33.2
-9 5 16 235.88 27.6
-4 9 16 196.18 20.9
-5 -4 16 214.68 27.3
9 -5 16 190.18 22.4
-5 -4 16 187.88 29.8
-9 6 -16 29.3 14.9
3 -9 -16 34.4 18.9
-3 9 -16 42 17.4
9 -6 -16 59.69 18.2
6 3 -16 56.29 17.3
9 -6 -16 51.89 14.8
-9 6 -16 19.9 20
-3 9 -16 71.09 25.6
3 -9 -16 40.5 13
9 -6 16 50.99 13.4
3 -9 16 72.59 21.7
-6 -3 16 69.99 19.4
3 -9 16 82.29 18.7
-3 9 16 84.99 11.9
-9 6 16 57.59 16
-9 6 16 36 14.2
-6 -3 16 76.19 15.4
7 2 -16 80.79 18.1
-2 9 -16 81.69 20
9 -7 -16 63.19 17.4
2 -9 -16 87.69 15.4
-2 9 -16 55.69 17.1
-9 7 -16 3.8 22.7
-9 7 -16 56.09 17.7
9 -7 -16 97.59 21.7
2 -9 -16 82.29 14.8
-2 9 16 71.99 10.3
-7 -2 16 53.89 15.2
-9 7 16 49.2 15.7
2 -9 16 83.89 18.8
9 -7 16 56.19 15.3
2 -9 16 33.1 16.6
-7 -2 16 75.59 17.5
8 1 -16 322.07 35.5
1 -9 -16 352.66 29.4
9 -8 -16 339.97 34.8
-1 9 -16 374.36 38.7
9 -8 -16 349.47 39
-9 8 -16 372.66 40.4
1 -9 -16 380.16 30.4
-8 -1 16 310.97 35.2
-8 -1 16 331.77 32.6
1 -9 16 413.96 46.6
1 -9 16 357.36 35.7
-9 8 16 291.77 32.3
9 -8 16 377.66 36.2
-9 9 -16 453.55 46.6
0 -9 -16 451.15 31.9
0 -9 -16 448.16 32.1
9 0 -16 402.76 40.8
0 9 -16 505.15 43.3
9 -9 -16 418.56 40.2
9 -9 -16 450.85 45.2
0 -9 16 541.55 43.2
9 -9 16 609.34 46
-9 0 16 441.56 41.2
-9 0 16 430.96 38.8
-9 9 16 470.85 39
0 -9 16 559.14 49
-9 10 -16 55.69 35
9 -10 -16 125.39 29.5
10 -1 -16 73.19 19.4
-2 -8 -16 141.49 15.4
-10 2 -16 105.39 14.8
-10 2 -16 116.39 16.8
-2 -8 -16 118.89 13.6
2 8 -16 102.89 20.6
-8 10 -16 77.49 20.7
8 -10 -16 115.89 28.5
10 -2 -16 102.89 22.9
8 -10 -16 108.89 19.6
-10 2 16 113.69 21.2
-2 -8 16 136.29 22
-10 2 16 96.09 18.9
-8 10 16 98.09 18
-2 -8 16 104.49 22.1
8 -10 16 113.59 24.9
-7 10 -16 369.16 41.9
3 7 -16 359.56 37.2
7 -10 -16 258.97 40.4
-7 10 -16 418.46 41.4
7 -10 -16 279.57 32.7
10 -3 -16 262.77 34.1
-10 3 -16 297.77 31.2
-3 -7 16 272.47 38.1
7 -10 16 345.97 40.3
-10 3 16 255.57 31.7
-3 -7 16 337.17 34.4
-10 3 16 284.57 31.4
4 6 -16 515.95 43
6 -10 -16 387.16 38.5
-10 4 -16 371.46 50.69
-6 10 -16 501.25 45.2
-6 10 -16 492.25 45.7
10 -4 -16 426.06 41.6
6 -10 -16 440.86 44.7
-4 -6 16 493.45 42.5
-10 4 16 442.86 39.3
-10 4 16 423.86 38.6
6 -10 16 535.95 47.4
-6 10 16 425.96 33.9
-4 -6 16 472.25 43.4
-10 5 -16 457.45 42.2
5 -10 -16 433.96 37.5
-5 10 -16 483.15 49
-5 10 -16 476.65 46.1
5 5 -16 443.16 41
10 -5 -16 385.26 40.8
5 -10 -16 358.46 40.7
-10 5 16 341.27 35
10 -5 16 331.37 27.5
5 -10 16 422.86 43.8
-5 10 16 352.86 29.5
-5 -5 16 390.56 39.9
-5 -5 16 407.66 36.4
-10 5 16 337.87 35.2
4 -10 -16 168.48 25.9
10 -6 -16 180.48 28.2
10 -6 -16 198.38 33.4
-4 10 -16 203.48 34.3
6 4 -16 184.18 31.6
4 -10 -16 155.38 26.4
-10 6 -16 134.79 23.7
-4 10 -16 191.18 28.5
-10 6 16 159.78 23.7
-4 10 16 156.48 26.1
-10 6 16 195.68 29.3
-6 -4 16 195.98 26.9
4 -10 16 185.68 28.1
-6 -4 16 159.48 23.9
10 -6 16 159.38 22
-10 7 -16 299.47 39.2
10 -7 -16 282.47 37.1
-3 10 -16 282.47 37.1
3 -10 -16 322.67 30
10 -7 -16 236.88 33.8
3 -10 -16 284.67 31.1
7 3 -16 224.78 33.3
-3 10 16 245.48 22.9
3 -10 16 294.97 33.8
-7 -3 16 252.17 33.9
10 -7 16 211.88 28.8
-7 -3 16 231.38 29.4
3 -10 16 312.87 39.9
-10 7 16 258.87 31
-2 10 -16 268.57 36.4
-10 8 -16 315.07 55.79
2 -10 -16 246.98 27.4
2 -10 -16 255.67 27.7
8 2 -16 205.08 32.8
10 -8 -16 239.68 32.7
10 -8 -16 270.67 38.8
10 -8 16 217.18 32
-8 -2 16 211.38 30.1
-8 -2 16 287.07 34.9
2 -10 16 291.37 34.3
-10 8 16 238.78 30.8
-2 10 16 270.87 20.2
2 -10 16 270.77 39.9
9 1 -16 228.18 33.6
10 -9 -16 232.38 40.2
11 -5 -16 189.18 33.4
11 -6 -16 86.29 22
-11 6 -16 3.6 15.8
0 0 -17 41.8 9.1
0 0 17 28.1 8.4
1 -1 -17 1238.48 68.99
0 1 -17 1325.67 69.89
1 0 -17 1374.86 69.89
0 -1 -17 1319.97 68.59
1 0 -17 1290.17 69.59
0 -1 -17 1232.88 68.29
-1 1 -17 1269.67 69.19
-1 0 -17 1233.28 68.19
1 -1 -17 1278.07 69.09
-1 1 -17 1309.77 69.39
0 1 -17 1214.88 69.49
-1 0 -17 1283.17 68.59
0 1 17 1296.57 66.69
-1 1 17 1322.27 69.19
-1 1 17 1257.07 67.59
0 -1 17 1365.76 70.59
1 0 17 1260.27 66.69
1 -1 17 1291.17 70.09
-1 0 17 1252.77 68.29
0 1 17 1277.27 68.39
-1 0 17 1344.47 69.69
0 -1 17 1078.89 67.49
1 -1 17 1273.07 67.99
1 0 17 1229.38 68.89
1 1 -17 2080.89 109.19
1 1 -17 2176.98 109.39
-2 1 -17 2073.49 108.49
-1 2 -17 2014.9 109.29
-1 -1 -17 2159.58 107.09
-1 2 -17 2062.89 109.29
2 -1 -17 2126.19 108.69
1 -2 -17 2124.89 107.99
-1 -1 -17 2027.5 106.69
2 -1 -17 2012.7 108.59
-2 1 -17 2078.19 107.89
1 -2 -17 2094.59 107.99
1 -2 17 1904.41 96.39
-1 2 17 1845.92 93.69
2 -1 17 1780.62 92.39
-1 -1 17 1719.73 94.29
1 1 17 1866.41 90.99
-2 1 17 1739.03 93.39
1 1 17 1632.94 92.59
-2 1 17 1877.01 94.99
2 -1 17 1602.94 93.49
-1 -1 17 1851.51 95.39
-1 2 17 1877.11 92.19
2 0 -17 2154.98 109.19
0 2 -17 2094.09 109.79
0 -2 -17 2095.99 107.19
-2 0 -17 2026.5 106.69
-2 0 -17 2189.48 107.79
-2 2 -17 2021.7 108.89
2 0 -17 2018.1 108.89
2 -2 -17 2141.99 108.69
2 -2 -17 2068.49 108.59
-2 2 -17 1993.9 109.29
0 -2 -17 2056.39 107.09
0 2 -17 2164.18 109.69
2 0 17 2200.08 108.99
0 -2 17 2241.18 114.29
-2 0 17 2163.38 112.09
0 2 17 2103.39 110.49
-2 2 17 2239.38 112.49
2 -2 17 2124.49 111.69
0 2 17 2274.37 109.19
2 -2 17 2108.69 113.09
-2 0 17 2239.98 113.09
0 -2 17 2073.19 112.49
2 0 17 1987.8 110.29
1 2 -17 890.81 52.69
3 -1 -17 936.51 52.49
-3 1 -17 922.21 52.19
-3 1 -17 902.11 50.39
-1 -2 -17 906.51 49.3
3 -1 -17 860.81 52.39
2 -3 -17 928.81 51.59
-2 3 -17 806.52 52.89
2 -3 -17 932.11 51.79
-1 -2 -17 898.01 49.3
1 2 -17 888.71 53.19
-2 3 -17 912.31 53.89
-3 1 17 896.51 52.39
-1 -2 17 921.71 54.19
-3 1 17 968.7 54.09
3 -1 17 916.81 49.7
3 -1 17 948.71 50.59
2 -3 17 981.7 54.99
1 2 17 947.41 48
-1 -2 17 862.21 53.49
-2 3 17 912.71 52.49
-2 3 17 954 50.69
1 2 17 824.02 49.5
1 -3 -17 555.04 33.2
1 -3 -17 528.75 33.2
2 1 -17 527.95 34.8
-3 2 -17 511.55 35.1
2 1 -17 523.85 35.3
3 -2 -17 525.55 34.3
-2 -1 -17 561.84 31.8
-1 3 -17 489.45 35.6
-3 2 -17 495.35 33.9
-1 3 -17 491.85 35.3
-2 -1 -17 515.05 30.9
3 -2 -17 515.55 34.7
2 1 17 605.34 31.6
-3 2 17 607.44 37.8
3 -2 17 560.44 35.1
3 -2 17 592.64 36.4
-2 -1 17 604.64 38.3
1 -3 17 617.14 39.5
-3 2 17 576.04 36.1
1 -3 17 540.55 37.7
-2 -1 17 544.75 37.1
-1 3 17 594.34 35.3
2 1 17 558.54 32.7
-1 3 17 609.64 33.6
0 -3 -17 288.07 20.9
0 -3 -17 292.77 21.3
3 0 -17 273.87 24
3 -3 -17 307.37 24
3 -3 -17 252.47 23.6
-3 0 -17 268.07 19.7
0 3 -17 257.37 25.3
-3 3 -17 272.87 24.5
3 0 -17 263.17 24.4
0 3 -17 284.97 24.7
-3 0 -17 281.87 21.6
-3 3 -17 191.88 23.2
0 -3 17 356.86 29.1
3 -3 17 365.86 27.4
0 3 17 357.26 24
3 0 17 384.26 21.9
-3 0 17 386.46 27.9
-3 3 17 365.46 28
3 0 17 371.66 22.5
0 -3 17 422.26 30.9
0 3 17 386.96 22.6
-3 0 17 357.16 28.4
3 -3 17 349.37 27.8
-4 1 -17 16.4 7.3
-4 1 -17 18.3 8
4 -1 -17 11.3 10.8
-3 4 -17 15.2 9.3
4 -1 -17 49 11.3
-1 -3 -17 34 7.4
1 3 -17 28.8 11.6
3 -4 -17 19.7 9.9
-3 4 -17 39.4 12.7
1 3 -17 10.5 10.9
-1 -3 -17 31.6 8.2
3 -4 17 37 8.6
1 3 17 19.4 5.4
4 -1 17 37.3 8
3 -4 17 40.5 11.4
-1 -3 17 15.3 9.5
-1 -3 17 30.7 10.9
-4 1 17 33.7 10.2
4 -1 17 35.4 6.5
-3 4 17 26.3 14.5
-4 1 17 32.4 9.8
-3 4 17 22 7.7
1 3 17 27.3 4.9
-4 2 -17 215.68 21.4
-2 4 -17 226.58 24
2 -4 -17 255.67 21.3
-2 4 -17 215.18 24.1
2 -4 -17 240.48 21.7
4 -2 -17 222.98 21.8
4 -2 -17 229.58 22.8
-2 -2 -17 211.98 17.1
2 2 -17 189.38 23
2 2 -17 211.08 22.5
-2 -2 -17 215.88 17.1
-4 2 -17 210.48 20.2
2 2 17 236.38 13.6
-2 -2 17 197.08 22.8
-2 4 17 232.38 21.9
2 2 17 232.98 13.9
-4 2 17 227.58 23
-2 4 17 213.48 18
4 -2 17 237.78 18.5
-4 2 17 220.88 21.4
2 -4 17 241.18 24.2
2 -4 17 253.37 23.9
-2 -2 17 220.08 22.9
1 -4 -17 9.3 8.2
-3 -1 -17 8.5 6.2
-4 3 -17 10.1 8.7
4 -3 -17 2.7 10.5
3 1 -17 0 8.5
-4 3 -17 10.1 9.2
-3 -1 -17 8.8 10.7
-1 4 -17 6.5 10.9
1 -4 -17 28.6 8.7
3 1 -17 27.9 12.1
4 -3 -17 13.2 8.7
-1 4 -17 38.2 11.8
1 -4 17 5.4 10.3
3 1 17 7.3 2.8
-4 3 17 1 7.1
-3 -1 17 5.5 9.2
4 -3 17 16.9 7.4
1 -4 17 15 10.5
4 -3 17 0.7 6.9
-1 4 17 0.8 5.4
-1 4 17 1.8 3.9
-3 -1 17 0.4 8.5
-4 3 17 3.8 9.5
4 -4 -17 208.28 22.1
-4 4 -17 174.48 23.1
0 4 -17 190.18 22.4
0 4 -17 179.78 23.4
-4 4 -17 191.18 22.1
4 0 -17 177.88 26
0 -4 -17 220.28 18.2
-4 0 -17 176.18 15.7
-4 0 -17 153.88 18.9
4 -4 -17 193.38 20.9
0 -4 -17 194.88 17.7
4 0 -17 155.88 22
4 -4 17 105.89 18.9
-4 0 17 139.59 19.4
-4 0 17 157.98 20.2
0 -4 17 127.39 21.2
4 0 17 152.18 9.3
4 0 17 143.19 9.3
-4 4 17 151.78 20.8
4 -4 17 160.98 19
-4 4 17 138.79 17.1
0 4 17 134.69 13.1
5 -1 -17 253.07 26.1
4 -5 -17 267.47 25.2
-5 1 -17 257.27 21.4
4 -5 -17 268.27 25.5
-4 5 -17 289.87 29.3
5 -1 -17 279.57 25.2
1 4 -17 286.87 27.8
-1 -4 -17 251.57 21.2
1 4 -17 300.07 28.3
-4 5 -17 330.77 28.3
-1 -4 -17 284.67 20.4
5 -1 17 323.97 18.2
-1 -4 17 314.27 29.6
-5 1 17 306.97 27.2
4 -5 17 293.17 27.6
4 -5 17 315.67 28.5
5 -1 17 322.27 18.3
-4 5 17 311.67 27.8
-5 1 17 316.97 27.7
-1 -4 17 357.46 30.6
3 -5 -17 445.16 33.1
2 3 -17 507.15 35.5
5 -2 -17 429.16 34.4
-2 -3 -17 464.65 28.1
-3 5 -17 488.05 36.2
3 -5 -17 503.25 33.5
-2 -3 -17 487.25 28.5
5 -2 -17 461.25 33.7
-3 5 -17 551.54 38.6
-5 2 -17 446.56 32.1
2 3 -17 438.76 35.6
5 -2 17 432.96 27.5
-3 5 17 461.85 29.4
-2 -3 17 462.35 34.2
3 -5 17 422.76 35.2
-2 -3 17 473.85 35.2
-5 2 17 475.55 34.3
5 -2 17 469.55 27
3 -5 17 449.86 35
-5 2 17 436.56 32.6
-3 5 17 503.85 33.4
-5 3 -17 349.07 28.4
-3 -2 -17 382.16 22.7
-2 5 -17 371.66 31.4
2 -5 -17 373.46 27.8
2 -5 -17 365.76 29
3 2 -17 376.96 30
-2 5 -17 420.96 33.7
-5 3 -17 317.07 32.7
-3 -2 -17 364.16 23.4
3 2 -17 314.57 30.5
5 -3 -17 348.07 30
5 -3 -17 382.96 29.3
-2 5 17 305.47 21.3
-5 3 17 314.47 27.8
-3 -2 17 296.77 27.3
2 -5 17 283.97 28.8
-3 -2 17 287.97 26.7
2 -5 17 342.97 28.7
5 -3 17 335.97 23.9
-5 3 17 292.67 25.6
-1 5 -17 684.73 45.6
1 -5 -17 672.83 40.6
1 -5 -17 687.63 40.2
-1 5 -17 737.53 46.6
-4 -1 -17 619.04 37.3
-5 4 -17 637.74 43.4
5 -4 -17 645.84 43.4
4 1 -17 688.33 44.2
-5 4 -17 622.34 45.8
4 1 -17 654.93 42.6
5 -4 -17 680.73 42.8
-4 -1 -17 605.74 37.5
1 -5 17 644.24 42.4
-4 -1 17 641.54 40.8
-4 -1 17 567.04 39.6
-1 5 17 485.45 33.7
-1 5 17 627.34 33.8
-5 4 17 575.04 41.2
5 -4 17 591.94 39.4
5 -4 17 652.03 38
-5 4 17 599.94 38.4
1 -5 17 591.24 42.7
-5 0 -17 873.01 49.4
5 0 -17 872.11 56.49
-5 5 -17 952.3 57.99
5 -5 -17 889.61 55.79
5 -5 -17 873.41 55.89
0 5 -17 996.4 59.39
0 5 -17 930.31 58.39
-5 0 -17 941.11 50.39
0 -5 -17 895.11 51.89
5 0 -17 943.61 55.59
-5 5 -17 1036.3 61.19
0 -5 -17 935.71 51.49
-5 5 17 850.41 53.09
-5 0 17 850.31 51.49
0 -5 17 973.2 54.29
-5 0 17 853.31 52.19
0 5 17 871.71 44.1
5 -5 17 847.42 51.29
-5 5 17 850.91 49.5
0 -5 17 893.71 55.39
0 5 17 717.03 43.8
5 -5 17 687.63 62.19
1 5 -17 90.69 17
-5 6 -17 130.09 23.1
5 -6 -17 95.69 23.2
5 -6 -17 117.09 20.9
-5 6 -17 117.19 21.2
6 -1 -17 70.79 15.5
-1 -5 -17 114.79 14.2
-1 -5 -17 110.49 14.1
-6 1 -17 122.49 15
-6 1 -17 117.09 14.4
1 5 -17 145.29 20.8
6 -1 -17 120.39 19.5
-6 1 17 146.99 19.4
-1 -5 17 178.88 24.3
-5 6 17 160.88 18.2
-6 1 17 116.39 17.4
5 -6 17 140.79 21.9
5 -6 17 162.88 24.5
-1 -5 17 121.69 19.4
-5 6 17 189.98 24.1
2 4 -17 349.27 33
-6 2 -17 357.76 27.5
4 -6 -17 351.76 30.5
4 -6 -17 333.97 36.7
6 -2 -17 389.36 30.6
-2 -4 -17 387.56 23.5
-6 2 -17 333.27 27.8
-4 6 -17 442.76 35.1
-2 -4 -17 399.66 23.7
2 4 -17 422.06 33.4
6 -2 -17 354.16 32
-4 6 -17 431.96 36.6
-2 -4 17 358.96 33.2
4 -6 17 349.17 31.6
-4 6 17 348.17 26.2
6 -2 17 362.66 22.2
4 -6 17 371.06 34
-6 2 17 376.56 30.2
-4 6 17 364.06 37.4
-2 -4 17 419.96 32.8
-6 2 17 390.76 31.5
6 -3 -17 534.95 39.6
-6 3 -17 532.95 37.1
-6 3 -17 493.65 37.4
6 -3 -17 536.45 38.3
-3 -3 -17 586.14 30.9
3 -6 -17 531.15 37.5
-3 -3 -17 557.54 31.2
3 -6 -17 551.34 38.7
3 3 -17 552.74 40.9
-3 6 -17 616.74 41.8
-3 6 -17 644.24 44
3 3 -17 572.74 40.2
3 -6 17 517.15 51.69
-6 3 17 467.05 35.9
3 -6 17 517.25 39.4
-3 6 17 452.85 29.6
-3 -3 17 449.76 36.5
-6 3 17 408.96 38.9
6 -3 17 504.05 30.4
-3 -3 17 457.85 35.1
4 2 -17 469.95 37
2 -6 -17 446.56 32.4
6 -4 -17 452.35 34.7
6 -4 -17 445.96 35.8
-2 6 -17 519.35 39.2
4 2 -17 445.76 35
-4 -2 -17 474.05 26.3
2 -6 -17 442.76 32.3
-6 4 -17 452.05 36.1
-4 -2 -17 467.55 26
-6 4 -17 456.75 34.6
-6 4 17 387.96 32.2
-2 6 17 447.46 28
6 -4 17 455.75 32.3
2 -6 17 495.85 36.2
-4 -2 17 436.36 34.2
-6 4 17 470.95 35.9
-4 -2 17 450.15 35
2 -6 17 442.66 38
-5 -1 -17 827.42 42.9
-6 5 -17 815.42 54.29
-1 6 -17 990.8 56.59
1 -6 -17 839.82 47.7
1 -6 -17 816.12 48.1
-6 5 -17 754.02 51.89
6 -5 -17 749.53 51.49
-5 -1 -17 790.92 42.3
5 1 -17 722.03 51.69
-1 6 -17 848.72 53.59
6 -5 -17 806.22 51.39
5 1 -17 770.62 50.29
1 -6 17 983.8 57.49
6 -5 17 855.31 55.39
-1 6 17 895.91 48.4
-5 -1 17 889.61 55.19
-5 -1 17 854.31 54.99
-6 5 17 854.51 53.39
-6 5 17 920.21 56.99
1 -6 17 971.2 60.19
0 6 -17 820.72 51.19
0 -6 -17 685.63 41.5
-6 0 -17 665.43 37.7
6 -6 -17 639.64 47
6 -6 -17 713.93 47.1
6 0 -17 675.63 45.4
0 6 -17 731.43 49.3
0 -6 -17 674.43 41.1
-6 6 -17 749.82 51.29
-6 6 -17 676.13 48.1
6 0 -17 629.44 46.5
-6 0 17 696.83 46.7
-6 6 17 683.03 44.1
6 -6 17 631.54 47.8
0 -6 17 742.93 51.19
0 -6 17 760.52 48.7
-6 0 17 690.13 46.2
-6 6 17 701.23 48.1
1 6 -17 54.99 16.7
7 -1 -17 22 11.1
-1 -6 -17 22.8 12.4
7 -1 -17 30.1 13.9
6 -7 -17 51.39 14.3
-6 7 -17 81.59 20
-6 7 -17 44.1 15
-1 -6 -17 62.39 9.8
-7 1 -17 36.7 9.1
1 6 -17 42.3 15.6
6 -7 -17 57.59 17.2
-7 1 -17 15.1 9.3
-7 1 17 50.99 14.6
-7 1 17 70.09 15.1
6 -7 17 60.79 16.7
-1 -6 17 76.69 19
-1 -6 17 62.49 16.1
-6 7 17 42.2 10.8
-5 7 -17 531.05 53.29
-5 7 -17 443.96 37.3
5 -7 -17 408.96 35
7 -2 -17 393.06 34.7
7 -2 -17 378.36 32.3
5 -7 -17 411.46 33.6
-2 -5 -17 409.76 24.8
2 5 -17 447.76 36.6
2 5 -17 400.56 36.7
-7 2 -17 350.66 29
-5 7 17 314.77 31.4
-2 -5 17 378.66 36.2
5 -7 17 404.76 37.4
-7 2 17 447.56 33.6
-2 -5 17 452.95 36.4
-7 2 17 325.47 31.3
-4 7 -17 1213.38 68.49
4 -7 -17 1034 62.09
-4 7 -17 1140.69 66.09
4 -7 -17 983 61.19
7 -3 -17 1032.9 61.59
3 4 -17 1060.69 63.79
-7 3 -17 865.21 59.79
3 4 -17 1105.09 65.29
-7 3 -17 1035.7 59.39
-3 -4 -17 1004.3 52.69
7 -3 -17 952 62.29
-3 -4 17 1094.19 64.99
-7 3 17 1025.8 61.99
4 -7 17 1150.08 66.59
-7 3 17 1005.8 63.39
-4 7 17 1058.99 58.39
-3 -4 17 1038.3 65.09
4 -7 17 1051.79 67.79
7 -3 17 1005.2 56.19
3 -7 -17 511.45 37.9
-7 4 -17 559.04 38.1
3 -7 -17 486.95 37.1
-3 7 -17 576.04 42.7
7 -4 -17 521.65 40
-3 7 -17 642.74 45.2
4 3 -17 519.35 41.2
7 -4 -17 556.14 39.2
4 3 -17 505.75 39.3
-7 4 -17 500.65 39.2
-7 4 17 552.74 40.4
-4 -3 17 558.04 39.8
-4 -3 17 517.95 40.3
3 -7 17 548.45 44.3
-3 7 17 523.05 33
7 -4 17 507.35 35
3 -7 17 552.04 40.8
-7 4 17 492.85 37.7
7 -5 -17 439.76 35.5
2 -7 -17 438.66 32.3
5 2 -17 430.16 37.6
5 2 -17 429.56 40.9
-7 5 -17 395.86 34.6
-7 5 -17 426.36 37
-2 7 -17 475.25 39.9
7 -5 -17 429.56 36.6
2 -7 -17 420.76 32.3
-2 7 -17 481.25 38.7
-5 -2 17 468.25 38
7 -5 17 442.46 35.2
-5 -2 17 487.25 37.2
-7 5 17 447.86 35.5
-7 5 17 442.36 37.6
2 -7 17 535.65 43.1
-2 7 17 496.75 35.6
2 -7 17 540.25 39.3
1 -7 -17 689.23 56.99
-7 6 -17 706.23 51.59
-7 6 -17 721.03 50.19
6 1 -17 718.43 50.19
7 -6 -17 673.73 51.49
-1 7 -17 752.52 51.19
-1 7 -17 885.91 53.79
6 1 -17 663.33 46.9
7 -6 -17 677.03 49.4
1 -7 17 704.23 52.19
7 -6 17 620.24 46.7
-7 6 17 686.63 49.3
-6 -1 17 679.83 46.7
-1 7 17 669.43 37.9
1 -7 17 759.42 48.6
-6 -1 17 700.93 46.9
-7 6 17 681.53 44.9
0 7 -17 686.63 47.8
-7 7 -17 525.25 44.2
0 -7 -17 606.84 36.9
0 7 -17 583.14 48.1
7 -7 -17 535.25 44.3
7 -7 -17 564.74 43
-7 7 -17 539.15 46.9
7 0 -17 567.94 41.4
7 0 -17 592.34 43.4
-7 0 -17 540.85 31.2
-7 0 17 508.25 39.4
-7 7 17 505.75 37.2
-7 0 17 463.55 39.2
0 -7 17 555.44 41.3
0 -7 17 585.24 46.1
-1 -7 -17 38 9.3
-7 8 -17 24.3 14.6
7 -8 -17 23 11.8
8 -1 -17 38.8 15.8
7 -8 -17 29 16.8
-1 -7 -17 16.6 8.4
-8 1 -17 9.4 9.6
-7 8 -17 28.1 17.5
1 7 -17 47.1 18.2
-8 1 -17 29.3 8.3
-7 8 17 20.4 11.3
-1 -7 17 32.9 15.5
-8 1 17 25.5 13.7
-8 1 17 22 12.1
7 -8 17 32.9 14.7
-1 -7 17 33.3 14.2
2 6 -17 204.68 29.7
8 -2 -17 174.28 24.6
8 -2 -17 206.58 27.6
-2 -6 -17 203.98 15.4
-2 -6 -17 199.08 15.8
6 -8 -17 185.98 26.2
-8 2 -17 169.38 20.5
2 6 -17 183.28 29.4
-6 8 -17 238.38 33.7
6 -8 -17 184.28 30
-6 8 -17 217.58 31
-8 2 17 220.98 27.1
-2 -6 17 217.18 32.8
6 -8 17 268.47 33.1
-8 2 17 216.68 27
-2 -6 17 248.78 30.1
5 -8 -17 867.31 56.19
3 5 -17 859.51 57.79
-5 8 -17 977.5 64.69
-5 8 -17 839.02 68.49
-8 3 -17 798.92 52.19
5 -8 -17 825.32 54.29
8 -3 -17 806.72 53.19
8 -3 -17 842.82 55.99
3 5 -17 820.62 56.39
-3 -5 17 793.42 55.79
-8 3 17 781.42 52.79
-5 8 17 761.62 47.5
5 -8 17 947.11 59.79
8 -3 17 729.73 42.7
-8 3 17 787.32 52.09
-3 -5 17 944.81 56.69
4 4 -17 439.76 39.5
4 -8 -17 471.45 37.4
4 4 -17 425.06 37.4
-4 8 -17 519.65 41.3
8 -4 -17 423.76 35.8
8 -4 -17 447.16 38.4
-8 4 -17 433.26 36.2
4 -8 -17 436.66 35.3
-4 8 -17 540.25 43.8
8 -4 17 512.65 33.1
-8 4 17 482.75 41.1
-4 -4 17 541.25 40.6
-4 8 17 455.95 33.1
-8 4 17 477.45 38.3
4 -8 17 554.14 42.5
-4 -4 17 503.15 41.8
4 -8 17 594.54 46.3
3 -8 -17 44.6 15.5
8 -5 -17 35.8 14.1
-3 8 -17 42.6 15.3
5 3 -17 45 20.1
-8 5 -17 49.99 15.8
8 -5 -17 24.1 15.9
5 3 -17 32.9 13.4
3 -8 -17 45.7 12.3
-3 8 -17 34.7 17.3
-8 5 17 20.8 13.6
3 -8 17 50.69 16.2
-8 5 17 23 14.4
-5 -3 17 21 15.5
3 -8 17 38 15.7
-5 -3 17 30.7 12.5
8 -5 17 51.49 12.5
8 -6 -17 204.78 28.7
8 -6 -17 254.47 31.5
6 2 -17 259.17 36.7
-8 6 -17 255.07 29.2
-8 6 -17 253.67 32.4
2 -8 -17 226.48 24.3
-2 8 -17 237.88 33.6
-2 8 -17 261.27 31
-6 -2 17 226.38 27.9
-8 6 17 204.78 29.8
2 -8 17 256.97 41.2
-8 6 17 197.08 27.2
-6 -2 17 234.38 29.2
2 -8 17 297.37 34.9
8 -6 17 215.88 26.4
-2 8 17 243.28 19.6
-8 7 -17 373.36 39.6
-1 8 -17 439.96 37.6
8 -7 -17 355.36 34.9
7 1 -17 393.66 38.8
1 -8 -17 362.96 31.3
-1 8 -17 417.96 39.6
8 -7 -17 308.27 36.4
-8 7 -17 407.86 37.5
1 -8 -17 337.87 29.5
-7 -1 17 385.86 34.8
-8 7 17 356.96 35.2
1 -8 17 474.65 37.9
-1 8 17 396.66 28.8
8 -7 17 437.76 36.5
-7 -1 17 367.26 36.2
1 -8 17 448.16 42.9
0 -8 -17 179.18 20.4
-8 8 -17 228.68 31.9
8 0 -17 179.78 29.7
8 -8 -17 173.58 26.8
0 8 -17 192.38 32.8
8 -8 -17 179.68 31.9
0 -8 -17 122.19 19.3
-8 8 -17 192.18 33.4
0 -8 17 196.88 27.9
0 -8 17 154.18 24
-8 0 17 128.09 21.2
-8 8 17 168.78 23.6
-8 0 17 100.79 17.7
-1 -8 -17 38.7 10.1
9 -1 -17 2.2 16.2
1 8 -17 45.1 19.1
-8 9 -17 34.7 17.7
-1 -8 -17 37 9.5
8 -9 -17 19.3 14.7
-8 9 -17 13.7 16.1
8 -9 -17 47.3 21.3
-9 1 -17 41.3 8.4
-9 1 -17 47 8.9
-1 -8 17 66.69 22
8 -9 17 36.8 15.7
-8 9 17 17.5 11.5
-9 1 17 25.9 15.4
-9 1 17 45 14.8
-1 -8 17 29.6 15.3
7 -9 -17 15.6 13.2
-9 2 -17 -9.3 10.4
-2 -7 -17 14.7 6.3
-9 2 -17 9.1 9.6
7 -9 -17 -1.1 18.2
-7 9 -17 11.5 18.4
9 -2 -17 18.5 16.2
2 7 -17 10.3 14.6
-2 -7 -17 19.3 6.6
-7 9 -17 32.9 27.4
-9 2 17 33.2 15.4
7 -9 17 -3.1 13.5
-2 -7 17 7.1 17.3
-7 9 17 14.1 10.3
-2 -7 17 6.7 13.8
-9 2 17 13.3 12.1
-6 9 -17 266.27 36.7
6 -9 -17 223.38 29
3 6 -17 311.57 37.7
9 -3 -17 213.38 31
-6 9 -17 272.87 34.5
-9 3 -17 206.58 25
6 -9 -17 243.48 33.7
-3 -6 17 228.08 33.7
-9 3 17 223.68 29.3
-3 -6 17 251.17 30.1
-9 3 17 198.38 27.1
-6 9 17 131.29 25.8
6 -9 17 237.28 34.3
4 5 -17 369.16 37.7
9 -4 -17 291.37 34.6
5 -9 -17 382.36 36.3
-5 9 -17 425.86 41.9
-9 4 -17 389.96 33.4
5 -9 -17 293.07 32.1
-5 9 -17 362.66 38
9 -4 -17 325.37 32.3
-9 4 17 348.17 34.3
-5 9 17 342.17 28.4
9 -4 17 369.26 24.9
5 -9 17 430.56 42
-4 -5 17 406.76 37.1
-9 4 17 347.77 50.49
-4 -5 17 387.46 39.2
9 -5 -17 232.88 31.7
5 4 -17 193.98 32.5
-4 9 -17 260.77 34
-4 9 -17 276.57 35.6
4 -9 -17 254.77 31.8
4 -9 -17 220.28 27.2
-9 5 -17 261.67 30.6
9 -5 -17 234.38 31.9
-4 9 17 162.58 20.5
-9 5 17 219.08 28
-9 5 17 233.08 29.1
-5 -4 17 195.28 31.2
9 -5 17 198.78 21.8
4 -9 17 230.18 35.9
-5 -4 17 232.48 28.2
9 -6 -17 339.07 34.8
3 -9 -17 354.46 32.2
-3 9 -17 478.35 45
-3 9 -17 397.76 40.6
6 3 -17 346.67 37.8
-9 6 -17 439.46 39.2
9 -6 -17 309.37 38.2
-6 -3 17 374.46 34.5
9 -6 17 295.87 30.6
-9 6 17 312.27 34
3 -9 17 454.55 43.5
-3 9 17 384.86 27.2
-6 -3 17 359.76 37.5
3 -9 17 448.46 38.9
2 -9 -17 466.25 36.3
-2 9 -17 520.65 44.2
2 -9 -17 469.25 37.4
-9 7 -17 490.45 44.5
9 -7 -17 430.06 41
-2 9 -17 541.05 45.1
9 -7 -17 407.56 43.2
7 2 -17 478.05 41.6
-9 7 17 426.56 37.4
2 -9 17 501.35 45.9
-7 -2 17 461.25 38.4
-7 -2 17 437.86 40.1
9 -7 17 448.46 37.9
-2 9 17 447.86 28.9
2 -9 17 461.15 40.5
1 -9 -17 80.69 15.4
9 -8 -17 87.39 22.8
1 -9 -17 93.09 15
-9 8 -17 108.79 23.1
8 1 -17 95.49 20.4
9 -8 -17 89.19 20.1
-1 9 -17 119.29 23.3
9 -8 17 124.99 21.1
-8 -1 17 129.99 22.4
1 -9 17 128.19 23.8
-8 -1 17 120.99 18.6
-9 8 17 90.09 17.7
0 9 -17 35.8 19.9
0 -9 -17 51.29 11.7
0 -9 -17 38.5 11.3
-9 9 -17 3.4 24.3
9 -9 -17 49.7 21.3
9 -9 -17 63.39 19
9 0 -17 23.9 17.4
-9 9 -17 6.3 17.3
-9 0 17 29.9 15.6
-9 0 17 37.6 18
-9 9 17 27.6 16.1
0 -9 17 44.8 20.2
0 -9 17 18.3 14.2
-10 2 -17 147.89 22.2
10 -2 -17 122.59 23.6
8 -10 -17 122.09 27.6
7 -10 -17 -6.3 20.1
10 -3 -17 33.8 17.3
3 7 -17 4.8 15.4
7 -10 -17 -6.6 12.9
-10 3 -17 6.8 10.8
-10 3 -17 1.8 12
-7 10 -17 32.7 19.6
-7 10 -17 12.2 19.5
-10 3 17 -2.4 13.9
-10 3 17 -5.4 11.9
-3 -7 17 19.6 19.5
7 -10 17 -5.1 25.9
-3 -7 17 12 13.8
-10 4 -17 16.6 14.7
-6 10 -17 111.99 24
10 -4 -17 64.39 18.9
-10 4 -17 74.69 16.2
-6 10 -17 98.69 22.1
4 6 -17 89.69 21.3
6 -10 -17 121.49 25.4
6 -10 -17 58.99 16.4
-4 -6 17 64.69 19.6
-10 4 17 32.9 16
6 -10 17 70.29 21.1
-10 4 17 61.79 16.9
-6 10 17 42.7 12.2
-4 -6 17 73.49 22
5 -10 -17 335.37 34.2
-5 10 -17 402.76 43.2
-5 10 -17 407.26 60.19
5 5 -17 359.66 39.2
10 -5 -17 361.16 39.5
-10 5 -17 324.77 34.4
-5 -5 17 260.47 35.9
10 -5 17 261.67 24.6
5 -10 17 336.87 40.5
-10 5 17 247.48 31.8
-5 -5 17 315.37 34
-10 5 17 274.37 32.3
-5 10 17 231.68 25
-4 10 -17 527.65 44.3
4 -10 -17 415.36 36.8
-10 6 -17 451.45 40.6
10 -6 -17 387.66 43.2
-4 10 -17 438.96 44
6 4 -17 435.16 43.2
10 -6 17 313.37 30.3
-4 10 17 396.16 29.8
4 -10 17 372.86 44.5
-6 -4 17 394.16 36
-10 6 17 351.46 36.1
-6 -4 17 330.77 38.9
7 3 -17 430.66 43.9
-3 10 -17 597.44 48.5
3 -10 -17 489.25 39.5
3 -10 -17 534.75 39.2
10 -7 -17 487.95 43.1
-10 7 -17 520.15 46.1
10 -7 -17 500.55 47.3
-7 -3 17 515.15 45.3
-7 -3 17 478.35 41.5
-3 10 17 506.15 33.9
10 -7 17 481.75 40.8
-10 7 17 495.35 41.5
3 -10 17 624.14 52.69
8 2 -17 265.07 34
10 -8 -17 155.78 26.9
0 0 -18 8731.23 432.26
0 0 -18 8773.22 432.26
0 0 18 9741.92 471.45
0 0 18 9341.46 469.95
0 -1 -18 3361.56 166.08
1 -1 -18 3271.47 166.68
1 0 -18 3220.58 166.78
-1 1 -18 3134.89 166.38
-1 1 -18 3403.06 167.08
0 -1 -18 3274.27 165.78
-1 0 -18 3180.58 165.58
1 0 -18 3325.17 166.98
0 1 -18 3254.27 167.18
-1 0 -18 3447.86 166.38
1 -1 -18 3163.28 166.28
0 1 -18 3342.07 167.18
0 1 18 3326.37 170.98
1 0 18 3240.88 171.68
-1 0 18 3511.35 172.48
-1 0 18 3333.37 170.88
1 -1 18 3266.87 170.48
-1 1 18 3572.64 172.08
1 -1 18 3546.45 173.18
0 -1 18 3528.65 173.18
-1 1 18 3156.48 170.18
0 1 18 3483.95 169.48
1 0 18 3237.98 169.28
2 -1 -18 428.96 29.9
-1 -1 -18 455.25 28.1
-1 2 -18 420.06 30.9
-2 1 -18 398.96 29.2
1 1 -18 457.65 30.9
-1 -1 -18 421.86 27.8
1 -2 -18 444.26 28.9
-2 1 -18 400.66 28.7
1 -2 -18 429.46 29.5
2 -1 -18 435.26 30.4
1 1 -18 412.86 30.7
-1 2 -18 400.96 30.2
2 -1 18 308.17 25.3
1 -2 18 362.26 28.3
-1 2 18 323.07 25.2
-1 -1 18 340.67 27.3
-1 -1 18 378.46 27
2 -1 18 339.87 23.9
-1 2 18 352.06 23.5
-2 1 18 340.07 25.2
1 1 18 360.86 24.7
-2 1 18 349.87 26.9
1 1 18 354.66 22.2
0 2 -18 161.28 19.5
2 0 -18 175.68 19.5
-2 0 -18 149.49 16.5
-2 0 -18 158.48 17.1
2 0 -18 193.88 20.3
0 -2 -18 178.78 17
0 2 -18 135.49 19.9
-2 2 -18 163.58 19.1
2 -2 -18 188.28 20
2 -2 -18 177.28 18.9
0 -2 -18 177.78 17.4
-2 2 -18 162.28 19.2
0 -2 18 142.79 20.3
-2 0 18 168.08 18.5
-2 2 18 167.18 19.2
2 0 18 152.98 18.1
2 0 18 170.18 14.6
2 -2 18 174.28 17.7
0 2 18 166.48 14.5
0 2 18 134.09 18.1
-2 0 18 184.58 20.2
2 -2 18 173.58 19.5
0 -2 18 178.58 19.6
-3 1 -18 636.64 39.4
1 2 -18 656.33 42.2
-2 3 -18 597.64 42.2
-1 -2 -18 685.23 38.8
3 -1 -18 697.93 41.9
1 2 -18 712.93 43.2
2 -3 -18 661.93 41.2
2 -3 -18 690.63 41.1
-1 -2 -18 670.43 38.6
-3 1 -18 630.74 41.1
3 -1 -18 613.64 41.7
-2 3 -18 701.43 43.7
-3 1 18 699.23 43.8
1 2 18 749.73 39
3 -1 18 725.93 40.7
-1 -2 18 733.53 46
-2 3 18 707.83 49.2
-2 3 18 754.92 41.8
-3 1 18 749.42 45.4
-1 -2 18 704.43 45.3
2 -3 18 767.72 46.3
1 2 18 659.53 41.8
-1 3 -18 156.88 20.2
3 -2 -18 182.48 19.9
-1 3 -18 167.68 21.4
-3 2 -18 209.48 20.8
1 -3 -18 171.08 18.4
1 -3 -18 169.58 17.9
2 1 -18 180.88 20.4
2 1 -18 126.19 20.3
3 -2 -18 169.68 20.4
-2 -1 -18 167.98 16.1
-3 2 -18 167.48 19
-2 -1 -18 183.38 16.7
-3 2 18 186.08 20
-2 -1 18 150.88 19.6
2 1 18 164.08 19.5
1 -3 18 193.48 21
-1 3 18 175.18 15.4
2 1 18 181.98 13.1
-2 -1 18 189.48 20.7
1 -3 18 209.08 21.7
3 -2 18 186.98 17.3
-3 2 18 174.28 18.4
3 -2 18 134.89 16.5
-3 0 -18 751.22 43.7
0 -3 -18 738.03 42.7
3 0 -18 760.62 45.6
3 -3 -18 726.13 45.4
0 -3 -18 746.33 42.9
-3 3 -18 612.04 45.2
-3 3 -18 775.72 47
0 3 -18 767.42 46.7
3 -3 -18 784.12 45.5
3 0 -18 745.93 45.9
-3 0 -18 713.23 41.7
0 3 -18 709.03 46.7
0 3 18 667.73 37
3 0 18 691.03 37.2
0 -3 18 720.83 44.2
0 3 18 661.03 38.5
3 -3 18 591.44 41.8
-3 0 18 704.23 43.1
-3 3 18 699.93 45.5
-3 0 18 669.13 42.2
3 0 18 643.94 41.2
0 -3 18 735.13 45.3
3 -3 18 650.63 41.7
-1 -3 -18 944.41 50.69
-3 4 -18 1003.8 57.19
4 -1 -18 946.71 54.69
-1 -3 -18 924.31 56.79
4 -1 -18 869.41 54.59
1 3 -18 954.2 55.99
1 3 -18 924.51 56.29
3 -4 -18 937.41 54.59
-3 4 -18 846.72 55.89
-4 1 -18 871.41 52.99
3 -4 -18 892.91 59.39
1 3 18 813.92 47.1
-3 4 18 927.51 54.59
3 -4 18 887.01 54.29
-3 4 18 857.11 52.69
-4 1 18 907.51 53.99
-1 -3 18 966.8 55.49
1 3 18 937.11 46.2
4 -1 18 882.51 47.5
-4 1 18 875.61 52.59
-1 -3 18 892.41 54.49
-2 4 -18 484.25 36.1
2 2 -18 442.76 34.7
-2 -2 -18 474.25 29.3
4 -2 -18 469.25 34.2
2 2 -18 454.65 33.9
2 -4 -18 490.25 32.9
-4 2 -18 467.85 33.3
4 -2 -18 469.95 33.4
2 -4 -18 499.85 33.1
-2 -2 -18 473.65 32.4
-4 2 -18 434.76 32.2
-2 4 -18 504.55 36.2
-4 2 18 540.65 35.6
4 -2 18 530.55 32.6
2 -4 18 603.94 38.6
-4 2 18 567.64 37.5
-2 -2 18 587.04 37.8
-2 4 18 543.45 32.3
-2 -2 18 515.95 37.3
-2 4 18 420.56 33.1
2 -4 18 520.45 38
2 2 18 562.94 28.5
-1 4 -18 147.49 21.2
3 1 -18 133.69 19.5
-4 3 -18 176.98 20.4
1 -4 -18 154.98 21.5
-1 4 -18 157.98 22.5
4 -3 -18 159.78 20.2
-3 -1 -18 152.48 17
-3 -1 -18 143.89 16.2
4 -3 -18 152.28 21.1
1 -4 -18 141.69 17.4
3 1 -18 140.09 20.8
-4 3 -18 140.69 19.5
1 -4 18 78.99 15.1
3 1 18 121.29 10
-4 3 18 125.79 18.9
-3 -1 18 112.29 19.3
4 -3 18 120.69 16.2
-1 4 18 111.19 12.7
-4 3 18 107.49 16.6
1 -4 18 113.79 19.9
-3 -1 18 87.09 14.2
4 0 -18 239.48 24.9
0 4 -18 295.07 27.1
4 0 -18 270.37 26.5
4 -4 -18 273.77 26.3
-4 4 -18 261.97 26.1
-4 0 -18 277.57 20.3
0 -4 -18 294.07 22
4 -4 -18 283.37 25.5
-4 4 -18 282.17 27.5
-4 0 -18 258.77 21.4
0 4 -18 265.27 27.9
0 -4 -18 284.67 22.2
-4 4 18 227.68 21.1
0 -4 18 218.58 25.7
0 4 18 230.58 17
4 -4 18 241.78 23.5
4 0 18 232.48 14
0 4 18 239.68 16.4
-4 0 18 238.78 24.9
0 -4 18 247.78 25.8
4 -4 18 257.77 24
4 0 18 248.38 13.9
-4 0 18 275.47 25.2
-4 4 18 235.08 24.3
4 -5 -18 862.41 52.89
1 4 -18 825.72 54.89
-5 1 -18 801.82 48.5
-1 -4 -18 887.51 48
1 4 -18 899.21 54.99
5 -1 -18 827.72 53.29
4 -5 -18 821.42 54.39
-5 1 -18 828.32 50.19
-4 5 -18 960 57.09
5 -1 -18 854.11 52.59
-1 -4 -18 888.21 48.1
-4 5 -18 945.21 55.89
4 -5 18 867.91 54.59
5 -1 18 857.21 45.1
-1 -4 18 971.9 56.89
-5 1 18 818.42 52.89
-4 5 18 901.81 54.39
-1 -4 18 873.71 56.19
-5 1 18 904.41 54.59
5 -2 -18 658.03 42.4
2 3 -18 631.14 44.2
-3 5 -18 739.93 46.8
-2 -3 -18 669.83 36.9
-5 2 -18 564.74 39.6
3 -5 -18 624.74 41.7
3 -5 -18 590.14 44
2 3 -18 644.84 43.6
-3 5 -18 649.54 44.6
-2 -3 -18 684.23 36.7
-5 2 -18 627.84 41
5 -2 -18 640.24 43
-5 2 18 675.73 42.7
-3 5 18 606.44 36.9
-3 5 18 619.64 40.3
3 -5 18 635.04 43
-5 2 18 573.14 40.1
3 -5 18 590.24 43
-2 -3 18 650.83 43
-2 -3 18 577.44 42.5
-3 -2 -18 41.5 7.9
-5 3 -18 44.4 11.2
2 -5 -18 55.59 11.2
5 -3 -18 62.79 13.2
-3 -2 -18 48.3 8.3
-5 3 -18 39.9 11.2
3 2 -18 61.29 15.1
-2 5 -18 57.09 15.1
2 -5 -18 39.1 11.2
5 -3 -18 39.4 13.4
-2 5 -18 33 11.3
3 2 -18 24.6 11.1
-3 -2 18 57.49 14
2 -5 18 54.59 14.9
2 -5 18 38.3 12.3
-2 5 18 46.7 8.4
-5 3 18 53.89 13.1
5 -3 18 40.9 9.3
-3 -2 18 25 10.9
-5 3 18 32.5 11.4
1 -5 -18 137.99 17.8
-1 5 -18 171.38 25.3
4 1 -18 138.19 22.9
-1 5 -18 148.89 23.1
-5 4 -18 124.99 22.7
1 -5 -18 154.28 18.2
4 1 -18 132.49 20.5
-5 4 -18 136.79 20.6
5 -4 -18 120.19 20.6
-4 -1 -18 129.99 13.4
-4 -1 -18 151.18 14.9
5 -4 -18 136.39 22.4
1 -5 18 123.79 19.3
-4 -1 18 104.69 16.3
-1 5 18 126.49 13
1 -5 18 132.59 19
-5 4 18 119.69 18
-5 4 18 139.39 19
5 -4 18 104.49 18.5
-4 -1 18 121.39 21
-5 5 -18 74.19 15
-5 0 -18 80.79 12.3
0 5 -18 81.09 15.8
5 -5 -18 82.99 15.4
5 0 -18 68.29 13.4
-5 5 -18 90.39 17.4
5 0 -18 92.39 17.1
-5 0 -18 89.49 13
5 -5 -18 94.69 16.3
0 -5 -18 104.09 15.4
0 5 -18 104.49 19.1
-5 0 18 58.79 13.4
0 5 18 63.49 9
0 -5 18 67.99 14.4
5 -5 18 47.1 12.7
-5 5 18 60.49 14.4
-5 5 18 61.99 12
0 -5 18 72.29 17.2
-5 0 18 60.09 13.6
6 -1 -18 168.58 25.7
1 5 -18 245.58 29.5
-1 -5 -18 211.08 19.1
6 -1 -18 237.58 24.7
-5 6 -18 283.87 31.6
5 -6 -18 219.78 26.6
-1 -5 -18 223.78 19
-5 6 -18 240.88 28
1 5 -18 231.48 28
5 -6 -18 228.68 25.7
-6 1 -18 220.08 19.2
-6 1 -18 217.18 19.3
-6 1 18 216.68 24.9
-1 -5 18 220.38 26.8
-5 6 18 158.48 17.8
-6 1 18 210.78 24.6
-1 -5 18 204.78 28.5
5 -6 18 215.98 25.3
6 -2 -18 272.27 28.7
-2 -4 -18 300.17 20.3
2 4 -18 319.37 31
4 -6 -18 274.27 28
4 -6 -18 278.77 33.3
2 4 -18 299.67 29.3
-2 -4 -18 314.67 20.7
6 -2 -18 297.67 27.3
-6 2 -18 237.58 23.7
-4 6 -18 296.57 30.8
-4 6 -18 329.37 33.4
-6 2 18 325.67 28.9
6 -2 18 335.07 20.6
-2 -4 18 331.27 32.1
-2 -4 18 361.56 31.8
-4 6 18 299.07 24.7
-6 2 18 338.67 30.7
4 -6 18 334.67 32.7
4 -6 18 351.56 31.6
6 -3 -18 30.5 13.1
3 3 -18 46.8 14.6
-6 3 -18 41.9 12.3
3 -6 -18 40 13.4
-3 6 -18 94.79 17.2
-6 3 -18 37.8 11.2
-3 -3 -18 47.4 7.8
3 -6 -18 55.19 12.7
3 3 -18 37 13.8
6 -3 -18 20.8 11.4
-3 6 -18 69.29 18
-3 -3 -18 68.69 10.2
3 -6 18 39 11.8
-6 3 18 72.79 15.4
-6 3 18 50.39 12.9
-3 -3 18 69.19 16
-3 -3 18 55.19 13.4
-3 6 18 56.19 9.5
3 -6 18 95.99 18.3
6 -4 -18 293.07 29.8
2 -6 -18 307.77 26.7
4 2 -18 281.67 30.9
-2 6 -18 314.87 33.1
-6 4 -18 272.27 28
-4 -2 -18 327.57 19.5
-2 6 -18 323.07 33.6
2 -6 -18 287.07 26
4 2 -18 285.77 28.8
-6 4 -18 335.07 29.9
-4 -2 -18 316.97 20
6 -4 -18 315.17 28.9
2 -6 18 278.57 31.3
-4 -2 18 247.48 26.5
2 -6 18 267.77 33.9
-6 4 18 275.57 28.4
-6 4 18 292.47 26.3
6 -4 18 263.47 24.3
-4 -2 18 255.87 27.8
-2 6 18 278.97 20.4
6 -5 -18 139.99 25.1
-6 5 -18 240.68 28.7
-5 -1 -18 218.98 15.5
-1 6 -18 225.38 27.3
-6 5 -18 193.98 25.2
-1 6 -18 194.28 29.5
5 1 -18 159.28 26.6
-5 -1 -18 202.88 15
5 1 -18 216.08 25
1 -6 -18 217.88 21.4
6 -5 -18 221.98 25.1
1 -6 -18 188.08 21.4
-1 6 18 244.78 17.5
-5 -1 18 195.68 25.8
1 -6 18 260.27 31.5
6 -5 18 232.48 24.9
1 -6 18 248.68 27.4
-5 -1 18 217.38 25.3
-6 5 18 188.48 26.8
-6 5 18 216.08 24.3
6 0 -18 23.9 15.3
6 0 -18 21.5 12.9
6 -6 -18 35.4 13.5
0 -6 -18 45.1 10.3
-6 6 -18 60.89 17.4
6 -6 -18 60.49 16.3
-6 0 -18 38.2 7.6
0 6 -18 69.59 18.3
-6 6 -18 37.4 13.1
0 -6 -18 50.89 11.4
0 6 -18 39.4 14.4
-6 0 18 49 14
0 -6 18 59.89 18.4
-6 6 18 35.7 11.5
0 -6 18 47.8 14.1
-6 0 18 44.4 13.3
6 -6 18 25.5 20.9
1 6 -18 577.04 43
-1 -6 -18 482.15 30.6
1 6 -18 429.46 53.79
7 -1 -18 482.25 39.3
6 -7 -18 429.36 37.9
6 -7 -18 434.76 39.8
7 -1 -18 450.75 47.1
-7 1 -18 446.76 30
-6 7 -18 558.34 42.4
-6 7 -18 529.25 44
6 -7 18 500.75 41.8
-7 1 18 451.75 37.6
-1 -6 18 534.35 39.8
-7 1 18 474.05 37.9
-6 7 18 451.75 34.2
-1 -6 18 548.65 43.4
7 -2 -18 150.58 23.7
2 5 -18 208.78 28.8
5 -7 -18 199.28 24.7
-5 7 -18 237.88 29.1
-5 7 -18 214.58 31.1
2 5 -18 186.08 27.5
-7 2 -18 173.18 19.8
5 -7 -18 172.28 23.5
-2 -5 -18 172.68 15.3
7 -2 -18 164.48 25.7
-5 7 18 140.39 20.6
-2 -5 18 194.88 27.2
5 -7 18 180.38 28.6
-7 2 18 151.98 24
-2 -5 18 172.08 28.6
-7 2 18 148.89 23.3
4 -7 -18 85.29 15.5
-7 3 -18 85.89 13.8
-3 -4 -18 83.79 10.1
4 -7 -18 98.39 18.3
7 -3 -18 79.59 15.6
3 4 -18 87.79 16.3
-4 7 -18 98.09 17.6
3 4 -18 100.79 20
-4 7 -18 103.59 20
7 -3 -18 62.39 16.3
-7 3 -18 92.39 14.7
-3 -4 18 104.89 18.4
-3 -4 18 68.89 17.3
-4 7 18 60.09 10.9
7 -3 18 66.69 9.3
-7 3 18 55.79 14.8
4 -7 18 101.19 27.9
4 -7 18 107.99 20.7
-7 3 18 80.09 16.1
-3 7 -18 1141.79 65.99
4 3 -18 958.1 61.99
7 -4 -18 937.31 60.49
7 -4 -18 997.5 59.89
-7 4 -18 899.41 59.59
3 -7 -18 899.51 58.19
-7 4 -18 944.11 58.69
4 3 -18 928.41 61.59
-3 7 -18 1060.29 63.59
3 -7 -18 971.2 58.49
-7 4 18 886.61 57.69
-7 4 18 967.3 60.89
7 -4 18 877.21 66.09
-4 -3 18 983.3 59.99
-3 7 18 974.7 53.59
3 -7 18 1030.7 61.49
3 -7 18 995 64.59
-4 -3 18 927.61 60.69
5 2 -18 1083.59 72.19
7 -5 -18 1126.99 71.29
-2 7 -18 1332.07 74.09
5 2 -18 1194.88 72.79
2 -7 -18 1174.28 67.69
2 -7 -18 1111.19 67.69
-7 5 -18 1239.58 71.99
-7 5 -18 1199.78 73.19
7 -5 -18 1096.19 69.99
-2 7 -18 1386.96 76.49
-2 7 18 1088.19 59.49
2 -7 18 1154.68 68.49
-5 -2 18 1115.09 66.69
2 -7 18 1165.78 72.19
-7 5 18 1077.89 64.79
7 -5 18 986.6 64.39
-5 -2 18 1108.79 67.39
-7 5 18 1139.09 68.09
6 1 -18 346.77 32.3
-7 6 -18 414.76 37.8
1 -7 -18 342.57 28.7
1 -7 -18 376.26 29.1
6 1 -18 364.36 35.5
-7 6 -18 350.66 34.2
7 -6 -18 417.66 39.3
-1 7 -18 377.66 35.5
-1 7 -18 504.05 40.2
7 -6 -18 344.97 43.2
-6 -1 -18 338.57 20.3
-7 6 18 364.26 31.6
1 -7 18 422.96 40.3
7 -6 18 353.96 33.5
-6 -1 18 351.86 33.7
1 -7 18 369.26 37.5
-1 7 18 376.26 23.2
-6 -1 18 370.76 32.8
0 -7 -18 62.19 16.4
7 0 -18 69.39 15.6
0 -7 -18 80.89 12.7
7 -7 -18 79.49 17.4
7 -7 -18 96.69 20.1
0 7 -18 101.89 20.3
-7 7 -18 80.89 20.3
7 0 -18 71.79 17.2
-7 7 -18 64.29 16.9
0 7 -18 107.69 20.1
-7 0 -18 85.59 10.5
0 -7 18 109.89 22.7
7 -7 18 64.99 17.2
-7 7 18 72.89 14.9
-7 0 18 64.19 16.3
-7 0 18 87.49 17.4
0 -7 18 90.69 18.3
-1 -7 -18 290.47 22.6
8 -1 -18 265.87 32.5
-7 8 -18 329.57 37.7
-8 1 -18 264.57 20.9
7 -8 -18 262.97 33.7
-7 8 -18 334.87 35.3
-1 -7 -18 294.67 22.4
1 7 -18 300.57 35.5
7 -8 -18 270.17 30.5
-7 8 18 231.18 25.7
-8 1 18 268.07 29.9
-1 -7 18 255.67 35.9
-1 -7 18 317.57 32.8
-8 1 18 218.98 29.7
7 -8 18 238.68 31.9
-6 8 -18 217.88 29.9
8 -2 -18 174.78 24.3
6 -8 -18 169.18 25.4
6 -8 -18 179.18 26.2
-2 -6 -18 161.58 14.7
-6 8 -18 182.78 32
-2 -6 -18 165.58 15
2 6 -18 185.08 34.5
-8 2 -18 166.88 20.4
2 6 -18 203.58 30.6
8 -2 -18 179.68 28.2
-8 2 18 148.99 25.5
-8 2 18 162.38 26.1
-2 -6 18 195.28 29
-2 -6 18 194.88 32.2
6 -8 18 208.48 31.9
8 -3 -18 120.09 27.9
-8 3 -18 133.69 20.6
3 5 -18 127.59 20.3
5 -8 -18 161.98 26.9
8 -3 -18 138.39 22
-5 8 -18 197.98 28
-5 8 -18 162.18 28.2
5 -8 -18 107.39 18.8
3 5 -18 147.19 23.1
-5 8 18 136.79 19
-3 -5 18 115.99 20.2
-8 3 18 187.48 30.7
5 -8 18 154.48 24.5
-8 3 18 135.59 20.5
-3 -5 18 173.38 27.8
8 -3 18 148.99 12.7
4 -8 -18 698.63 49.2
4 4 -18 696.43 51.49
8 -4 -18 619.24 49.1
-4 8 -18 813.52 53.59
-8 4 -18 651.33 48.1
4 4 -18 711.93 51.39
-4 8 -18 838.72 61.49
4 -8 -18 721.13 48.2
8 -4 -18 701.63 48.3
-4 8 18 621.04 40.7
-4 -4 18 654.43 49.8
-8 4 18 658.43 47.9
4 -8 18 726.53 55.99
-4 -4 18 726.93 49.2
-8 4 18 649.43 46.1
8 -4 18 654.73 40
-8 5 -18 1542.75 88.09
8 -5 -18 1412.76 85.69
8 -5 -18 1386.76 86.69
3 -8 -18 1374.96 83.89
-3 8 -18 1695.63 91.89
-3 8 -18 1688.43 90.29
5 3 -18 1461.05 88.39
3 -8 -18 1438.16 84.19
-8 5 18 1471.35 87.39
3 -8 18 1585.14 92.29
-3 8 18 1323.07 87.69
-5 -3 18 1442.76 86.79
-5 -3 18 1499.65 86.29
3 -8 18 1700.23 89.59
-8 5 18 1419.16 84.19
-8 6 -18 1015.2 63.59
2 -8 -18 806.62 54.99
-2 8 -18 1087.59 64.79
-8 6 -18 914.21 60.19
-2 8 -18 1018.8 62.69
8 -6 -18 799.62 58.19
6 2 -18 864.61 60.59
2 -8 -18 869.71 55.69
8 -6 18 682.93 50.59
2 -8 18 891.61 55.19
-6 -2 18 732.63 51.89
-6 -2 18 783.82 54.99
-8 6 18 751.52 51.09
2 -8 18 868.21 60.09
-2 8 18 777.72 44.3
-1 8 -18 80.79 20.1
-8 7 -18 73.79 19
-1 8 -18 98.29 19.8
-8 7 -18 49.9 17.8
8 -7 -18 72.29 16.5
8 -7 -18 80.09 20.8
7 1 -18 98.39 20.9
1 -8 -18 94.29 14.6
1 -8 -18 42.2 17.6
-8 7 18 57.59 15.5
1 -8 18 55.29 15.5
8 -7 18 83.59 16.8
-7 -1 18 60.79 16.7
1 -8 18 57.89 18.9
-7 -1 18 65.99 16.2
-1 8 18 96.29 10.7
-8 8 -18 37.6 16.9
0 -8 -18 49.2 11.3
0 8 -18 57.19 19.1
8 0 -18 56.99 17.8
8 -8 -18 40.6 19.9
8 -8 -18 53.39 15.8
-8 8 -18 28.9 16.9
0 -8 -18 51.89 12.1
-8 8 18 57.49 14.7
0 -8 18 55.29 20
0 -8 18 60.09 22.4
8 -8 18 55.29 17.3
-8 0 18 62.29 16.7
-8 0 18 74.59 16.3
8 -9 -18 324.87 35.8
8 -9 -18 264.77 38.4
-8 9 -18 312.97 38.3
-1 -8 -18 342.67 30.1
1 8 -18 404.06 39.1
9 -1 -18 309.97 35.6
-8 9 -18 330.27 42.8
-9 1 -18 306.47 23.5
-9 1 -18 334.67 22.2
-1 -8 -18 288.67 23.6
-8 9 18 267.87 29.3
-1 -8 18 324.67 41.2
-9 1 18 286.27 31.6
8 -9 18 335.67 38.5
-1 -8 18 315.27 34.2
-9 1 18 283.87 32.7
-9 2 -18 287.97 27.5
9 -2 -18 240.78 33.4
2 7 -18 306.07 36.5
7 -9 -18 265.47 32
-7 9 -18 349.17 41
-7 9 -18 279.87 49
-2 -7 -18 302.87 19.9
7 -9 -18 333.77 37.3
-2 -7 -18 297.17 19.8
-9 2 18 289.77 32.4
-7 9 18 233.08 25.8
-2 -7 18 279.47 37.9
-2 -7 18 279.67 32.9
7 -9 18 241.18 35.2
-9 2 18 278.97 30.6
3 6 -18 42.7 17
6 -9 -18 55.99 15.2
9 -3 -18 44.7 18.1
-6 9 -18 38 18.4
6 -9 -18 47.2 19.3
-9 3 -18 9.8 14.7
-6 9 -18 47.2 22.3
-9 3 -18 32.5 12.2
-3 -6 18 21.1 17.4
-3 -6 18 19.7 14.8
-9 3 18 9 14.1
-6 9 18 11.5 10.1
-9 3 18 15.6 13.6
6 -9 18 10.9 15.4
-5 9 -18 247.98 36.3
5 -9 -18 133.89 20.4
9 -4 -18 133.39 22.6
5 -9 -18 201.98 29.7
-5 9 -18 186.78 29.9
-9 4 -18 161.48 24.9
4 5 -18 142.19 22.7
9 -4 -18 160.38 26.5
-9 4 18 178.28 27.2
-4 -5 18 182.98 25.8
-4 -5 18 177.78 28.3
9 -4 18 148.29 15.9
-9 4 18 134.29 21.4
-5 9 18 140.99 19.9
5 -9 18 190.68 28.8
9 -5 -18 715.53 50.59
9 -5 -18 676.93 52.69
-9 5 -18 733.73 52.39
4 -9 -18 705.33 51.59
-4 9 -18 845.52 56.59
5 4 -18 688.93 54.09
4 -9 -18 751.72 50.39
-4 9 18 670.33 42.8
9 -5 18 628.44 43.2
-5 -4 18 694.23 50.39
4 -9 18 844.32 58.59
-9 5 18 654.43 48.7
-5 -4 18 743.13 52.79
-9 6 -18 729.83 53.19
9 -6 -18 675.03 49.7
-3 9 -18 785.72 54.29
9 -6 -18 501.35 58.19
-3 9 -18 768.72 55.89
3 -9 -18 665.23 47.2
-9 6 18 615.84 47.2
3 -9 18 763.02 56.89
-3 9 18 651.43 40.6
-6 -3 18 714.23 49
-6 -3 18 630.04 50.49
9 -6 18 624.14 52.99
7 2 -18 315.87 36.8
2 -9 -18 285.07 32.2
-2 9 -18 384.86 41
2 -9 -18 286.97 29.5
-9 7 -18 354.46 38.9
9 -7 -18 274.07 34.7
9 -7 -18 333.47 38.2
-7 -2 18 258.37 31.7
-9 7 18 273.07 30.9
2 -9 18 389.56 42.4
-2 9 18 283.47 28.1
9 -7 18 242.88 30.6
-7 -2 18 307.37 34.5
2 -9 18 328.47 34.3
1 -9 -18 6.5 10.9
9 -8 -18 17.9 18.1
9 -8 -18 -0.7 14.2
8 1 -18 0.5 16.1
-1 9 -18 6.5 17.7
1 -9 -18 3.9 10.4
-9 8 -18 14.5 18.8
-8 -1 18 3.4 11.9
9 -8 18 21.3 14
-9 8 18 8.1 13.6
1 -9 18 19.6 13.7
1 -9 18 3.2 17.3
-8 -1 18 6.3 14.8
7 -10 -18 55.89 34.5
10 -3 -18 95.19 21.8
10 -4 -18 -7.7 14.9
6 -10 -18 20.9 21.6
6 -10 -18 11.7 12.5
-6 10 -18 5.1 15.2
-10 4 -18 10.1 15.2
-10 4 -18 20.9 13.2
-6 10 -18 34.2 20
-4 -6 18 5.2 14.8
-6 10 18 20.7 10.6
-4 -6 18 4 18.4
-10 4 18 11.2 13.4
-10 4 18 30 16.1
6 -10 18 6 17
-5 10 -18 1.3 17.8
5 -10 -18 20.8 24.2
-10 5 -18 8.9 13.7
10 -5 -18 21.7 16.5
-5 10 -18 20.8 19.1
5 -10 -18 20.6 13.4
5 5 -18 49.5 20.7
-10 5 -18 0.4 18.6
-5 -5 18 9.7 14.2
-10 5 18 1.1 15
-5 -5 18 29.6 17.2
-5 10 18 20.4 11.2
5 -10 18 35 17.7
10 -5 18 9.2 8.6
6 4 -18 12.6 17.2
-4 10 -18 39.7 17.5
10 -6 -18 20 17.8
4 -10 -18 30.4 14.6
-10 6 -18 44 17.6
-10 6 -18 12.2 20.6
4 -10 -18 12.8 18
-4 10 -18 21 19.6
4 -10 18 28.8 17.4
-6 -4 18 12.6 15.8
-10 6 18 22.2 15.2
10 -6 18 9 11.4
-4 10 18 12.6 10
-6 -4 18 28 19.4
10 -7 -18 26.6 17.8
7 3 -18 27.7 18.7
-10 7 -18 5.7 22.5
0 0 -19 22.7 8.4
0 0 19 85.29 13.9
0 0 19 55.09 13
-1 0 -19 629.84 38.8
1 -1 -19 618.94 39.4
-1 0 -19 641.54 38.9
1 0 -19 687.63 40.4
-1 1 -19 692.53 40.2
0 1 -19 593.04 39.8
0 1 -19 625.54 39.9
-1 1 -19 582.34 39.4
1 0 -19 638.14 40.3
0 -1 -19 640.34 39
1 -1 -19 623.84 39.6
0 -1 -19 643.74 38.9
1 -1 19 576.94 44.4
1 -1 19 613.34 36.4
1 0 19 486.75 36.1
-1 0 19 632.34 38.7
0 1 19 590.64 34.5
0 1 19 598.14 37.1
1 0 19 591.74 34.7
0 -1 19 637.34 39.3
-1 1 19 560.24 40.6
-1 0 19 548.15 35.5
1 1 -19 896.21 54.69
1 -2 -19 934.31 53.09
2 -1 -19 913.91 54.09
-2 1 -19 932.11 53.89
1 -2 -19 912.31 53.19
-2 1 -19 899.71 52.79
-1 2 -19 931.11 54.69
-1 2 -19 955.9 55.09
2 -1 -19 917.81 53.99
-1 -1 -19 983.8 52.49
1 1 -19 943.91 54.69
-1 -1 -19 899.21 51.79
2 -1 19 975.1 54.39
-2 1 19 1009.5 57.29
-1 2 19 973.9 53.79
-1 2 19 979.6 55.79
-1 -1 19 963.5 56.49
1 1 19 1002.1 52.69
-1 -1 19 1021 57.99
-2 1 19 983.1 55.59
1 -2 19 958.8 62.09
0 -2 -19 1389.76 72.79
-2 2 -19 1334.17 74.99
2 -2 -19 1375.56 74.19
0 2 -19 1281.47 75.09
0 2 -19 1344.97 74.89
-2 0 -19 1373.96 73.09
2 0 -19 1328.37 74.59
-2 2 -19 1352.26 74.69
2 -2 -19 1376.46 73.99
0 -2 -19 1341.77 72.49
2 0 -19 1386.26 74.59
-2 0 -19 1281.07 71.99
-2 0 19 1310.07 72.19
-2 2 19 1389.26 73.19
-2 0 19 1209.78 70.49
2 -2 19 1289.47 70.49
0 2 19 1285.07 67.39
0 -2 19 1470.75 74.49
-2 2 19 1210.28 70.59
0 -2 19 1231.18 71.59
2 -2 19 1219.08 71.69
2 0 19 1296.47 67.39
2 -3 -19 635.64 38.6
3 -1 -19 626.74 39.3
-2 3 -19 655.33 41.2
-2 3 -19 565.54 40.2
-3 1 -19 515.45 39.3
1 2 -19 581.24 39.7
1 2 -19 598.54 40.5
3 -1 -19 561.04 39.3
-1 -2 -19 538.25 40.7
-1 -2 -19 620.64 36.2
-3 1 -19 597.84 38.7
2 -3 -19 592.54 38.7
1 2 19 626.14 34.5
2 -3 19 654.93 42
-3 1 19 588.34 39.4
-3 1 19 679.53 41.6
-2 3 19 635.74 39.7
1 2 19 558.34 36.2
-1 -2 19 651.63 42.6
-2 3 19 628.44 37.3
-1 -2 19 615.74 41.1
3 -1 19 650.53 36.4
-1 3 -19 644.54 43.5
1 -3 -19 665.73 41.3
1 -3 -19 662.53 40.8
-2 -1 -19 699.93 39.8
2 1 -19 662.53 43.6
-1 3 -19 637.14 44
3 -2 -19 718.03 42.8
-2 -1 -19 576.04 43.8
-3 2 -19 648.54 41.8
2 1 -19 718.43 43.5
3 -2 -19 691.33 42.8
-3 2 -19 665.63 43.4
2 1 19 594.94 34.1
3 -2 19 586.54 36.5
-1 3 19 605.34 34.7
1 -3 19 618.84 44.7
-3 2 19 587.54 37.4
-2 -1 19 602.44 40.1
-3 2 19 571.54 49
-2 -1 19 572.34 39.1
1 -3 19 598.14 39.9
0 3 -19 415.26 32.5
0 -3 -19 438.76 28.7
3 0 -19 432.56 32
0 -3 -19 449.46 30.1
3 0 -19 364.76 31.9
-3 0 -19 390.06 28
3 -3 -19 446.56 32
-3 3 -19 425.76 32.8
3 -3 -19 439.96 31.4
0 3 -19 441.46 33.8
-3 0 -19 400.56 29.3
-3 3 -19 391.46 31.7
3 0 19 396.36 22.9
0 3 19 387.36 23.5
3 -3 19 330.77 28.6
3 0 19 380.26 23.4
-3 0 19 353.56 29
-3 0 19 391.36 30.5
0 -3 19 354.86 30.6
-3 3 19 418.16 30.1
0 -3 19 395.96 32
3 -3 19 379.46 28.7
-4 1 -19 65.89 11.9
3 -4 -19 64.79 14.7
1 3 -19 73.89 15.1
3 -4 -19 57.79 16.9
-3 4 -19 42.8 12.1
1 3 -19 78.89 15.7
-1 -3 -19 83.99 14.6
-3 4 -19 87.99 16
-4 1 -19 75.89 11.2
4 -1 -19 71.99 13
4 -1 -19 73.49 14.5
-1 -3 -19 66.39 10.4
3 -4 19 46.1 12.8
-4 1 19 29.3 11.5
-1 -3 19 51.89 12.9
1 3 19 51.99 8.3
4 -1 19 22.5 7.4
-3 4 19 49.7 9.5
-4 1 19 38.3 11
-1 -3 19 48.5 13.5
4 -1 19 54.59 7.5
1 3 19 33.5 6
-3 4 19 43.2 11.4
2 2 -19 171.08 23.1
2 -4 -19 172.58 20
-2 4 -19 154.58 23
-4 2 -19 193.88 21
-4 2 -19 172.08 19.4
4 -2 -19 176.38 21.8
4 -2 -19 168.28 22.4
-2 -2 -19 150.48 23
-2 -2 -19 156.98 16.4
2 2 -19 150.58 21.6
-2 4 -19 137.59 22.4
2 -4 -19 145.69 21.3
2 -4 19 171.08 22.1
2 -4 19 146.99 21.6
-2 4 19 165.28 16.4
2 2 19 154.98 11.8
4 -2 19 169.08 16.6
2 2 19 170.18 11.6
-2 -2 19 164.18 22
-2 -2 19 167.88 22.1
-4 2 19 181.18 26.3
-4 2 19 147.89 19.8
4 -3 -19 33.9 13.3
1 -4 -19 20.5 9
-4 3 -19 3.5 9.1
-1 4 -19 10 10.5
-1 4 -19 34.8 13.8
-4 3 -19 9.2 9.6
-3 -1 -19 7.6 7.3
4 -3 -19 12.8 9.5
3 1 -19 13.2 12.2
3 1 -19 8.8 11.9
1 -4 -19 19.9 9.7
-3 -1 -19 14 8
-1 4 19 6.2 6.1
-3 -1 19 17.7 11.3
3 1 19 15.3 3.8
1 -4 19 27.4 11.8
-3 -1 19 11.2 10.4
1 -4 19 12.7 16.3
-4 3 19 6.2 10.2
-4 3 19 18.6 9.9
4 -3 19 15.3 8.4
-4 4 -19 11.3 11.3
4 0 -19 0 9.9
-4 0 -19 -0.7 7.1
4 0 -19 -2.3 11.8
0 -4 -19 8.8 7.9
4 -4 -19 2.7 9.8
-4 4 -19 8.2 9.9
0 4 -19 0.8 11
-4 0 -19 2.4 7.2
0 4 -19 -1.9 10.7
0 -4 -19 12.4 8.9
4 -4 -19 6.1 11.6
0 -4 19 8.3 10.4
4 -4 19 12.2 9.7
4 -4 19 5.3 12.8
-4 4 19 0.4 9.6
0 4 19 1.5 5.2
-4 0 19 -1.5 9.2
4 0 19 5 3.6
-4 4 19 19.5 8.8
4 0 19 15.4 3.5
0 -4 19 6.9 11.4
-4 0 19 -2 9
-4 5 -19 199.48 25.4
4 -5 -19 167.18 22.5
1 4 -19 158.18 26
-5 1 -19 185.48 18.4
5 -1 -19 180.58 24.6
1 4 -19 193.08 25.8
-1 -4 -19 187.98 17.6
-5 1 -19 191.08 19.7
-1 -4 -19 202.88 18.4
5 -1 -19 174.38 22.8
-4 5 -19 191.98 27.6
4 -5 -19 200.08 23.6
-1 -4 19 119.59 19.2
-5 1 19 145.19 22.9
-5 1 19 175.48 21.9
-1 -4 19 185.18 25.4
-4 5 19 107.39 17.6
5 -1 19 165.78 11.4
-3 5 -19 431.76 34.3
3 -5 -19 382.16 31.5
-5 2 -19 342.87 29.6
-3 5 -19 464.95 37
2 3 -19 401.36 34.3
-5 2 -19 354.56 28.8
-2 -3 -19 424.56 26
2 3 -19 388.46 33.1
5 -2 -19 369.36 32
3 -5 -19 354.36 30.6
5 -2 -19 411.56 32.5
-2 -3 -19 441.86 26.3
-5 2 19 394.96 32.5
3 -5 19 380.96 34.8
-5 2 19 474.55 37
-2 -3 19 438.96 35.7
-3 5 19 451.75 29.1
3 -5 19 438.56 35
-2 -3 19 495.05 36.2
5 -2 19 417.56 27
-5 3 -19 242.48 26.1
5 -3 -19 322.17 28.6
-5 3 -19 307.57 27.5
5 -3 -19 293.47 28.8
3 2 -19 292.87 28.2
-2 5 -19 335.57 30.5
2 -5 -19 347.27 27.1
-3 -2 -19 287.57 22
-3 -2 -19 293.37 21.2
2 -5 -19 321.47 26.9
3 2 -19 296.17 30.1
-2 5 -19 354.26 32.7
-5 3 19 290.67 26.1
-2 5 19 280.27 21.1
-3 -2 19 294.47 28.2
-3 -2 19 296.07 28.3
2 -5 19 272.67 29.6
5 -3 19 275.07 23
-5 3 19 287.57 27.8
2 -5 19 330.87 29
-1 5 -19 440.16 37.2
4 1 -19 393.26 32.6
5 -4 -19 426.66 33.1
-1 5 -19 431.46 36.2
-4 -1 -19 384.46 26.8
1 -5 -19 411.06 30
-5 4 -19 385.56 33.2
-5 4 -19 412.96 34.3
1 -5 -19 415.16 29.6
4 1 -19 398.26 34.5
-4 -1 -19 396.06 25.5
5 -4 -19 396.66 33.5
1 -5 19 360.86 41.7
-5 4 19 363.56 33.3
-1 5 19 448.56 30.6
-4 -1 19 400.16 32.8
5 -4 19 427.76 31.6
-4 -1 19 424.16 33.5
1 -5 19 399.66 35.7
-5 4 19 430.36 31.3
0 5 -19 633.44 44.9
5 -5 -19 562.74 40.6
-5 0 -19 554.44 34.6
-5 5 -19 638.64 44.4
0 5 -19 584.64 43.3
5 0 -19 558.84 40.5
-5 0 -19 556.94 33.6
0 -5 -19 551.84 36
5 0 -19 479.65 40.9
0 -5 -19 595.94 36
5 -5 -19 585.04 42.1
-5 5 -19 571.34 43.9
-5 0 19 624.34 42.8
0 -5 19 677.13 44.3
0 5 19 593.84 33
-5 0 19 571.84 41.7
5 -5 19 606.34 42.7
0 -5 19 592.24 45.3
-5 5 19 600.24 39.2
5 -6 -19 49.9 13.9
-5 6 -19 57.89 15.6
1 5 -19 47.3 14.7
5 -6 -19 54.69 16
-5 6 -19 45.6 16.4
-1 -5 -19 38.9 10.3
6 -1 -19 32.9 15.4
-1 -5 -19 50.09 9.4
1 5 -19 28.3 16.6
-6 1 -19 61.49 10.5
-6 1 -19 42 9.7
6 -1 -19 23.8 12
5 -6 19 27 9.3
-1 -5 19 32.6 15.5
-1 -5 19 37.7 14.6
-6 1 19 34 12.8
-6 1 19 33.2 11.8
4 -6 -19 302.47 29.9
2 4 -19 315.67 32.8
-2 -4 -19 343.17 22.7
-2 -4 -19 346.97 22.7
-4 6 -19 396.66 36.3
-6 2 -19 295.57 26.2
-6 2 -19 342.07 26.6
4 -6 -19 314.57 30.8
-4 6 -19 361.46 33.1
6 -2 -19 304.77 31.2
2 4 -19 329.17 31.6
6 -2 -19 327.87 29.9
-2 -4 19 359.06 32.2
-6 2 19 296.07 28.6
4 -6 19 299.77 32
-4 6 19 302.27 24.6
6 -2 19 314.97 20
-2 -4 19 347.87 33
-6 2 19 310.87 33.2
3 3 -19 587.44 43.3
-3 6 -19 604.64 42.9
3 3 -19 538.85 41.2
-6 3 -19 460.65 37.7
3 -6 -19 552.44 39.3
6 -3 -19 591.14 40.7
-3 -3 -19 588.24 32.1
6 -3 -19 543.65 41.1
-3 -3 -19 561.44 32.8
-3 6 -19 644.84 46.1
3 -6 -19 562.14 39.6
-6 3 -19 551.64 38.8
-6 3 19 464.15 36.5
6 -3 19 448.76 29.7
-6 3 19 422.16 35.9
-3 6 19 436.36 29.7
3 -6 19 501.55 39.9
-3 -3 19 509.25 37.2
3 -6 19 466.95 37.5
-3 -3 19 457.35 37.7
-4 -2 -19 790.02 42.6
6 -4 -19 761.12 50.39
6 -4 -19 690.83 50.59
2 -6 -19 799.72 48.4
2 -6 -19 785.32 48.6
-6 4 -19 780.92 50.79
-6 4 -19 712.43 50.89
-4 -2 -19 796.22 41.7
4 2 -19 718.83 52.29
-2 6 -19 838.72 53.29
4 2 -19 760.72 50.59
-2 6 -19 848.82 55.49
-4 -2 19 640.24 42.8
2 -6 19 544.25 45.1
6 -4 19 558.84 38.3
-2 6 19 567.04 34.6
-6 4 19 633.24 43.2
2 -6 19 641.24 43.6
-6 4 19 538.15 39.5
-4 -2 19 551.44 42.5
5 1 -19 1347.57 81.59
-1 6 -19 1618.14 85.39
-5 -1 -19 1401.86 72.29
-6 5 -19 1302.57 81.29
1 -6 -19 1302.47 76.79
6 -5 -19 1381.16 80.49
-5 -1 -19 1346.07 71.49
-1 6 -19 1475.15 83.29
-6 5 -19 1502.85 83.89
1 -6 -19 1407.76 76.69
5 1 -19 1381.46 80.19
-6 5 19 1209.58 70.89
-5 -1 19 1275.67 73.69
1 -6 19 1336.97 78.19
1 -6 19 1390.86 75.29
-5 -1 19 1182.88 72.79
-1 6 19 1212.48 65.19
6 -5 19 1169.68 72.29
0 6 -19 680.93 48.9
0 -6 -19 642.44 40.1
-6 0 -19 635.44 36.7
6 -6 -19 633.84 46.2
6 -6 -19 616.64 46.4
6 0 -19 613.94 46.8
-6 6 -19 746.83 51.09
6 0 -19 619.04 45.1
-6 6 -19 671.43 48.3
0 -6 -19 641.64 40.6
-6 0 -19 660.13 37.3
0 6 -19 746.93 50.89
-6 6 19 639.94 43
6 -6 19 591.14 46
-6 0 19 652.03 46.2
-6 0 19 665.33 46
0 -6 19 726.23 51.09
0 -6 19 708.33 56.19
6 -7 -19 54.89 15.4
1 6 -19 48.8 17.4
-6 7 -19 58.09 16
-6 7 -19 48 19.2
7 -1 -19 59.19 14.9
1 6 -19 29.9 14.7
-1 -6 -19 43.4 13.3
-1 -6 -19 42.2 9.7
6 -7 -19 18.5 16.6
-7 1 -19 60.19 10.2
-1 -6 19 74.49 16.9
6 -7 19 83.19 16.7
-7 1 19 37.6 14.6
-1 -6 19 34.3 16.1
-7 1 19 33.8 14.7
-6 7 19 44.8 11.9
5 -7 -19 324.17 32.4
7 -2 -19 340.87 31.9
-2 -5 -19 345.57 23.4
-7 2 -19 365.96 28.5
7 -2 -19 298.87 33.5
-5 7 -19 409.76 36.3
2 5 -19 364.46 36.6
-5 7 -19 422.86 39.2
-7 2 -19 397.76 27.8
5 -7 -19 369.26 35.2
-5 7 19 380.76 28.9
-2 -5 19 362.16 37.1
5 -7 19 419.26 38
-2 -5 19 440.76 36.8
-7 2 19 344.07 46
-7 2 19 304.57 31.9
-3 -4 -19 962.1 52.39
3 4 -19 1098.69 66.19
7 -3 -19 1053.09 61.89
-7 3 -19 876.41 59.29
4 -7 -19 975.3 61.59
7 -3 -19 894.91 62.19
-4 7 -19 1212.88 69.19
-3 -4 -19 992.8 52.69
3 4 -19 884.61 75.29
4 -7 -19 1037.7 62.79
-4 7 -19 1189.18 66.89
-4 7 19 926.21 53.29
-3 -4 19 957.3 61.79
-7 3 19 858.21 57.19
4 -7 19 995.8 64.19
-7 3 19 948.51 59.49
7 -3 19 886.61 50.29
-3 -4 19 1010.6 61.19
4 3 -19 509.25 47
7 -4 -19 586.34 41.8
7 -4 -19 443.76 41.6
3 -7 -19 575.04 40.4
-3 7 -19 672.73 49
-7 4 -19 512.75 41
4 3 -19 533.15 44.7
-3 7 -19 634.64 45.4
3 -7 -19 589.54 40.7
-7 4 -19 602.74 40.8
-4 -3 19 562.94 43.6
7 -4 19 571.44 36.8
3 -7 19 634.04 47.7
-7 4 19 549.95 42.5
-3 7 19 552.64 35
-7 4 19 477.85 39.8
-4 -3 19 604.64 42.5
-2 7 -19 724.83 49.6
7 -5 -19 605.24 51.29
5 2 -19 674.93 46.5
7 -5 -19 645.74 46.8
2 -7 -19 612.54 43.3
5 2 -19 648.94 49.3
-7 5 -19 627.24 46.5
-2 7 -19 820.82 52.99
-7 5 -19 677.83 48.6
-5 -2 -19 604.94 33.8
2 -7 -19 685.43 43.5
7 -5 19 628.24 43.7
-5 -2 19 662.03 46.5
2 -7 19 706.53 52.19
-2 7 19 623.84 38.1
2 -7 19 715.63 48.5
-7 5 19 659.53 44.7
-5 -2 19 599.64 46.6
6 1 -19 503.75 40
1 -7 -19 512.95 35.7
-1 7 -19 581.64 45.8
1 -7 -19 511.55 36.3
-7 6 -19 576.44 44.6
-6 -1 -19 487.05 27.7
7 -6 -19 496.55 41.9
7 -6 -19 469.45 57.79
-1 7 -19 565.14 43.2
-7 6 -19 519.15 42.1
-6 -1 19 466.75 39.8
-6 -1 19 491.35 38.9
1 -7 19 549.95 41.2
-1 7 19 503.85 28.9
-7 6 19 484.25 37.2
1 -7 19 558.54 46.3
7 -6 19 429.06 37.6
0 7 -19 416.16 40.2
0 -7 -19 359.36 27.6
7 0 -19 327.77 40.3
7 0 -19 375.66 36.4
-7 7 -19 365.56 38.8
0 7 -19 452.35 38.3
-7 0 -19 357.06 22.3
7 -7 -19 365.66 34.2
7 -7 -19 274.67 36.1
-7 7 -19 373.06 37.3
7 -7 19 366.56 36
0 -7 19 376.16 35.7
0 -7 19 438.96 41.4
-7 0 19 410.16 36
-7 7 19 354.56 31.3
-7 0 19 340.37 35
1 7 -19 86.39 19.5
7 -8 -19 76.19 21.4
-1 -7 -19 83.09 11.6
-7 8 -19 80.69 19.1
7 -8 -19 66.89 16.7
-1 -7 -19 91.49 15.7
-7 8 -19 130.09 25.6
-8 1 -19 73.69 13.4
8 -1 -19 74.89 19.2
-8 1 19 53.29 19.1
7 -8 19 83.59 18.3
-1 -7 19 81.59 22.1
-1 -7 19 91.39 29.9
-7 8 19 74.59 15
-8 1 19 72.29 15.2
2 6 -19 88.79 19.7
-6 8 -19 136.19 26.1
-6 8 -19 164.48 25
-2 -6 -19 121.99 13.5
8 -2 -19 152.38 24
8 -2 -19 109.19 21.1
-8 2 -19 122.69 18.5
6 -8 -19 125.59 20.6
6 -8 -19 158.68 24.8
-2 -6 19 186.58 29
-8 2 19 146.19 21.5
6 -8 19 173.48 30.2
-8 2 19 148.49 26.7
-2 -6 19 141.49 23.3
5 -8 -19 602.24 45.8
-8 3 -19 493.95 39.4
3 5 -19 598.14 47.6
8 -3 -19 557.44 44.8
5 -8 -19 517.45 48.8
-5 8 -19 708.73 52.09
8 -3 -19 533.65 43.3
-5 8 -19 711.93 49
-3 -5 19 610.74 49.4
-3 -5 19 652.73 48.6
-5 8 19 540.55 38.8
-8 3 19 628.54 45.6
-8 3 19 612.34 44.8
5 -8 19 663.73 51.29
4 -8 -19 518.25 42.4
4 4 -19 555.14 47.1
-8 4 -19 570.54 42.5
4 -8 -19 615.84 44.3
-4 8 -19 736.93 51.99
-4 8 -19 631.14 47.4
8 -4 -19 545.45 44.3
8 -4 -19 560.54 43.4
-4 -4 19 595.14 44.4
8 -4 19 513.25 34.1
-4 -4 19 613.54 46.5
-8 4 19 510.25 42.2
-4 8 19 527.35 35.7
-8 4 19 541.25 41.4
4 -8 19 623.14 66.59
-8 5 -19 9 13.2
-3 8 -19 38.7 16.6
8 -5 -19 28.6 16.9
3 -8 -19 10.7 11.7
8 -5 -19 4.8 13.3
-3 8 -19 36.6 19.1
5 3 -19 25 17.8
3 -8 -19 17 14.8
-8 5 -19 17.9 12.7
-3 8 19 22.1 8.8
-5 -3 19 4.6 12.2
3 -8 19 25.7 16.8
-8 5 19 -10.6 11.7
-5 -3 19 19.9 15.8
8 -5 19 17 9.7
-8 6 -19 182.38 30.8
-2 8 -19 218.28 30
8 -6 -19 131.49 23.4
-8 6 -19 164.38 27.7
-2 8 -19 185.18 33
6 2 -19 128.59 23.1
8 -6 -19 172.78 23.9
2 -8 -19 169.28 23.2
8 -6 19 110.59 18
-2 8 19 125.69 15.4
-8 6 19 153.38 25.3
-6 -2 19 155.78 22.1
2 -8 19 155.58 25.1
2 -8 19 182.18 35.9
1 -8 -19 412.96 32.2
-8 7 -19 290.97 45.2
-8 7 -19 438.16 41.9
-1 8 -19 466.65 41.5
8 -7 -19 382.76 37.3
7 1 -19 387.96 38.4
-1 8 -19 459.65 43.1
8 -7 -19 374.26 40.7
8 -7 19 357.76 35.4
1 -8 19 402.96 36.8
-7 -1 19 358.56 36
-8 7 19 321.57 32.9
1 -8 19 454.45 44.4
-7 -1 19 373.26 34.9
-8 8 -19 52.29 19.8
0 -8 -19 60.29 12.6
0 -8 -19 61.59 12.6
8 -8 -19 81.19 22
-8 8 -19 52.09 18.3
8 -8 -19 33.1 15.6
0 8 -19 46.3 18.5
8 0 -19 49.9 19.5
-8 0 19 65.09 18.4
-8 8 19 57.59 14.7
8 -8 19 42 20.9
-8 0 19 49 16.6
0 -8 19 71.49 17.7
9 -1 -19 5.4 17.6
8 -9 -19 -8.6 19.2
-9 1 -19 13.8 8.4
-9 2 -19 14 9.3
2 7 -19 12.7 16.2
-2 -7 -19 17.3 6.7
-7 9 -19 13.1 18.9
-9 2 -19 3.2 11.8
7 -9 -19 7.9 19
7 -9 -19 -4.3 12.2
9 -2 -19 14.9 16.1
-7 9 -19 44.8 31.1
-2 -7 -19 16.6 6.3
-2 -7 19 18.9 19.1
-2 -7 19 0.6 12.9
-9 2 19 13 12.8
7 -9 19 6 16.2
-9 2 19 4.7 14.7
9 -3 -19 120.39 21.9
6 -9 -19 219.18 32.9
-9 3 -19 152.18 22.7
6 -9 -19 150.08 27.1
-6 9 -19 157.78 26.1
3 6 -19 159.38 24.9
-6 9 -19 166.88 26.8
6 -9 19 132.19 23.8
-6 9 19 118.89 20.6
-3 -6 19 190.38 30.2
-9 3 19 132.69 20.4
-3 -6 19 147.39 24
-9 3 19 196.68 26.4
9 -4 -19 393.66 38.5
-5 9 -19 469.55 45.2
5 -9 -19 362.56 35.3
5 -9 -19 439.16 39.5
-5 9 -19 479.95 42.1
9 -4 -19 362.86 36.3
4 5 -19 417.06 40.8
-9 4 -19 352.86 38.2
-4 -5 19 412.76 41
-4 -5 19 450.25 39.5
-9 4 19 347.17 35.5
-5 9 19 329.37 28.9
5 -9 19 399.36 42.9
4 -9 -19 240.68 29.3
-4 9 -19 356.86 40.4
4 -9 -19 258.97 38.4
5 4 -19 274.67 36.2
9 -5 -19 237.18 31
9 -5 -19 270.67 34.1
-9 5 -19 235.68 38.8
-4 9 -19 296.67 35.7
-5 -4 19 163.78 28.9
4 -9 19 194.58 34.2
-9 5 19 153.68 27.8
-5 -4 19 184.68 31.8
9 -5 19 169.68 20.3
-4 9 19 163.08 26.4
9 -6 -19 331.67 36.2
9 -6 -19 344.77 38.7
-9 6 -19 308.97 45.4
3 -9 -19 329.57 31.8
-3 9 -19 350.76 38
-3 9 -19 306.37 49
-6 -3 19 299.57 32.2
-9 6 19 281.37 32.2
9 -6 19 228.68 27.2
3 -9 19 305.57 40.1
-3 9 19 273.17 23.6
-6 -3 19 271.37 35.1
9 -7 -19 379.36 42.4
7 2 -19 436.46 41.3
2 -9 -19 311.07 33.6
-9 7 -19 469.85 46
2 -9 -19 477.95 35.5
9 -7 -19 441.46 40
-2 9 -19 493.85 45.5
-7 -2 19 441.36 41.9
2 -9 19 543.05 49.6
9 -7 19 500.25 39.9
-7 -2 19 444.76 39.6
-2 9 19 446.86 31
-9 7 19 423.56 38.9
9 -8 -19 206.88 36.3
8 1 -19 197.38 32.1
10 -5 -19 153.88 24.7
5 -10 -19 126.09 29.1
-10 5 -19 76.39 28.5
0 0 -20 12 8.1
0 0 -20 1.7 8.1
0 0 20 18.4 9
0 0 20 -3.9 6.3
-1 1 -20 6.9 8.4
0 -1 -20 16.1 8.8
0 1 -20 0.6 8.3
1 -1 -20 12 8.2
1 0 -20 16.9 8.2
-1 0 -20 2.4 7.6
0 -1 -20 0.8 8.5
-1 1 -20 5.9 7.7
0 1 -20 22.1 10.9
-1 0 -20 15.9 9.1
1 -1 -20 2.1 8.4
1 0 -20 18.9 9.4
0 1 20 7.5 6.8
0 1 20 11 6.8
1 -1 20 7.7 9
0 -1 20 14.6 9.7
-1 0 20 6.2 8.8
-1 1 20 17.3 8.9
-1 1 20 5.8 7.5
1 0 20 20.9 7.3
-1 0 20 -0.3 4.4
1 -1 20 8.2 7.5
-2 1 -20 167.18 19.6
-1 2 -20 188.48 20.9
1 -2 -20 193.78 19.2
2 -1 -20 172.58 20.1
1 1 -20 154.48 21.2
-1 2 -20 151.58 21
-2 1 -20 172.58 23.7
-1 -1 -20 187.08 18.5
1 1 -20 184.78 20.9
2 -1 -20 158.58 20.7
1 -2 -20 174.28 19.8
-1 -1 -20 141.49 19.3
-2 1 20 114.49 15.6
1 1 20 95.69 12.2
-1 -1 20 63.39 15.4
-1 -1 20 63.19 11.7
2 -1 20 79.19 13.7
1 -2 20 123.79 19
-2 1 20 87.69 14.7
-1 2 20 88.89 13.5
-1 2 20 91.69 13.2
2 -2 -20 104.19 17.5
2 0 -20 113.89 19.7
-2 2 -20 178.28 19.9
0 -2 -20 118.19 16.6
0 2 -20 110.39 20
2 0 -20 134.19 19.1
2 -2 -20 109.19 19.4
0 -2 -20 123.79 18
-2 0 -20 127.69 16.4
-2 2 -20 110.69 18.9
0 2 -20 111.29 18.7
-2 0 -20 118.99 16.8
0 -2 20 62.79 12.5
-2 0 20 68.59 11.6
2 0 20 89.09 12.3
-2 2 20 59.59 10.6
2 -2 20 101.09 16
2 -2 20 88.99 14.3
-2 2 20 112.29 17.7
0 2 20 73.79 12.3
0 -2 20 67.99 13.1
-2 0 20 87.69 17.9
3 -1 -20 568.04 38
-3 1 -20 556.64 37.3
2 -3 -20 570.84 37.2
-2 3 -20 525.15 38.8
1 2 -20 566.84 38.7
-1 -2 -20 575.94 34.8
2 -3 -20 505.85 41.6
-2 3 -20 579.14 39.6
3 -1 -20 529.25 38.1
-1 -2 -20 505.85 34.1
1 2 -20 560.44 39.1
-3 1 -20 528.75 35.2
-2 3 20 532.55 36.4
-3 1 20 561.24 38.3
-3 1 20 531.95 36.3
-2 3 20 542.05 33.7
3 -1 20 546.45 32.7
-1 -2 20 520.55 38.1
-1 -2 20 539.05 47.5
2 -3 20 550.54 38.5
3 -2 -20 1073.59 60.79
-3 2 -20 964.2 59.69
-3 2 -20 1054.09 61.89
1 -3 -20 1074.49 59.49
2 1 -20 1035.6 61.19
-1 3 -20 1060.39 62.49
2 1 -20 1030.5 61.49
-1 3 -20 1058.29 61.99
3 -2 -20 1020 60.69
-2 -1 -20 1056.09 58.19
1 -3 -20 1043.7 59.09
-2 -1 -20 984.6 56.79
3 -2 20 935.91 53.59
-1 3 20 960 51.59
1 -3 20 1020.2 57.99
-2 -1 20 980.9 59.89
2 1 20 958.7 49.6
-3 2 20 876.11 53.89
1 -3 20 920.61 56.49
-2 -1 20 881.81 55.79
-3 2 20 940.11 56.39
-3 3 -20 235.78 25.4
3 0 -20 266.67 25.4
0 3 -20 272.57 26
0 3 -20 237.08 26.7
-3 0 -20 231.38 22
3 -3 -20 224.98 25.2
-3 0 -20 213.18 20.1
-3 3 -20 227.48 25.1
3 -3 -20 241.88 24.4
0 -3 -20 240.68 22.1
0 -3 -20 231.68 21.2
3 0 -20 238.48 25.7
-3 3 20 217.48 23.2
0 3 20 221.58 16.9
3 0 20 217.58 16
-3 0 20 207.98 29.5
3 -3 20 224.38 22.5
0 -3 20 219.68 25
-3 0 20 202.18 23
3 -3 20 224.38 29.2
0 -3 20 262.47 26.3
3 -4 -20 231.88 25.5
-1 -3 -20 247.28 21.2
4 -1 -20 207.08 25.7
-4 1 -20 223.28 22.5
3 -4 -20 216.68 25.4
-3 4 -20 267.37 31.3
-4 1 -20 209.78 21
-1 -3 -20 260.77 20.9
4 -1 -20 261.37 25.6
-3 4 -20 261.77 27.3
1 3 -20 216.58 26.5
1 3 -20 227.98 27.3
-4 1 20 295.87 28.4
-4 1 20 229.38 25
1 3 20 253.07 16.9
-3 4 20 262.07 21.7
-1 -3 20 255.37 27.8
-1 -3 20 276.47 32.2
4 -1 20 267.17 18.4
-4 2 -20 1855.91 98.49
-2 4 -20 1701.63 99.49
-2 -2 -20 1783.42 93.39
4 -2 -20 1777.42 97.89
4 -2 -20 1899.91 98.39
2 2 -20 1869.81 99.99
2 -4 -20 1811.72 96.89
-4 2 -20 1671.83 95.99
-2 -2 -20 1834.12 94.29
2 2 -20 1817.22 99.39
-2 4 -20 1778.82 100.39
2 -4 -20 1812.22 96.99
2 2 20 1737.43 82.49
2 -4 20 1576.44 91.69
-4 2 20 1603.24 90.89
-4 2 20 1573.24 88.99
2 -4 20 1842.42 93.09
-2 -2 20 1707.43 91.69
-2 4 20 1624.74 85.99
-2 -2 20 1577.94 90.89
4 -2 20 1573.94 86.19
-3 -1 -20 990.4 56.39
-4 3 -20 1120.39 63.29
1 -4 -20 1037 59.49
4 -3 -20 1052.39 61.99
3 1 -20 1084.89 65.69
-1 4 -20 1109.39 64.29
-4 3 -20 948.61 61.29
-3 -1 -20 1055.89 58.39
3 1 -20 1021.5 62.49
1 -4 -20 1032 59.19
4 -3 -20 1078.89 61.89
-1 4 -20 968 63.49
3 1 20 1055.29 51.19
4 -3 20 999.3 57.89
1 -4 20 1068.09 62.19
-1 4 20 993.7 54.29
1 -4 20 976.7 61.99
-3 -1 20 1003.4 60.99
-4 3 20 992.7 58.09
-3 -1 20 978.4 60.09
-4 3 20 1000.3 60.69
-4 0 -20 192.88 18.8
4 -4 -20 182.88 25.1
0 4 -20 195.28 26.5
0 4 -20 210.28 26.3
-4 4 -20 216.88 25
-4 4 -20 187.88 25.6
0 -4 -20 206.98 20.7
0 -4 -20 193.38 20.1
4 0 -20 196.18 25.5
4 -4 -20 234.68 24.6
4 0 -20 177.38 24.1
-4 0 -20 208.38 20.4
0 4 20 235.58 16.8
-4 0 20 197.88 25.5
-4 4 20 201.78 19.5
4 0 20 243.68 14.1
0 -4 20 225.28 28.2
-4 0 20 217.98 27.3
4 -4 20 221.38 24.1
0 -4 20 228.18 26.9
5 -1 -20 113.99 17.4
-4 5 -20 159.78 24.6
1 4 -20 150.78 24.8
5 -1 -20 154.48 21.7
-5 1 -20 135.39 18.5
1 4 -20 152.88 25.6
-1 -4 -20 141.69 17.6
4 -5 -20 134.69 23.1
4 -5 -20 160.28 23
-4 5 -20 152.98 22.5
-5 1 -20 156.98 17.8
-1 -4 -20 160.48 17.1
-1 -4 20 143.49 24.8
-5 1 20 125.09 21.6
-4 5 20 96.49 18.3
-1 -4 20 165.08 33.7
-5 1 20 145.79 20.6
5 -1 20 118.69 10.4
-2 -3 -20 538.75 33.8
-3 5 -20 582.14 42.3
3 -5 -20 576.34 39.6
5 -2 -20 541.35 40
-2 -3 -20 615.44 34.2
-3 5 -20 557.04 48.6
-5 2 -20 560.44 38
2 3 -20 567.94 41.5
-5 2 -20 489.55 36.4
2 3 -20 520.05 42.3
3 -5 -20 610.24 40
5 -2 -20 461.85 50.59
3 -5 20 530.05 41.9
-5 2 20 530.55 39.2
5 -2 20 582.44 33.8
-2 -3 20 599.94 42.5
-3 5 20 564.74 35.4
-5 2 20 574.64 41.5
-2 -3 20 604.04 42.5
5 -3 -20 1083.09 64.89
-2 5 -20 1133.09 66.99
-5 3 -20 1038.1 64.19
-3 -2 -20 1044.7 59.09
3 2 -20 1014.3 64.29
3 2 -20 1033.5 65.69
2 -5 -20 1187.78 63.29
-2 5 -20 1187.58 68.49
-5 3 -20 959.6 62.89
5 -3 -20 1090.09 64.49
2 -5 -20 1101.49 63.29
-3 -2 -20 1130.19 58.09
-5 3 20 976.3 59.29
-3 -2 20 1060.39 62.29
-2 5 20 982.5 55.19
5 -3 20 975.3 57.09
-3 -2 20 1054.89 62.29
-5 3 20 1030.4 62.59
2 -5 20 1082.59 63.39
2 -5 20 985.3 63.69
4 1 -20 428.66 34.2
4 1 -20 374.56 35.3
-4 -1 -20 409.76 27.9
5 -4 -20 437.56 34.1
-4 -1 -20 382.16 26
-5 4 -20 427.86 34.9
-5 4 -20 350.36 34
-1 5 -20 465.75 38.3
1 -5 -20 409.86 30.5
1 -5 -20 441.46 30.8
5 -4 -20 421.16 42
-1 5 20 404.26 25.3
1 -5 20 392.06 35.9
-5 4 20 377.76 30.5
-4 -1 20 420.06 33.5
-4 -1 20 379.16 33.2
1 -5 20 425.46 35.1
5 -4 20 385.26 30.7
5 -5 -20 512.55 40.7
0 5 -20 553.24 43.9
0 -5 -20 586.74 35.9
-5 5 -20 603.14 57.19
0 5 -20 557.64 43.1
0 -5 -20 515.25 35.5
5 -5 -20 553.94 41
5 0 -20 611.14 41.2
-5 0 -20 559.04 34.5
5 0 -20 514.35 41.9
-5 5 -20 564.14 43.8
-5 0 -20 515.35 33.1
0 -5 20 500.45 43
-5 0 20 515.25 41.7
-5 0 20 532.05 39.8
5 -5 20 545.95 40.3
0 5 20 563.94 30.2
-5 5 20 512.05 36.6
0 -5 20 604.44 41.8
1 5 -20 790.42 53.39
5 -6 -20 732.63 50.09
-6 1 -20 709.13 43.7
1 5 -20 776.22 53.89
-1 -5 -20 744.63 43.5
6 -1 -20 680.53 50.39
6 -1 -20 689.23 49.1
-1 -5 -20 740.13 43.5
5 -6 -20 757.42 50.99
-6 1 -20 763.82 44.6
-5 6 -20 836.02 53.69
-5 6 -20 842.22 55.59
-6 1 20 821.12 53.69
-1 -5 20 865.01 57.29
-1 -5 20 730.73 55.29
-6 1 20 758.12 51.19
4 -6 -20 391.56 35
-6 2 -20 384.56 30.2
2 4 -20 458.95 36.7
2 4 -20 408.86 37.1
-4 6 -20 462.25 40.4
-4 6 -20 423.56 37.3
-2 -4 -20 426.56 26.8
6 -2 -20 379.46 35.4
6 -2 -20 359.76 33.1
4 -6 -20 409.26 34.2
-2 -4 -20 424.36 26.7
-6 2 -20 409.26 30.7
-2 -4 20 450.05 36.7
-6 2 20 384.46 32.9
-4 6 20 394.56 28.7
4 -6 20 353.16 36
6 -2 20 400.06 23.6
-2 -4 20 422.86 37.2
-6 2 20 381.96 33.9
3 3 -20 480.65 40
-3 6 -20 564.54 40.2
3 3 -20 509.85 38.8
3 -6 -20 453.15 36.5
-3 -3 -20 455.25 29.3
3 -6 -20 469.25 36
-3 6 -20 583.34 45.3
-6 3 -20 518.25 35.8
6 -3 -20 468.65 37.4
-3 -3 -20 461.15 28.5
-6 3 -20 386.86 34.2
6 -3 -20 459.15 38.3
6 -3 20 508.45 32
3 -6 20 477.55 41.4
-3 -3 20 505.05 39.8
-3 -3 20 556.64 41.3
-6 3 20 463.55 37.2
-6 3 20 539.45 40.1
-3 6 20 496.35 32.5
6 -4 -20 149.59 25.3
-6 4 -20 189.28 24
4 2 -20 180.98 28.5
-2 6 -20 186.48 26.5
2 -6 -20 161.58 21.6
-6 4 -20 134.69 23.9
4 2 -20 155.68 24.3
-2 6 -20 183.98 30.2
-4 -2 -20 186.68 16.1
-4 -2 -20 171.98 15.2
6 -4 -20 154.28 27.2
2 -6 -20 172.58 22.5
6 -4 20 187.48 20.7
2 -6 20 174.68 26.1
-4 -2 20 163.68 24.8
-2 6 20 172.28 25.1
-6 4 20 180.98 23.2
2 -6 20 168.58 28.3
-4 -2 20 146.79 25.8
-6 5 -20 203.58 28.1
-5 -1 -20 185.88 16.1
1 -6 -20 180.78 21.8
-1 6 -20 240.28 29.2
-6 5 -20 171.08 25.2
5 1 -20 150.68 25.3
6 -5 -20 184.38 26.1
1 -6 -20 219.48 22.4
6 -5 -20 151.28 26.7
-5 -1 -20 185.68 15.7
-1 6 -20 217.48 32.4
5 1 -20 192.08 28.6
-5 -1 20 150.38 25.3
-1 6 20 171.38 15
6 -5 20 165.28 23.1
1 -6 20 173.08 28.7
-6 5 20 154.78 24.8
1 -6 20 205.48 26.1
-5 -1 20 158.48 25.6
-6 0 -20 461.35 27.8
0 6 -20 490.05 40.2
0 -6 -20 457.25 31.2
-6 6 -20 455.55 41.7
0 -6 -20 413.96 30.6
6 0 -20 420.66 37.7
-6 6 -20 467.55 39.7
6 0 -20 390.16 35.9
-6 0 -20 405.66 27.1
0 6 -20 468.35 41.2
6 -6 -20 426.76 36.9
6 -6 -20 423.76 38
0 -6 20 484.95 39.5
-6 0 20 514.65 38.8
-6 6 20 492.15 35.3
0 -6 20 518.25 43.4
-6 0 20 436.06 41.3
6 -6 20 407.96 37.9
1 6 -20 514.35 43.4
-7 1 -20 455.15 29.3
-1 -6 -20 446.76 29.5
6 -7 -20 410.96 40.1
-6 7 -20 510.15 44.6
1 6 -20 470.75 41.8
-6 7 -20 434.96 40.7
7 -1 -20 442.36 36.8
6 -7 -20 397.06 37.7
7 -1 -20 405.86 39.2
-7 1 20 382.16 35.9
-6 7 20 404.86 30.5
-1 -6 20 400.86 41.1
-7 1 20 405.26 36
-1 -6 20 427.26 37.8
2 5 -20 695.03 49.5
5 -7 -20 635.14 46
-5 7 -20 720.83 49.4
-5 7 -20 740.23 53.19
-2 -5 -20 616.74 36.6
2 5 -20 651.33 49.5
-7 2 -20 667.33 40.6
7 -2 -20 604.04 46.9
-7 2 -20 566.24 40.2
5 -7 -20 614.84 47.2
7 -2 -20 609.64 44.6
-2 -5 20 691.63 52.29
-2 -5 20 699.63 57.79
-7 2 20 750.12 49.1
-7 2 20 651.03 47.3
5 -7 20 699.63 52.29
-5 7 20 687.23 43.2
4 -7 -20 395.96 35.3
4 -7 -20 375.16 33.1
3 4 -20 359.86 34.9
3 4 -20 342.57 37.1
-7 3 -20 332.47 30.5
7 -3 -20 360.76 33.5
-7 3 -20 396.96 30.9
-4 7 -20 471.95 41.1
-3 -4 -20 365.26 23.1
-4 7 -20 429.76 37
-3 -4 -20 360.76 23.2
7 -3 -20 375.36 35.6
-7 3 20 313.97 33
-3 -4 20 350.06 35.9
-4 7 20 321.87 26
7 -3 20 377.86 23.1
4 -7 20 377.06 37.7
-7 3 20 288.97 31.5
-3 -4 20 379.06 35.1
7 -4 -20 91.49 16.8
4 3 -20 166.78 29.2
3 -7 -20 157.68 23.7
-7 4 -20 123.09 20
7 -4 -20 107.79 19.9
3 -7 -20 100.39 16.7
4 3 -20 143.89 24.9
-3 7 -20 157.38 23.6
-7 4 -20 99.99 17.2
-4 -3 -20 146.49 11.6
-3 7 -20 120.59 21.5
-3 7 20 150.88 17.5
3 -7 20 193.78 30.8
7 -4 20 158.48 18.8
-7 4 20 130.99 19.6
-4 -3 20 151.98 27.2
-4 -3 20 180.08 26.1
5 2 -20 39.7 16.9
-7 5 -20 21.5 14.5
2 -7 -20 43.2 11.9
2 -7 -20 38.4 13.5
-5 -2 -20 30.9 5.8
7 -5 -20 34.3 13.9
-7 5 -20 34.5 13.4
5 2 -20 13.2 12
7 -5 -20 40.7 16.1
-2 7 -20 18.9 16.9
-2 7 -20 33.1 14.8
2 -7 20 49 18.3
-5 -2 20 50.59 15.8
-5 -2 20 32.8 13.6
7 -5 20 31.9 11.1
-2 7 20 31.6 8.3
-7 5 20 5.3 11.6
1 -7 -20 261.77 26.3
-6 -1 -20 277.07 18.1
7 -6 -20 312.27 34.6
1 -7 -20 316.47 26.9
-7 6 -20 307.37 33
7 -6 -20 331.67 37
-1 7 -20 301.57 34
6 1 -20 278.47 34
6 1 -20 278.27 30.8
-7 6 -20 297.57 35
-1 7 -20 400.26 38.9
-7 6 20 243.68 28
7 -6 20 208.18 27.6
-6 -1 20 236.58 31
1 -7 20 289.17 31.6
1 -7 20 310.77 37.4
-6 -1 20 286.97 31
-1 7 20 265.77 22.7
-7 0 -20 231.28 17.4
-7 7 -20 233.98 33
7 -7 -20 209.78 32.7
-7 7 -20 275.27 36
7 -7 -20 289.37 31.3
0 7 -20 259.87 32.7
0 7 -20 304.77 36.6
0 -7 -20 235.58 23.2
7 0 -20 198.38 31.3
7 -7 20 281.97 31
-7 0 20 270.87 31.8
-7 7 20 239.28 26.9
0 -7 20 282.87 38
-7 0 20 214.38 35.2
0 -7 20 278.07 31.8
7 -8 -20 57.19 21.3
-1 -7 -20 61.99 10.6
-8 1 -20 30.7 12.3
-8 1 -20 63.49 10.1
1 7 -20 59.59 19.8
8 -1 -20 40.4 16.9
7 -8 -20 46.8 17.1
-1 -7 -20 55.29 19.8
-7 8 -20 37.5 21
-7 8 -20 56.69 18.4
-8 1 20 25.3 29.1
-1 -7 20 54.39 20.1
7 -8 20 49.5 15.8
-7 8 20 28.7 11.7
-1 -7 20 24.1 14.6
-8 1 20 37.6 16.1
-2 -6 -20 91.09 12.5
8 -2 -20 91.39 21
-8 2 -20 85.59 14
2 6 -20 94.09 23.4
8 -2 -20 82.99 20.2
-6 8 -20 131.19 23
-6 8 -20 118.19 23.5
-2 -6 -20 120.29 13.4
6 -8 -20 81.49 19
6 -8 -20 97.79 22.3
6 -8 20 87.19 21
-8 2 20 91.69 17
-8 2 20 97.89 18
-2 -6 20 104.59 20.8
-6 8 20 110.09 17.3
-2 -6 20 114.39 22.6
-5 8 -20 219.98 31.5
5 -8 -20 180.28 30
-8 3 -20 183.98 23.4
-5 8 -20 238.78 36.2
8 -3 -20 174.18 29.2
5 -8 -20 142.59 25.8
8 -3 -20 159.18 26.6
3 5 -20 216.18 33.3
-3 -5 20 230.08 34
-8 3 20 186.58 28.1
-3 -5 20 264.07 33.5
-8 3 20 248.68 36.2
5 -8 20 192.18 28.6
-5 8 20 181.98 21.6
4 -8 -20 108.59 20.2
4 4 -20 48.6 17.4
-4 8 -20 90.49 23
-8 4 -20 73.59 16.5
8 -4 -20 80.29 19.8
8 -4 -20 89.99 18.5
4 -8 -20 76.29 17
-4 8 -20 96.29 18.1
-4 -4 20 64.89 17.9
-4 -4 20 121.59 21
-4 8 20 57.49 11.5
4 -8 20 100.49 35.3
8 -4 20 70.29 10.6
-8 4 20 66.69 17
5 3 -20 9.6 17.5
-3 8 -20 0.9 12.4
8 -5 -20 14.4 15.4
-8 5 -20 6.2 14.1
-8 5 -20 -2.6 11
8 -5 -20 8.9 13.6
3 -8 -20 9.9 13.7
3 -8 -20 -9.4 10.1
-3 8 -20 15.2 18.6
-5 -3 20 -1.4 13.2
-5 -3 20 2.7 14.6
8 -5 20 6.4 9.2
3 -8 20 -9.2 15.6
-8 5 20 2.2 12
-3 8 20 1.5 7.5
-8 6 -20 3.2 15.1
-2 8 -20 19.6 19.3
6 2 -20 25.2 17.6
2 -8 -20 25.3 12.3
8 -6 -20 4.8 12.5
-8 6 -20 16.7 13.1
2 -8 -20 -2.4 18.8
8 -6 -20 50.39 17.3
-2 8 -20 -9.2 18.1
8 -6 20 17.5 11
-2 8 20 13.2 7.3
2 -8 20 -4.2 16.1
-8 6 20 12.7 13.2
-6 -2 20 -1.9 12.1
-6 -2 20 13.2 15.1
1 -8 -20 186.68 23
8 -7 -20 158.08 26.4
-8 7 -20 147.39 23.9
-8 7 -20 144.59 25.4
8 -7 -20 163.38 28.6
-1 8 -20 178.68 27.1
7 1 -20 198.98 31.3
-1 8 -20 179.88 27.8
8 -7 20 173.78 26.4
-7 -1 20 178.48 29.8
1 -8 20 152.48 25.7
-7 -1 20 157.48 24.4
-8 7 20 165.28 25.9
8 0 -20 395.26 39.7
0 8 -20 400.86 42.6
8 -8 -20 260.67 37.1
-8 8 -20 402.66 49.6
8 -8 -20 351.46 41.3
0 -8 -20 348.67 28.6
-8 8 -20 314.87 41.3
0 -8 -20 410.96 29.5
-8 0 20 254.87 31.7
8 -8 20 281.87 34.9
-8 8 20 269.07 30.1
-8 0 20 248.78 34
0 -8 20 363.46 46
7 -9 -20 -1.4 21.2
9 -2 -20 29.7 17.7
-9 2 -20 20.9 12.5
-9 3 -20 114.09 20.3
3 6 -20 117.09 24.6
6 -9 -20 83.19 18.2
9 -3 -20 99.09 21.2
6 -9 -20 56.79 31.2
-6 9 -20 143.49 24.9
-6 9 -20 101.59 26
6 -9 20 117.69 22.6
-3 -6 20 78.89 20.4
-3 -6 20 142.89 32.7
-9 3 20 103.99 21
-6 9 20 92.79 15.3
-5 9 -20 164.28 25.4
9 -4 -20 151.28 25
5 -9 -20 210.58 33.5
5 -9 -20 176.88 27.7
-5 9 -20 238.88 37.8
4 5 -20 191.28 33.5
-9 4 -20 150.38 24.7
-4 -5 20 149.19 24
-9 4 20 172.48 28.7
5 -9 20 168.78 26.6
-4 -5 20 208.38 30.8
-5 9 20 150.28 20.9
4 -9 -20 19.4 18.1
-4 9 -20 20.2 20.1
9 -5 -20 26.9 14.7
9 -5 -20 20.6 16
-9 5 -20 -7.1 18.6
-9 5 -20 29.6 14.7
5 4 -20 34.1 18
-4 9 -20 18.2 15.7
4 -9 -20 25.6 14.2
9 -5 20 25.3 10.2
-5 -4 20 42.9 20.2
-5 -4 20 19.9 15.8
-9 5 20 21.5 14.2
4 -9 20 69.09 20.2
-4 9 20 31.6 10.9
3 -9 -20 53.29 14.3
9 -6 -20 41 18.9
9 -6 -20 29.2 22
6 3 -20 3.3 17.4
-3 9 -20 41.8 18.2
-3 9 -20 29.2 19.7
-9 6 -20 59.59 18
3 -9 -20 6.7 20
-3 9 20 39.8 10.2
-6 -3 20 37.4 18.1
3 -9 20 30.5 18.1
9 -6 20 35.6 11.9
-6 -3 20 34.2 15.3
-9 6 20 14.2 14.3
9 -7 -20 23.9 18.5
2 -9 -20 6.3 19.3
7 2 -20 49.5 18.8
0 0 -21 -0.8 7.6
0 0 -21 -1.5 11
0 0 21 6.8 7.5
0 0 21 11 8.7
1 -1 -21 25.1 17
0 -1 -21 13 9.1
0 1 -21 15.2 9.4
1 0 -21 25 9.9
-1 0 -21 22.7 9.4
-1 1 -21 11.1 9.1
0 -1 -21 17 8.9
-1 0 -21 11 8.8
0 1 -21 10 10.1
1 -1 -21 11.1 9
-1 1 -21 28 13
1 0 -21 31.9 11.8
0 -1 21 12.1 10.2
0 1 21 34.4 8.3
-1 0 21 16.6 9.3
1 0 21 16.6 7.3
1 -1 21 23.6 8.7
0 1 21 11.2 8.3
-1 1 21 33 10.5
1 -1 21 16.9 9.6
-1 1 21 28 8.5
1 1 -21 122.19 20.5
-1 -1 -21 135.69 17.5
2 -1 -21 105.59 16.2
1 -2 -21 113.59 17.7
-2 1 -21 141.79 19
1 -2 -21 142.19 19.4
2 -1 -21 130.69 19.6
-2 1 -21 135.09 19.1
-1 2 -21 138.89 19.8
1 1 -21 143.89 20.1
-1 -1 -21 113.39 17.2
-1 2 -21 129.99 19.1
-2 1 21 170.38 17.7
1 1 21 171.78 15.4
-2 1 21 153.88 20.4
2 -1 21 141.79 17
-1 -1 21 145.59 20.1
-1 -1 21 169.38 22.3
1 -2 21 141.69 20.9
-1 2 21 159.28 16.6
0 2 -21 233.48 25.2
2 0 -21 239.98 23.7
2 -2 -21 227.68 26.5
-2 2 -21 223.38 23.9
0 -2 -21 236.98 22.3
-2 0 -21 229.88 21.4
0 2 -21 222.98 24.2
2 0 -21 229.18 25
-2 0 -21 217.08 21.8
0 -2 -21 238.18 22
2 -2 -21 226.88 23.2
-2 2 -21 261.87 24.7
0 -2 21 286.77 27.2
0 2 21 246.88 19.4
-2 2 21 284.87 29.3
0 -2 21 253.47 25.2
-2 0 21 284.17 25.9
2 -2 21 249.97 23.1
-2 0 21 235.78 23.6
2 0 21 236.28 19.3
2 -3 -21 1179.18 69.49
2 -3 -21 1233.18 69.89
-1 -2 -21 1202.28 67.29
-3 1 -21 1178.98 68.19
-2 3 -21 1277.87 72.79
-1 -2 -21 1264.87 67.69
-3 1 -21 1260.07 70.69
-2 3 -21 1206.48 72.19
1 2 -21 1256.57 71.59
3 -1 -21 1311.17 71.39
1 2 -21 1186.48 71.59
-1 -2 21 1119.59 66.79
1 2 21 1184.08 60.09
-3 1 21 1130.29 66.99
-3 1 21 1109.19 65.09
-1 -2 21 1169.78 68.49
3 -1 21 1123.89 61.59
-2 3 21 1177.58 62.89
-2 -1 -21 90.19 15.2
1 -3 -21 90.89 13.9
-3 2 -21 63.89 13.5
3 -2 -21 79.69 14.8
-1 3 -21 68.99 13.6
-3 2 -21 81.09 15.1
-1 3 -21 77.79 16.6
1 -3 -21 78.89 14.1
-2 -1 -21 86.49 12.8
3 -2 -21 108.29 18.2
2 1 -21 73.89 13.8
2 1 -21 72.19 13.8
1 -3 21 82.69 14.8
3 -2 21 109.19 16.2
-3 2 21 71.09 14
2 1 21 86.39 11.1
-2 -1 21 70.59 14.8
-2 -1 21 90.19 15.1
-3 2 21 91.79 13.9
1 -3 21 100.99 17.1
-1 3 21 83.89 13.7
3 0 -21 1345.57 77.09
3 -3 -21 1347.37 76.39
0 3 -21 1345.07 77.89
3 0 -21 1364.16 76.69
-3 0 -21 1381.96 75.19
3 -3 -21 1366.16 76.19
0 -3 -21 1379.16 73.79
0 3 -21 1274.47 77.89
-3 0 -21 1311.77 72.59
-3 3 -21 1270.37 76.79
0 -3 -21 1378.26 73.89
-3 3 -21 1401.66 78.49
-3 0 21 1440.96 80.69
0 3 21 1397.96 76.19
-3 0 21 1367.86 78.69
3 0 21 1426.96 72.79
3 -3 21 1385.76 78.39
0 -3 21 1519.95 82.19
0 -3 21 1368.96 80.79
1 3 -21 1957.4 109.99
-3 4 -21 1808.82 109.29
-1 -3 -21 2092.69 104.49
3 -4 -21 2009 107.99
-4 1 -21 1992.1 107.39
4 -1 -21 1969.7 108.69
-4 1 -21 1955.2 104.99
3 -4 -21 2114.29 109.09
1 3 -21 1933.51 113.69
-3 4 -21 2102.79 110.99
4 -1 -21 2073.39 108.89
-3 4 21 1955.6 103.59
1 3 21 2053.99 99.79
-4 1 21 1928.01 108.19
4 -1 21 1992 100.79
-1 -3 21 1933.71 108.89
-4 1 21 1891.41 106.09
-1 -3 21 2134.29 110.49
-2 4 -21 679.33 52.29
-2 -2 -21 760.32 44.5
4 -2 -21 700.63 48.6
-4 2 -21 664.13 46.1
2 -4 -21 798.52 47.8
4 -2 -21 780.82 48.9
-2 -2 -21 765.82 43.8
-4 2 -21 790.52 48.9
2 -4 -21 766.02 47.7
2 2 -21 733.73 49.99
-2 4 -21 782.32 51.39
-4 2 21 689.53 45
2 -4 21 693.43 47.8
-4 2 21 763.32 48
-2 -2 21 738.73 48.4
-2 4 21 677.33 41.3
-2 -2 21 704.83 47.6
2 2 21 729.03 37.4
4 -2 21 686.33 41.9
-3 -1 -21 138.89 16.5
4 -3 -21 140.69 24
-3 -1 -21 143.99 18.1
1 -4 -21 149.29 20.5
4 -3 -21 137.69 22.2
-1 4 -21 132.89 23.8
1 -4 -21 151.58 19.5
-1 4 -21 88.59 17.3
-4 3 -21 160.98 22.4
3 1 -21 98.09 16.5
3 1 -21 153.38 24.5
-4 3 -21 140.49 21.9
4 -3 21 131.79 18.4
-1 4 21 106.59 14
-3 -1 21 97.49 16.1
-4 3 21 114.89 19
3 1 21 128.69 9.9
1 -4 21 124.59 19.8
1 -4 21 129.29 22.7
-3 -1 21 133.09 22.5
4 -4 -21 1364.76 75.49
-4 0 -21 1279.67 69.89
0 -4 -21 1347.17 71.39
0 4 -21 1237.48 90.89
4 -4 -21 1284.67 75.19
-4 4 -21 1191.98 75.99
4 0 -21 1304.57 76.29
-4 4 -21 1353.86 76.99
0 4 -21 1266.87 77.29
4 0 -21 1307.47 75.39
-4 0 -21 1237.78 71.89
0 -4 -21 1374.96 71.69
4 0 21 1329.87 65.39
0 4 21 1350.96 67.59
0 -4 21 1389.36 77.49
-4 0 21 1195.58 75.69
-4 0 21 1268.17 75.89
0 -4 21 1323.27 77.69
4 -4 21 1225.68 74.29
4 -5 -21 1094.39 64.39
5 -1 -21 982.3 64.39
5 -1 -21 1037.8 64.09
-1 -4 -21 1108.89 58.79
-1 -4 -21 1084.79 58.99
-4 5 -21 1121.89 67.99
1 4 -21 1058.29 66.19
-5 1 -21 1044.7 59.29
-5 1 -21 1027 60.69
1 4 -21 1086.29 66.99
-4 5 -21 1103.39 66.69
4 -5 -21 948.81 63.29
-1 -4 21 1032.2 65.09
5 -1 21 1017.9 52.29
-4 5 21 967.4 57.89
-5 1 21 995.9 63.29
-5 1 21 1034 61.79
-1 -4 21 1100.69 64.89
-3 5 -21 737.03 51.49
2 3 -21 716.83 48.9
-5 2 -21 641.14 44.6
5 -2 -21 711.33 49
-5 2 -21 663.53 44
3 -5 -21 726.33 46.6
-2 -3 -21 700.23 41.5
-2 -3 -21 712.23 41.2
-3 5 -21 761.62 50.19
3 -5 -21 720.93 46.6
5 -2 -21 683.13 47.7
2 3 -21 653.23 49.4
-2 -3 21 704.43 50.39
3 -5 21 712.03 50.29
-5 2 21 697.23 47.3
5 -2 21 707.13 41.4
-3 5 21 748.83 43.6
-5 2 21 740.73 49.8
-2 -3 21 820.02 51.19
5 -3 -21 17.1 12.4
2 -5 -21 17 12.4
-2 5 -21 11.7 15.1
2 -5 -21 19.7 10.9
-3 -2 -21 15.7 8.5
-3 -2 -21 4.3 8.4
3 2 -21 16.6 12.7
-5 3 -21 23 11.5
3 2 -21 7.3 14.4
-5 3 -21 16.8 10.8
-2 5 -21 35.8 14.4
2 -5 21 16.4 12.9
-5 3 21 2.6 10
5 -3 21 12.7 8.3
-2 5 21 14.5 7.4
-3 -2 21 3.4 11.6
-3 -2 21 -3 12.2
-4 -1 -21 252.57 22.4
5 -4 -21 279.67 29.3
-1 5 -21 318.77 33.9
1 -5 -21 302.37 25.7
5 -4 -21 275.37 29.8
-5 4 -21 316.07 30.2
-5 4 -21 259.87 29
-4 -1 -21 259.37 20.9
-1 5 -21 263.07 31.7
4 1 -21 281.77 28.8
1 -5 -21 298.97 26
4 1 -21 234.38 30.5
-5 4 21 282.17 26
-4 -1 21 236.28 28.4
-1 5 21 270.47 19.8
1 -5 21 393.56 51.59
-4 -1 21 283.37 29
1 -5 21 256.47 31
5 -4 21 269.67 26
-5 0 -21 728.83 41.8
0 5 -21 761.42 51.19
-5 5 -21 717.13 50.49
-5 5 -21 638.84 59.49
5 -5 -21 650.03 47.2
5 0 -21 659.33 47
0 5 -21 715.93 51.19
5 -5 -21 674.13 47.6
0 -5 -21 723.13 42.7
5 0 -21 624.54 48
0 -5 -21 685.83 42.3
-5 0 -21 642.34 39.9
5 -5 21 690.53 49.2
0 -5 21 724.63 52.99
0 5 21 713.53 39.4
-5 0 21 742.03 49.5
0 -5 21 847.12 51.99
-5 5 21 742.13 46.1
-5 0 21 721.93 49.8
-1 -5 -21 142.19 17.3
5 -6 -21 117.89 20.6
1 5 -21 178.38 28.5
5 -6 -21 145.89 24.7
6 -1 -21 95.29 19.1
-6 1 -21 151.58 17.9
-6 1 -21 141.29 18
-5 6 -21 180.78 30.8
1 5 -21 161.88 24.2
6 -1 -21 109.29 18
-1 -5 -21 170.28 18.7
-5 6 -21 168.98 27.3
-6 1 21 158.48 25.2
-5 6 21 107.59 17.5
-6 1 21 148.79 24.8
-1 -5 21 187.48 27.2
-1 -5 21 116.49 20.8
6 -2 -21 187.48 25.8
2 4 -21 174.58 29.3
-2 -4 -21 175.38 17.7
2 4 -21 205.78 27.6
-6 2 -21 184.38 21.5
6 -2 -21 167.68 27.3
4 -6 -21 208.18 25.9
4 -6 -21 195.58 26.6
-2 -4 -21 214.18 18.8
-4 6 -21 235.68 28.7
-4 6 -21 212.98 31.7
-6 2 -21 194.88 22
-6 2 21 187.48 25.3
-2 -4 21 197.68 30
-4 6 21 190.88 20.4
6 -2 21 210.18 14.8
4 -6 21 186.78 28.2
-6 2 21 213.08 27.3
-2 -4 21 180.38 28
-3 -3 -21 32.8 8.3
6 -3 -21 44.5 16
3 3 -21 17.6 14
-6 3 -21 34.7 11.9
-3 6 -21 34 18.6
3 3 -21 11.9 12.4
6 -3 -21 19.5 13.1
-3 6 -21 16.3 11.4
3 -6 -21 31.2 14.6
-3 -3 -21 26.7 8.3
3 -6 -21 12.6 11.2
-6 3 -21 41.9 11.3
-3 6 21 34.3 9.4
3 -6 21 28.5 14.2
-3 -3 21 42.5 15.1
-6 3 21 25 12.7
-3 -3 21 32.4 13.9
6 -3 21 35.5 9
-6 4 -21 21.1 13.1
6 -4 -21 14.5 14.5
4 2 -21 -7.4 11.2
-2 6 -21 -5.5 14.8
2 -6 -21 -0.5 11.5
2 -6 -21 1.1 9.7
-6 4 -21 20.8 11.5
6 -4 -21 3.9 15.5
-4 -2 -21 9.2 7.3
4 2 -21 6.5 14
-4 -2 -21 4.1 6.9
-2 6 -21 23.4 13.7
-6 4 21 11.8 11.2
-2 6 21 10.7 7.4
-4 -2 21 20.6 12.4
-4 -2 21 15.5 14.1
6 -4 21 9.1 9.2
2 -6 21 24.5 15.7
-5 -1 -21 73.09 9.6
1 -6 -21 70.69 14.4
-1 6 -21 45.1 15.1
5 1 -21 78.29 16.4
-1 6 -21 81.79 21.1
1 -6 -21 63.59 21.3
-6 5 -21 36.8 15.5
6 -5 -21 51.69 14.5
6 -5 -21 74.39 18.4
-6 5 -21 61.09 15.8
-5 -1 -21 87.69 12.4
-5 -1 21 62.39 15.1
1 -6 21 66.29 17.9
6 -5 21 63.39 14.2
-5 -1 21 86.29 17.4
-1 6 21 78.69 11.8
-6 5 21 53.89 13.9
0 6 -21 36.4 19
6 0 -21 3.3 14.4
0 -6 -21 39.6 12
-6 0 -21 17.9 8.2
-6 0 -21 23.8 7.8
-6 6 -21 14.1 13
6 0 -21 32.3 22
0 6 -21 10.3 15.1
6 -6 -21 10.4 13.4
0 -6 -21 24.2 10.1
-6 6 -21 14.5 16
6 -6 -21 -7.6 13.6
-6 0 21 28.6 13.4
0 -6 21 15.1 16.7
-6 6 21 21.5 11.9
0 -6 21 20.3 16.8
6 -6 21 7.3 11.5
-6 0 21 22.1 13.3
6 -7 -21 65.29 16.9
7 -1 -21 78.99 18.2
-7 1 -21 52.79 10.8
7 -1 -21 31.5 17.6
-6 7 -21 47.9 16.1
1 6 -21 42.4 19.4
-1 -6 -21 44.3 13.6
-1 -6 -21 63.19 10.7
1 6 -21 51.99 17.2
6 -7 -21 63.49 20
-6 7 -21 88.09 22.2
-7 1 21 68.49 16.5
-1 -6 21 77.99 21
-7 1 21 28.4 15.3
-1 -6 21 67.39 17.5
-5 7 -21 57.89 17.5
2 5 -21 54.29 19.1
-7 2 -21 102.79 17
-2 -5 -21 57.49 10.8
-7 2 -21 64.89 12.9
-2 -5 -21 68.59 10
5 -7 -21 51.49 16.1
-5 7 -21 102.99 22.6
5 -7 -21 72.59 19
7 -2 -21 71.89 16.8
7 -2 -21 44.7 17.4
2 5 -21 53.09 17.3
-7 2 21 64.19 16.6
5 -7 21 61.29 17.4
-5 7 21 57.39 12
-2 -5 21 30.2 15.9
-2 -5 21 78.59 17.1
3 4 -21 17.7 15
-7 3 -21 22.4 11.3
3 4 -21 15.1 15.8
-4 7 -21 20.1 13
7 -3 -21 11.4 13.9
4 -7 -21 5.5 11.5
-4 7 -21 27.7 17.7
-7 3 -21 13.6 10.7
7 -3 -21 14.8 14.8
-3 -4 -21 22.6 7.7
4 -7 -21 30.2 15.9
7 -3 21 23.9 8
-3 -4 21 8.9 13.3
-4 7 21 16.9 9.2
-7 3 21 16 13.5
-3 -4 21 33 17.9
4 -7 21 35.9 17.2
4 3 -21 8.8 15.1
7 -4 -21 0.1 14.5
3 -7 -21 7.8 14.2
7 -4 -21 -12.2 10.5
-7 4 -21 13.7 11.9
-7 4 -21 11.9 11.5
-4 -3 -21 -0.9 4.9
3 -7 -21 -9.1 9.8
-3 7 -21 -5.2 15.5
4 3 -21 13.1 14
-3 7 -21 -1.9 11.6
7 -4 21 0.1 7.4
-4 -3 21 6 11.5
-3 7 21 9.8 12.7
3 -7 21 -4.2 12.7
-4 -3 21 -0.9 15.1
-7 4 21 6.4 11.6
5 2 -21 17.4 16.4
-2 7 -21 25.7 19
-7 5 -21 25.4 13.4
2 -7 -21 12.9 11.5
2 -7 -21 30.8 14.3
5 2 -21 8.5 11.4
-2 7 -21 34.9 14.8
-5 -2 -21 29.9 6.3
7 -5 -21 15.3 12.7
-7 5 -21 18.6 13.8
7 -5 -21 16.7 16.3
-5 -2 21 11.6 12.4
-5 -2 21 18.9 13.8
7 -5 21 15.9 10.2
-2 7 21 16.5 7.6
-7 5 21 14 12.2
2 -7 21 -7.1 13.6
1 -7 -21 27.2 11.8
-6 -1 -21 9.6 5.9
7 -6 -21 25.5 17.1
-7 6 -21 0.7 12.6
-1 7 -21 26.1 16.2
-7 6 -21 20.6 16.6
7 -6 -21 13.8 13.7
-1 7 -21 13.8 19.4
1 -7 -21 4.6 12
6 1 -21 11.5 14.3
6 1 -21 10.9 15.8
-6 -1 21 -11.5 11.9
7 -6 21 9.8 11.7
-7 6 21 8.6 11.7
1 -7 21 29.7 18.7
-6 -1 21 -2 13.5
-1 7 21 22.2 5.8
7 -7 -21 92.59 22.2
0 -7 -21 70.29 23.3
7 -7 -21 102.09 20.8
-7 7 -21 103.49 21.4
7 0 -21 72.59 19.8
-7 7 -21 106.99 22.1
0 7 -21 137.49 25.9
0 7 -21 74.09 20.4
0 -7 -21 77.79 13.7
-7 0 -21 90.49 12.4
-7 7 21 102.99 16.8
-7 0 21 96.59 19.8
7 -7 21 103.09 20.4
0 -7 21 114.99 24.2
-7 0 21 109.59 19.9
8 -1 -21 427.76 42.6
7 -8 -21 404.36 44.4
7 -8 -21 408.06 44.2
-8 1 -21 466.75 30.1
-7 8 -21 554.74 51.39
-1 -7 -21 538.45 34.5
1 7 -21 499.35 46.6
-7 8 -21 557.64 49.8
-1 -7 -21 515.55 32.5
-8 1 21 452.05 40.5
-1 -7 21 458.15 70.79
-8 1 21 442.86 46.7
-7 8 21 424.56 35
2 6 -21 396.66 41.5
6 -8 -21 372.96 36.6
-2 -6 -21 419.66 25.5
8 -2 -21 320.17 38.4
-6 8 -21 464.15 45.4
-6 8 -21 468.75 41.3
6 -8 -21 369.06 40
-8 2 -21 336.07 28.7
-2 -6 -21 370.46 24.5
6 -8 21 385.76 39.9
-2 -6 21 399.56 41.7
-8 2 21 343.67 35.2
-6 8 21 307.67 29.1
-2 -6 21 399.96 38
8 -3 -21 117.19 19.2
3 5 -21 187.88 27.6
5 -8 -21 169.88 24.6
8 -3 -21 123.79 22.5
-5 8 -21 156.68 23.3
-5 8 -21 156.18 26.5
5 -8 -21 152.68 22.1
-8 3 -21 111.49 18.7
-8 3 21 112.59 20.3
-3 -5 21 144.79 25.7
-3 -5 21 129.29 23
5 -8 21 170.18 26.5
-5 8 21 141.49 20
8 -4 -21 5.3 13
-4 8 -21 11.1 15.3
-8 4 -21 -3.5 12.9
-4 8 -21 32.2 20.4
4 -8 -21 14.6 15.7
4 -8 -21 24.8 13.3
8 -4 -21 21.9 15.1
4 4 -21 11.7 15.9
-4 -4 21 16.2 16.4
4 -8 21 0.2 16.6
8 -4 21 13.4 12.7
-8 4 21 17.3 13.4
-4 8 21 -0.9 8.3
-4 -4 21 4.3 13.7
3 -8 -21 34.7 14.2
8 -5 -21 30 14.8
-3 8 -21 8.6 19.9
-8 5 -21 30.6 20.6
3 -8 -21 35.2 19.4
-8 5 -21 23 13.5
8 -5 -21 41.4 17.5
-3 8 -21 59.19 18.8
5 3 -21 31.8 19.1
-3 8 21 17.6 8.8
-5 -3 21 15.7 12.8
8 -5 21 14.2 9.8
3 -8 21 31.3 17.6
-8 5 21 25.7 14.3
-8 6 -21 59.39 16.8
-2 8 -21 68.19 20
2 -8 -21 64.29 14.5
2 -8 -21 52.99 18.8
8 -6 -21 79.59 19.3
6 2 -21 38 18.3
-2 8 -21 95.49 22.1
8 -6 -21 80.79 18.2
-8 6 -21 65.89 22.3
-8 6 21 58.89 16
-2 8 21 70.39 12.4
-6 -2 21 41.6 14.4
-6 -2 21 48.6 18.6
2 -8 21 68.49 23.1
8 -6 21 50.19 16.2
8 -7 -21 -1.8 17.8
7 1 -21 -4.2 15.1
-1 8 -21 15.2 20.9
8 -7 -21 6.2 13.4
1 -8 -21 2.6 10.9
1 -8 -21 11 17.9
-8 7 -21 -2 16.1
-8 7 -21 12.1 13.7
-7 -1 21 11.7 15.1
8 -7 21 8.7 12.6
-7 -1 21 7 15.3
1 -8 21 26.7 17.3
-8 7 21 -22.7 12
9 -4 -21 29.1 17.6
5 -9 -21 40.6 18.5
-9 4 -21 14 18.5
9 -5 -21 8.9 17.2
4 -9 -21 11.3 16.9
0 0 -22 5.8 8.5
0 0 -22 4.8 9.1
0 0 22 4.8 7.3
-1 1 -22 74.79 14.1
1 -1 -22 46.2 12.3
-1 0 -22 67.89 12.5
0 1 -22 84.69 14.5
-1 0 -22 79.89 13
1 -1 -22 77.19 13.5
0 1 -22 64.69 13.6
1 0 -22 67.79 12.8
1 0 -22 80.39 13.5
0 -1 -22 67.59 12.7
0 -1 -22 63.39 11.5
-1 1 -22 77.69 13.4
-1 1 22 65.39 11.1
1 -1 22 81.49 12.2
0 1 22 68.29 10.5
1 0 22 62.29 10.2
2 -1 -22 347.97 30.4
-2 1 -22 356.36 28.9
1 1 -22 303.07 36.5
1 -2 -22 402.76 29.1
-1 -1 -22 388.16 28.4
2 -1 -22 393.66 30.4
1 1 -22 377.46 30.5
-1 2 -22 356.36 30.5
-2 1 -22 396.96 30.4
-1 -1 -22 334.17 27.5
1 -2 -22 336.37 29.2
-1 2 -22 308.77 30
1 1 22 437.56 27.2
2 -1 22 393.06 28.8
1 -2 22 398.26 33.3
-1 -1 22 471.45 43.1
-1 2 22 408.36 28.4
-1 -1 22 441.86 32.4
2 -2 -22 405.96 32.1
-2 0 -22 377.16 28.8
0 -2 -22 401.06 29.8
2 0 -22 336.67 36.6
-2 2 -22 363.66 31.6
2 -2 -22 396.06 31.2
0 2 -22 423.56 32.7
-2 0 -22 388.56 30.2
2 0 -22 417.06 32.2
0 -2 -22 396.86 30.1
0 2 -22 395.66 38.8
-2 2 -22 407.46 32.4
-2 0 22 439.06 43.1
2 0 22 424.16 27.2
0 -2 22 416.46 33
0 2 22 400.06 27.1
2 -2 22 454.55 31.5
-2 2 22 410.36 29.6
-2 0 22 427.56 32.1
-3 1 -22 465.55 36.1
2 -3 -22 480.65 35.6
-1 -2 -22 526.85 33.9
-2 3 -22 491.95 38.5
1 2 -22 493.75 37.8
-2 3 -22 474.65 37.9
-1 -2 -22 515.45 33.6
3 -1 -22 488.35 36.6
-3 1 -22 482.05 34.3
1 2 -22 517.15 38.8
2 -3 -22 482.55 36.3
1 2 22 478.75 27.7
-1 -2 22 457.05 35.8
2 -3 22 451.25 34.5
-2 3 22 433.76 30.4
-1 -2 22 457.75 38.5
-3 1 22 440.56 33.2
3 -1 22 454.35 29.2
1 -3 -22 1136.69 63.69
2 1 -22 1106.49 66.19
3 -2 -22 1131.49 65.19
1 -3 -22 1083.69 63.49
2 1 -22 1127.99 65.79
-1 3 -22 1049.89 66.39
-1 3 -22 1158.78 67.19
3 -2 -22 1081.79 65.19
-3 2 -22 1107.49 66.39
-2 -1 -22 1037.8 61.09
-3 2 -22 1054.49 64.09
-2 -1 -22 1145.69 62.79
-3 2 22 1047 61.79
2 1 22 1119.99 57.39
-1 3 22 1109.89 59.39
3 -2 22 1039.9 61.09
1 -3 22 1085.79 65.19
-2 -1 22 1104.19 64.39
-2 -1 22 1120.79 65.89
0 3 -22 207.98 34.8
0 -3 -22 247.48 24.4
-3 3 -22 233.28 27.4
3 0 -22 257.67 26.8
-3 0 -22 264.37 25
-3 3 -22 253.87 27.4
3 0 -22 282.37 28.7
0 -3 -22 284.07 24.2
3 -3 -22 298.47 28.1
0 3 -22 227.98 27.8
-3 0 -22 246.98 22.8
3 -3 -22 306.87 27.5
-3 0 22 272.97 28.3
0 3 22 340.97 22.3
3 -3 22 283.07 27.2
-3 3 22 327.87 26.2
3 0 22 334.37 21.3
-3 0 22 363.16 31.9
0 -3 22 332.77 31.3
-4 1 -22 152.48 20
4 -1 -22 195.38 24.5
-4 1 -22 191.48 21.8
4 -1 -22 144.49 25.6
1 3 -22 142.19 24.9
-1 -3 -22 150.98 19.6
1 3 -22 158.38 26.4
-3 4 -22 202.08 26.1
3 -4 -22 181.18 23.5
-3 4 -22 166.98 25.9
-1 -3 -22 162.98 19.9
3 -4 -22 192.08 25.5
-4 1 22 110.09 17.3
-1 -3 22 144.89 24.5
4 -1 22 122.89 13.6
-3 4 22 146.79 18
-1 -3 22 136.99 22.2
1 3 22 135.69 12.2
3 -4 22 103.39 16.8
4 -2 -22 1142.09 67.29
-2 -2 -22 1170.78 62.69
-2 -2 -22 1117.69 63.19
-4 2 -22 1041.7 65.19
-2 4 -22 1221.58 70.69
2 -4 -22 1142.29 66.09
-4 2 -22 1161.28 67.49
4 -2 -22 1118.89 67.69
2 -4 -22 1189.48 66.59
2 2 -22 1157.48 69.29
-2 4 -22 1008.6 68.89
2 2 -22 1142.59 68.69
2 2 22 1086.29 54.79
-4 2 22 1011.4 61.99
2 -4 22 1070.49 65.59
4 -2 22 1052.49 59.09
-2 -2 22 1051.79 64.89
-2 4 22 1066.19 58.79
-2 -2 22 1126.79 66.39
3 1 -22 925.91 58.69
-3 -1 -22 895.51 54.49
-1 4 -22 911.61 60.09
1 -4 -22 973.5 55.89
-4 3 -22 1048.8 59.99
-4 3 -22 841.62 57.29
4 -3 -22 944.51 58.59
1 -4 -22 947.81 55.79
-3 -1 -22 912.61 52.69
4 -3 -22 997.1 58.59
-1 4 -22 950.9 60.59
3 1 -22 881.31 59.19
4 -3 22 852.71 53.29
-4 3 22 932.21 54.09
1 -4 22 841.12 57.89
-3 -1 22 902.21 56.39
-1 4 22 855.51 51.09
3 1 22 948.41 46.5
-3 -1 22 962.9 58.29
-4 0 -22 162.18 20.2
0 -4 -22 183.78 20.5
4 0 -22 163.28 26.8
4 -4 -22 150.48 25.5
0 4 -22 163.08 29.1
4 0 -22 168.58 24.2
4 -4 -22 180.88 24.7
-4 0 -22 186.58 19.3
0 -4 -22 199.38 21.6
-4 4 -22 124.29 19.5
-4 4 -22 183.98 24.9
0 4 -22 174.68 30.8
0 4 22 210.88 15.9
4 -4 22 154.08 23.1
-4 0 22 191.68 26.4
-4 0 22 184.88 25.9
0 -4 22 178.28 27.5
1 4 -22 37.7 17.5
1 4 -22 54.99 16.8
-4 5 -22 48.7 14.3
-1 -4 -22 51.29 11.1
5 -1 -22 61.09 17
-5 1 -22 42.8 11
5 -1 -22 65.19 15
-1 -4 -22 48.6 10.8
-4 5 -22 58.89 16.4
4 -5 -22 37.4 14
-5 1 -22 50.59 11.9
-5 1 22 131.39 22.6
-1 -4 22 67.19 16.9
4 -5 22 86.89 17.2
-4 5 22 69.99 12.9
-1 -4 22 98.59 22.7
2 3 -22 542.65 44.2
-2 -3 -22 584.14 35.3
3 -5 -22 513.55 40.2
-3 5 -22 579.54 45.1
3 -5 -22 515.45 40.6
-5 2 -22 577.84 38.6
-5 2 -22 474.95 38.1
-3 5 -22 563.24 43.5
5 -2 -22 569.04 41.2
-2 -3 -22 607.84 35.9
5 -2 -22 554.24 48.3
2 3 -22 607.94 43.4
3 -5 22 501.05 40.1
-5 2 22 486.75 36.7
-3 5 22 487.35 32.4
-2 -3 22 522.05 40.3
5 -2 22 471.55 30.1
-2 -3 22 488.55 40.4
-5 3 -22 901.01 55.69
2 -5 -22 809.72 53.39
5 -3 -22 899.11 55.59
-2 5 -22 915.51 57.79
5 -3 -22 836.32 55.29
-3 -2 -22 901.61 48.8
3 2 -22 874.61 55.99
2 -5 -22 910.01 53.89
-3 -2 -22 810.52 49.6
3 2 -22 809.02 56.59
-5 3 -22 773.62 53.69
-2 5 -22 892.31 59.19
-3 -2 22 853.41 56.09
5 -3 22 769.32 54.89
-2 5 22 877.01 48.6
-5 3 22 864.21 53.19
2 -5 22 865.71 58.39
-3 -2 22 908.71 56.59
4 1 -22 394.86 37.2
-4 -1 -22 399.06 29
-4 -1 -22 373.06 27.2
-1 5 -22 398.26 37.3
1 -5 -22 433.16 32
5 -4 -22 415.26 35.8
-1 5 -22 463.15 39.9
5 -4 -22 427.46 35.3
4 1 -22 426.36 35.9
1 -5 -22 401.26 31.5
-5 4 -22 406.16 35.8
-5 4 -22 349.07 34.4
1 -5 22 377.36 38
-4 -1 22 433.96 36.3
-5 4 22 401.26 32.7
-4 -1 22 427.56 36.1
5 -4 22 439.96 33
-1 5 22 422.16 26.6
-5 0 -22 232.08 21.5
0 5 -22 228.68 34.2
5 -5 -22 208.98 27.8
0 -5 -22 187.68 22.1
5 0 -22 210.68 27.5
5 -5 -22 252.17 29.3
-5 0 -22 227.68 20.5
-5 5 -22 281.87 32
0 -5 -22 224.28 23.1
0 5 -22 241.38 31.2
-5 5 -22 261.97 31.3
5 0 -22 191.08 29.1
-5 5 22 274.27 23.4
-5 0 22 198.48 29.9
0 -5 22 248.08 32.2
5 -5 22 214.58 26.3
-5 0 22 195.38 28.2
-1 -5 -22 396.06 27.5
6 -1 -22 381.66 34.7
-5 6 -22 377.96 36.9
5 -6 -22 365.36 35.8
-6 1 -22 348.87 27.4
1 5 -22 425.66 38.8
5 -6 -22 317.07 34.4
-1 -5 -22 373.26 27
1 5 -22 369.66 38.6
-5 6 -22 418.16 40.7
-6 1 -22 348.37 27.2
6 -1 -22 332.97 35.4
-6 1 22 297.67 31.3
-1 -5 22 329.67 35.9
5 -6 22 312.47 33
-5 6 22 274.27 30.3
6 -2 -22 231.18 28.1
-2 -4 -22 270.17 21.3
4 -6 -22 226.98 29.4
2 4 -22 212.28 30.1
-4 6 -22 252.57 34.1
-4 6 -22 264.37 30.7
4 -6 -22 249.68 28.7
6 -2 -22 177.88 32.3
-6 2 -22 239.98 24.2
-6 2 -22 240.88 24.7
2 4 -22 235.28 32.9
-2 -4 -22 262.87 21
-6 2 22 155.18 25.2
-2 -4 22 243.68 30.5
-4 6 22 228.08 21.3
4 -6 22 139.89 22
-2 -4 22 219.28 30.9
-6 3 -22 213.28 25.4
3 3 -22 232.78 29.5
-3 -3 -22 222.88 19.5
3 -6 -22 212.68 26.7
-3 -3 -22 260.97 19.5
-3 6 -22 233.58 33.3
6 -3 -22 215.78 29.6
3 3 -22 234.98 31.6
-3 6 -22 233.68 28.6
-6 3 -22 236.88 25.8
3 -6 -22 209.38 27.2
6 -3 -22 189.98 27.2
6 -3 22 198.68 18.5
-6 3 22 184.28 24.9
-3 6 22 177.18 19
-3 -3 22 179.28 28.5
3 -6 22 130.79 22
-3 -3 22 218.48 28.4
-6 4 -22 82.59 16.7
2 -6 -22 108.29 17.2
4 2 -22 79.69 16.2
6 -4 -22 81.19 20.1
-4 -2 -22 80.09 14
-6 4 -22 84.49 16.1
2 -6 -22 71.69 15.1
-2 6 -22 105.19 19.6
4 2 -22 76.29 19.3
6 -4 -22 85.29 18.4
-4 -2 -22 97.69 14.1
-2 6 -22 95.49 21.3
2 -6 22 81.49 18.6
-4 -2 22 72.09 17
-6 4 22 93.19 16.4
-2 6 22 92.09 14.4
-4 -2 22 90.19 16.4
-5 -1 -22 144.09 14.9
6 -5 -22 151.98 21.3
-5 -1 -22 133.69 15.1
1 -6 -22 116.29 20.8
5 1 -22 136.79 20.6
-6 5 -22 151.08 23.6
-6 5 -22 101.39 18.6
-1 6 -22 119.89 23
-1 6 -22 118.49 19.7
1 -6 -22 133.49 22
5 1 -22 87.79 19.3
6 -5 -22 134.79 21.4
-5 -1 22 126.69 20.9
-5 -1 22 100.29 19.4
6 -5 22 81.99 15.6
-1 6 22 108.79 12.9
-6 5 22 101.59 17
1 -6 22 71.59 18.6
6 -6 -22 495.75 40.7
0 -6 -22 472.55 33.5
0 -6 -22 486.35 33.7
-6 6 -22 467.45 43.6
6 0 -22 469.35 38.6
6 0 -22 434.46 40.6
-6 6 -22 500.35 42.1
-6 0 -22 454.25 29.7
0 6 -22 534.35 49.7
0 6 -22 469.65 42.9
-6 0 -22 464.15 29.7
6 -6 -22 423.86 40.2
0 -6 22 395.96 41.4
6 -6 22 393.96 36.1
-6 6 22 376.36 31.8
-6 0 22 387.36 36.5
1 6 -22 301.67 37.1
1 6 -22 267.47 34.5
-1 -6 -22 273.77 22.4
7 -1 -22 263.07 33.3
-6 7 -22 292.77 34.7
7 -1 -22 210.08 30.5
6 -7 -22 250.37 31.2
6 -7 -22 248.68 33
-6 7 -22 334.87 38.4
-7 1 -22 158.18 30.1
-7 1 22 254.17 31.5
-1 -6 22 315.07 38.3
6 -7 22 217.78 36
7 -2 -22 368.76 40.5
5 -7 -22 455.25 40.6
-5 7 -22 503.45 45.7
7 -2 -22 496.15 48.9
-2 -5 -22 436.66 29
-5 7 -22 506.15 42.1
2 5 -22 424.76 42.6
2 5 -22 430.56 41.9
5 -7 -22 384.66 37.8
-7 2 -22 415.96 35
-7 2 -22 493.15 32.9
-5 7 22 381.06 30.7
-2 -5 22 418.66 42
-7 2 22 390.86 35.4
5 -7 22 431.16 40.3
3 4 -22 171.28 25.8
4 -7 -22 198.98 29
3 4 -22 193.78 29.6
7 -3 -22 141.29 23.1
-7 3 -22 187.18 23.6
7 -3 -22 220.98 28.4
4 -7 -22 171.38 27
-4 7 -22 205.38 29.6
-3 -4 -22 200.58 16.5
-3 -4 -22 178.38 16.5
-7 3 -22 154.78 23.5
-4 7 -22 236.18 35.5
-3 -4 22 152.38 24.8
-4 7 22 183.68 20.1
-7 3 22 161.38 26.4
4 -7 22 258.97 32.6
-3 -4 22 184.48 30.3
7 -3 22 185.48 15.9
-3 7 -22 77.69 21.3
-3 7 -22 55.69 16.7
-4 -3 -22 71.59 11.5
7 -4 -22 56.39 17.5
-4 -3 -22 71.29 10.4
-7 4 -22 67.79 15.6
7 -4 -22 55.89 15.9
-7 4 -22 49 15.1
3 -7 -22 52.69 14.5
3 -7 -22 75.49 18.8
4 3 -22 63.99 20
4 3 -22 73.59 19.1
-3 7 22 48.3 10.4
3 -7 22 72.29 20.2
-4 -3 22 70.09 20
-4 -3 22 62.49 18.1
7 -4 22 52.79 11
-7 4 22 51.79 16
-5 -2 -22 34.8 6.2
-7 5 -22 34.4 14.4
-7 5 -22 43 16.5
2 -7 -22 26.7 12.6
7 -5 -22 29.3 16.9
7 -5 -22 26.7 13.6
2 -7 -22 35.7 17.5
-5 -2 -22 38.8 7.3
5 2 -22 38.2 14.7
-2 7 -22 22.8 14.7
5 2 -22 43.6 18.7
-2 7 -22 14.2 19.2
-7 5 22 25.6 14.1
-5 -2 22 38.1 15.3
7 -5 22 39.2 12.4
-2 7 22 37.4 8.8
2 -7 22 42.2 18.9
-5 -2 22 44.7 17
-1 7 -22 186.48 33.6
-1 7 -22 240.88 36.8
-7 6 -22 205.38 31.9
1 -7 -22 169.38 23.5
7 -6 -22 213.68 31.5
1 -7 -22 185.68 23.5
-7 6 -22 199.08 29.7
-6 -1 -22 193.38 15.1
7 -6 -22 167.98 25.2
6 1 -22 208.48 33.1
-6 -1 22 190.08 29.4
1 -7 22 203.28 29.8
-7 6 22 156.68 25
7 -6 22 133.99 20.4
-6 -1 22 178.18 30.5
0 7 -22 351.96 56.79
7 0 -22 386.46 39.2
0 7 -22 363.46 42
7 -7 -22 356.66 40.9
-7 7 -22 408.56 53.29
0 -7 -22 414.86 30.1
7 -7 -22 326.77 37.5
-7 0 -22 332.97 26.4
-7 7 -22 454.15 42.3
7 -7 22 362.56 37
-7 0 22 339.77 37.3
0 -7 22 424.56 44.4
-7 7 22 346.07 32.4
8 -2 -22 145.89 24
2 6 -22 116.19 22.6
-5 8 -22 149.19 23.9
8 -3 -22 122.09 21.7
3 5 -22 154.78 25
8 -3 -22 112.39 18.6
5 -8 -22 105.39 19.8
-8 3 -22 138.19 22.3
5 -8 -22 192.18 33.8
-5 8 -22 178.38 28.5
-3 -5 22 184.38 34
-5 8 22 153.18 21.1
5 -8 22 155.98 25.7
-8 3 22 118.19 20.5
-8 4 -22 71.89 16.2
-4 8 -22 69.49 17.6
4 4 -22 97.49 23
-8 4 -22 69.29 16.2
4 -8 -22 58.29 15.4
-4 8 -22 122.89 27.1
4 -8 -22 110.79 21.1
8 -4 -22 60.19 19.2
-4 8 22 67.69 20.6
4 -8 22 80.19 20.6
-4 -4 22 52.49 17.7
-4 -4 22 46.2 36.4
-8 4 22 113.19 19.1
8 -4 22 106.29 14.4
-8 5 -22 15.2 14
8 -5 -22 -6.4 11.9
-3 8 -22 9.1 20.6
3 -8 -22 7.2 12.1
-3 8 -22 12.2 13
5 3 -22 26.2 19.4
-8 5 -22 0 11.7
3 -8 -22 20.7 15.7
8 -5 -22 26.1 16.1
-5 -3 22 14.6 14.5
-5 -3 22 7.7 15.4
-8 5 22 -3 13.7
-3 8 22 17 9
8 -5 22 19.5 10.5
3 -8 22 2.2 17.9
8 -6 -22 8 17
2 -8 -22 6.5 17.3
6 2 -22 -9.1 17.1
0 0 -23 17.6 10.2
0 0 -23 6.6 10.1
0 0 23 35.6 9.5
0 -1 -23 230.18 24.2
-1 0 -23 250.77 24.7
1 0 -23 256.47 26.4
1 -1 -23 243.18 24.6
0 1 -23 251.67 26.6
0 -1 -23 242.38 24.6
0 1 -23 247.38 25.9
-1 1 -23 240.68 25
-1 1 -23 247.98 26
-1 0 -23 208.28 24
1 -1 -23 241.28 25.8
1 0 -23 265.47 26.2
0 1 23 184.08 18.9
0 -1 23 211.18 22.3
1 -1 23 191.18 20.8
1 0 23 215.88 19.7
-1 1 23 191.68 20.2
-2 1 -23 649.83 42.2
1 1 -23 676.33 44
-1 2 -23 593.44 43.6
2 -1 -23 590.34 42.7
-1 -1 -23 617.84 41
1 -2 -23 633.24 42.4
-1 -1 -23 593.54 40.3
-1 2 -23 660.33 44.3
2 -1 -23 611.84 43.3
1 -2 -23 656.23 42.5
1 1 -23 635.94 44.6
-2 1 -23 689.53 43.6
1 -2 23 484.55 37.3
-1 -1 23 535.45 37.2
-1 2 23 517.55 33.4
1 1 23 527.15 31.9
2 -1 23 513.65 33.7
0 2 -23 778.82 51.09
-2 2 -23 804.72 50.89
2 -2 -23 807.42 49.8
2 0 -23 808.12 50.69
-2 2 -23 728.83 49.6
0 -2 -23 776.12 47.8
0 2 -23 817.12 51.29
2 -2 -23 769.12 49.9
-2 0 -23 713.23 46.9
0 -2 -23 732.83 47.6
2 0 -23 750.52 50.49
-2 0 -23 786.92 48.7
2 -2 23 792.02 49.2
2 0 23 808.02 45.1
-2 2 23 776.22 47.4
0 2 23 816.22 45.3
0 -2 23 784.62 50.89
-2 0 23 800.42 49.6
-3 1 -23 477.55 36.4
3 -1 -23 450.35 37.2
1 2 -23 517.75 38.5
2 -3 -23 471.55 35.5
-1 -2 -23 475.65 33.5
-3 1 -23 441.36 34
1 2 -23 453.65 38
2 -3 -23 480.35 36.5
-2 3 -23 485.85 38.2
-2 3 -23 500.05 38.9
3 -1 -23 463.95 36.9
-1 -2 -23 467.45 33.3
2 -3 23 383.86 46.1
1 2 23 456.45 27.2
3 -1 23 438.56 38.6
-3 1 23 453.45 33.7
-2 3 23 422.36 29.9
-1 -2 23 439.06 35.2
1 -3 -23 384.56 30.3
-3 2 -23 346.47 30.8
-3 2 -23 333.37 31.9
2 1 -23 341.67 32.8
3 -2 -23 366.76 31.7
1 -3 -23 357.66 30.1
-1 3 -23 349.07 33.8
-2 -1 -23 348.17 27.7
3 -2 -23 358.96 32.5
-2 -1 -23 389.56 28.8
-1 3 -23 383.96 33.5
2 1 -23 350.86 32.6
3 -2 23 300.67 26
-3 2 23 338.27 26.3
1 -3 23 299.57 30
2 1 23 308.07 21.1
-2 -1 23 340.97 29.6
-1 3 23 330.77 23.8
0 -3 -23 275.97 25.1
3 -3 -23 230.78 26.8
3 0 -23 265.87 29.5
-3 0 -23 264.47 23.4
-3 3 -23 255.07 28
0 3 -23 230.78 28.6
-3 0 -23 264.67 25.4
3 0 -23 264.37 27.9
0 3 -23 246.18 29.6
0 -3 -23 261.97 24.6
3 -3 -23 236.58 27.8
-3 3 -23 253.87 28.7
0 -3 23 260.47 29.3
0 3 23 305.07 20.6
3 -3 23 251.27 26.3
3 0 23 273.47 19.3
-3 0 23 249.58 27.1
-1 -3 -23 60.09 12.7
3 -4 -23 41.8 14.6
-1 -3 -23 44.9 11
-3 4 -23 58.49 16.5
1 3 -23 74.99 18.4
4 -1 -23 23.4 14.7
1 3 -23 22.3 12.8
-4 1 -23 53.69 13.1
-4 1 -23 48.3 12.4
-3 4 -23 33.5 13.3
4 -1 -23 35.7 13.3
3 -4 -23 27.6 12.2
-3 4 23 28.6 9.9
-4 1 23 17 11.8
-1 -3 23 26.2 13.2
4 -1 23 33.5 7.5
1 3 23 46.5 6.9
3 -4 23 49.5 18.1
2 2 -23 74.69 15.2
-2 4 -23 60.69 16.4
-2 -2 -23 89.49 13.6
4 -2 -23 68.19 14.5
-4 2 -23 78.49 15.8
-2 4 -23 81.79 18.4
2 -4 -23 73.89 14.9
4 -2 -23 92.59 18
2 -4 -23 59.19 15.2
-4 2 -23 77.09 15.1
-2 -2 -23 82.79 13.4
2 2 23 64.49 9.4
-4 2 23 72.19 14.7
-2 4 23 74.39 11.7
4 -2 23 91.09 15.9
2 -4 23 85.69 16.9
-2 -2 23 76.69 16.5
4 -3 -23 69.79 16.7
-3 -1 -23 67.49 11.9
3 1 -23 86.19 16.9
1 -4 -23 54.69 12.9
3 1 -23 42.8 26.3
-4 3 -23 64.89 15
-3 -1 -23 73.69 13.5
4 -3 -23 86.09 16.3
1 -4 -23 63.39 14.1
-4 3 -23 70.09 16.3
-1 4 -23 69.09 15.8
-1 4 -23 92.39 19.2
-1 4 23 91.59 14.1
3 1 23 81.59 13.6
1 -4 23 61.69 15.1
4 -3 23 85.09 14.1
-4 3 23 52.89 12.3
-3 -1 23 74.69 14.7
-4 4 -23 -6.9 10.6
-4 0 -23 10.4 9.3
0 4 -23 -9 11.4
0 4 -23 -1.8 14.2
0 -4 -23 1.5 10.2
4 -4 -23 4.1 13
0 -4 -23 15.2 11.6
4 0 -23 -4.6 14.2
4 -4 -23 1.9 11.4
4 0 -23 -6.2 11.1
-4 0 -23 9.2 8.9
-4 4 -23 4.8 12.6
0 4 23 2.2 5.8
-4 0 23 -4.5 11.5
0 -4 23 -3.9 11.2
4 0 23 3.2 4.1
4 -4 23 -10.6 9.2
-4 5 -23 140.29 22.7
4 -5 -23 77.19 16.9
4 -5 -23 62.99 16.4
5 -1 -23 113.49 18.5
-4 5 -23 68.39 16.7
5 -1 -23 50.19 17.1
-5 1 -23 67.89 13
-1 -4 -23 85.89 12.9
1 4 -23 103.59 25.1
-5 1 -23 83.59 14
-1 -4 -23 83.89 13.3
1 4 -23 106.99 19.8
-1 -4 23 66.19 18.7
-4 5 23 63.99 12.5
5 -1 23 74.39 8.8
-5 1 23 95.99 17.2
4 -5 23 79.49 21.4
3 -5 -23 181.08 26.8
-3 5 -23 224.28 30.5
2 3 -23 204.78 29
-5 2 -23 189.98 23.3
-2 -3 -23 209.88 20.6
-2 -3 -23 169.88 19.4
-3 5 -23 229.78 28.6
5 -2 -23 162.48 27
2 3 -23 164.88 27.4
3 -5 -23 169.08 24.8
5 -2 -23 207.38 26.6
-5 2 -23 172.68 22.7
-2 -3 23 176.28 27.8
5 -2 23 179.68 16.8
-3 5 23 180.78 19.7
-5 2 23 191.78 24.9
3 -5 23 166.18 26.9
-2 5 -23 265.17 33.2
-5 3 -23 243.38 27.1
-2 5 -23 250.47 29.2
2 -5 -23 218.78 25.9
-3 -2 -23 197.88 21.2
-3 -2 -23 221.68 21
5 -3 -23 172.08 28
2 -5 -23 222.48 26.5
5 -3 -23 223.88 26.8
3 2 -23 259.87 28.8
-5 3 -23 202.38 26.1
3 2 -23 181.88 30
-5 3 23 219.38 25.5
2 -5 23 207.18 30.2
-3 -2 23 227.48 29.4
5 -3 23 253.67 22.5
-2 5 23 212.88 20.8
4 1 -23 435.46 40.2
-1 5 -23 483.35 41.8
-4 -1 -23 405.16 30.5
1 -5 -23 454.95 33.8
5 -4 -23 371.06 36.2
4 1 -23 423.76 37.1
5 -4 -23 458.05 37
-5 4 -23 361.46 36.6
-5 4 -23 516.15 38.9
-1 5 -23 426.36 38.8
-4 -1 -23 424.26 29.3
1 -5 -23 439.46 33.4
5 -4 23 432.76 33.9
-1 5 23 437.36 27.3
1 -5 23 442.86 40.6
-5 4 23 427.56 33.5
-4 -1 23 399.56 36.6
-5 5 -23 354.96 34.5
-5 0 -23 305.17 24.7
0 5 -23 333.97 35.6
5 -5 -23 329.37 33.6
5 0 -23 263.07 42.7
-5 0 -23 324.57 26
0 5 -23 339.97 36.7
5 0 -23 289.27 31.7
5 -5 -23 344.97 33.5
0 -5 -23 343.17 27.3
-5 5 -23 273.77 34.2
0 -5 -23 336.47 27.9
-5 0 23 257.37 29.9
5 -5 23 232.08 28.4
0 5 23 257.77 17.1
0 -5 23 298.37 34.4
5 -6 -23 39.2 16.4
-6 1 -23 63.09 12.2
-5 6 -23 81.59 19.4
-1 -5 -23 84.79 13.9
6 -1 -23 45.6 15.9
5 -6 -23 54.79 16.1
6 -1 -23 52.89 19.8
-5 6 -23 66.09 20.5
1 5 -23 67.59 24.4
-1 -5 -23 70.59 12.1
1 5 -23 60.39 19.6
-6 1 -23 69.89 13.1
-5 6 23 53.09 12.9
5 -6 23 77.59 23.1
-6 1 23 47.7 15.3
-1 -5 23 88.89 21.6
-6 2 -23 292.47 27
-2 -4 -23 285.97 22.9
-4 6 -23 295.97 33.4
2 4 -23 254.87 35.2
4 -6 -23 249.97 30.8
6 -2 -23 215.28 31.4
-4 6 -23 297.57 37.1
6 -2 -23 261.67 30.1
-2 -4 -23 294.47 23.1
-6 2 -23 312.17 27.6
2 4 -23 267.37 32.8
4 -6 -23 254.47 29.9
4 -6 23 293.37 33
-6 2 23 283.37 30.1
6 -2 23 314.67 20
-4 6 23 275.47 25.1
-2 -4 23 243.38 34.4
3 3 -23 316.47 34.1
-6 3 -23 326.87 30.6
6 -3 -23 305.37 32.1
3 -6 -23 322.67 32
-3 -3 -23 332.87 24.1
6 -3 -23 315.57 34.9
3 3 -23 321.67 37.2
-6 3 -23 278.77 29.7
-3 -3 -23 313.07 24.2
3 -6 -23 345.47 33.3
-3 6 -23 395.96 34.9
-3 6 -23 392.66 39.9
3 -6 23 275.17 33.4
-3 6 23 307.97 24.1
6 -3 23 269.47 22.7
-3 -3 23 283.97 34.4
-6 3 23 307.27 29.8
2 -6 -23 609.84 43.3
-2 6 -23 650.93 48.2
4 2 -23 650.43 46.4
-6 4 -23 532.05 44.4
6 -4 -23 629.14 45.8
4 2 -23 644.84 49.8
6 -4 -23 564.94 46.6
-2 6 -23 706.23 52.69
2 -6 -23 594.24 43.4
-6 4 -23 604.04 45.3
-4 -2 -23 590.34 36.1
-4 -2 -23 628.44 37.4
2 -6 23 551.84 47
6 -4 23 546.95 37.7
-4 -2 23 597.34 45.4
-6 4 23 554.64 40.7
-2 6 23 546.45 34.4
1 -6 -23 623.74 44.9
6 -5 -23 610.44 47.9
5 1 -23 635.94 49.99
1 -6 -23 621.44 43.3
-6 5 -23 645.54 49.5
5 1 -23 582.44 56.79
-5 -1 -23 664.53 38.1
-5 -1 -23 627.44 37.5
6 -5 -23 630.94 48.3
-1 6 -23 656.73 49.9
-1 6 -23 711.63 53.59
-6 5 -23 703.23 49.7
1 -6 23 617.64 51.19
-6 5 23 625.14 43.6
-5 -1 23 613.04 47.3
-1 6 23 624.94 41.9
6 -5 23 643.24 44.5
6 0 -23 301.77 33.4
6 -6 -23 346.67 36.6
0 6 -23 315.27 37.3
-6 0 -23 335.77 25
-6 0 -23 343.17 31.5
0 -6 -23 338.37 28.3
6 -6 -23 355.96 35.2
0 6 -23 380.26 41
-6 6 -23 348.67 37.1
-6 6 -23 312.17 38.3
6 0 -23 313.07 36.5
0 -6 -23 374.46 29.7
-6 6 23 220.08 26.1
0 -6 23 267.67 37.1
6 -6 23 237.78 30
-6 0 23 267.87 31.6
1 6 -23 33.1 22.8
6 -7 -23 7.3 15.6
6 -7 -23 15.8 18.3
-6 7 -23 25.8 18.4
-6 7 -23 30.2 16.3
-1 -6 -23 20.4 14.1
-1 -6 -23 25.5 9.7
1 6 -23 35.6 17.5
-7 1 -23 29.1 10.3
7 -1 -23 14.4 19
-1 -6 23 26.8 19.6
6 -7 23 36.9 21.3
-7 1 23 31.3 16.6
-6 7 23 38.8 14.6
-5 7 -23 119.49 26.3
-5 7 -23 126.29 21.9
-2 -5 -23 130.49 18.5
2 5 -23 111.79 23.4
7 -2 -23 74.89 17.3
2 5 -23 165.78 27.3
-7 2 -23 111.49 19.9
-7 2 -23 106.39 15.3
-2 -5 -23 131.99 20.9
5 -7 -23 100.79 22.5
5 -7 -23 96.19 20
7 -2 -23 101.69 21.9
-5 7 23 98.89 14.8
5 -7 23 96.29 20.3
-2 -5 23 69.99 20.6
-7 2 23 88.39 18
-7 3 -23 292.37 30.3
4 -7 -23 333.47 34.7
-7 3 -23 382.46 31.4
3 4 -23 370.36 40.3
4 -7 -23 338.77 45.8
7 -3 -23 346.17 36.5
-4 7 -23 405.36 42.6
-4 7 -23 331.97 44.2
-3 -4 -23 353.96 24.2
7 -3 -23 366.56 35.4
3 4 -23 307.47 36.2
-3 -4 -23 366.76 24.2
-7 3 23 308.47 32.8
4 -7 23 318.67 37.5
-4 7 23 312.67 26.4
-3 -4 23 405.96 39.6
-3 7 -23 364.56 37.2
-4 -3 -23 285.17 20.6
7 -4 -23 275.17 34.6
-3 7 -23 368.96 41.4
4 3 -23 289.67 38.1
-7 4 -23 307.97 32
3 -7 -23 276.47 30.8
-4 -3 -23 308.97 20.1
-7 4 -23 211.58 29.6
7 -4 -23 312.87 33.2
4 3 -23 279.07 34.4
3 -7 -23 325.07 34.6
3 -7 23 275.37 36.4
-7 4 23 191.78 28.7
7 -4 23 225.18 22.3
-3 7 23 239.08 21.8
-4 -3 23 245.58 33.7
-5 -2 -23 280.97 19.1
2 -7 -23 278.37 28.8
-2 7 -23 260.77 40.5
7 -5 -23 281.17 33.4
7 -5 -23 230.38 33.3
5 2 -23 211.78 36.1
-5 -2 -23 283.17 18.3
-2 7 -23 254.57 33.2
-7 5 -23 311.27 32.9
-7 5 -23 280.17 33
-5 -2 23 294.07 35.5
2 -7 23 295.67 38.6
-7 5 23 269.67 30.4
7 -5 23 258.07 27.5
-2 7 23 267.17 21.9
-7 6 -23 406.06 41.1
1 -7 -23 376.16 32.5
7 -6 -23 357.86 40.4
6 1 -23 357.56 40.2
1 -7 -23 379.76 32.7
-1 7 -23 557.14 55.09
-7 6 -23 374.86 39
7 -6 -23 364.26 39.8
-1 7 -23 501.05 46.1
7 -6 23 322.87 33.2
-6 -1 23 332.87 36.5
1 -7 23 395.96 42.9
-7 6 23 312.37 31.7
4 -8 -23 388.66 38.2
8 -4 -23 387.46 39.4
0 0 -24 2618.04 135.09
0 0 -24 2481.95 134.49
0 0 24 2504.65 130.19
1 -1 -24 1225.58 73.49
-1 1 -24 1263.07 73.69
-1 0 -24 1270.77 72.69
-1 0 -24 1307.87 73.69
0 1 -24 1318.37 74.89
-1 1 -24 1270.97 74.29
0 1 -24 1242.18 74.09
0 -1 -24 1263.97 72.89
1 -1 -24 1268.57 74.49
1 0 -24 1267.57 74.09
0 -1 -24 1335.17 73.69
1 0 -24 1322.17 74.49
1 -1 24 1165.48 62.49
0 1 24 1138.19 60.69
-1 0 24 938.31 64.49
-1 1 24 1108.19 61.59
1 0 24 1125.79 60.59
0 -1 24 990.5 65.59
-1 -1 -24 211.38 23.7
-1 2 -24 204.78 26.3
1 -2 -24 190.48 25.2
2 -1 -24 205.08 26.6
-2 1 -24 216.48 25.4
1 1 -24 205.88 27.1
1 1 -24 212.08 26.3
-1 2 -24 250.17 27.7
2 -1 -24 173.68 24.7
-1 -1 -24 249.48 24
1 -2 -24 239.28 24.8
-2 1 -24 191.18 24.4
-1 2 24 206.68 20.9
2 -1 24 197.98 20.8
1 -2 24 257.77 28.2
1 1 24 203.78 22
-1 -1 24 203.78 24.3
2 -2 -24 100.69 17.1
0 -2 -24 109.39 17
-2 2 -24 84.49 17.1
2 -2 -24 100.79 17
-2 2 -24 92.09 17.4
-2 0 -24 127.49 20.4
0 -2 -24 103.79 15.5
-2 0 -24 88.39 15.3
0 2 -24 89.69 18.8
2 0 -24 79.69 15.8
2 0 -24 104.29 18.2
0 2 -24 118.89 18.3
-2 2 24 118.89 18.1
2 -2 24 119.39 19.9
0 -2 24 152.48 22.7
0 2 24 131.89 16.2
2 0 24 132.59 17.2
-2 0 24 126.49 20.8
-2 3 -24 97.29 17.4
-1 -2 -24 96.59 15.7
1 2 -24 139.39 24.5
-3 1 -24 94.09 16.7
-1 -2 -24 105.99 18.7
-2 3 -24 94.69 18.2
2 -3 -24 87.99 15.7
1 2 -24 66.19 16.8
-3 1 -24 113.79 20.2
2 -3 -24 85.79 16.8
3 -1 -24 98.99 19.3
3 -1 -24 99.69 17
-2 3 24 82.09 12.4
2 -3 24 78.69 15.7
1 2 24 86.19 12.6
-3 1 24 78.59 15.1
3 -1 24 98.59 15.1
-1 -2 24 100.69 16.6
1 -3 -24 88.69 16.6
-1 3 -24 108.59 19.3
-3 2 -24 96.39 16.9
3 -2 -24 109.09 18.6
2 1 -24 92.79 18.1
3 -2 -24 87.49 15.7
-1 3 -24 98.79 18.2
2 1 -24 111.49 17.3
-2 -1 -24 93.59 14.3
-3 2 -24 81.29 17.1
1 -3 -24 67.29 13.9
-2 -1 -24 99.29 15.1
-2 -1 24 78.49 15.7
1 -3 24 131.59 22.2
-1 3 24 93.19 15.4
2 1 24 91.59 12.5
3 -2 24 110.49 18.1
-3 3 -24 218.98 27.2
3 -3 -24 216.58 26.4
0 -3 -24 188.58 23
3 -3 -24 209.68 27
-3 0 -24 229.08 22.6
0 -3 -24 205.88 24
-3 3 -24 252.77 27.5
-3 0 -24 184.08 24
0 3 -24 220.08 29.6
3 0 -24 232.28 26.6
3 0 -24 189.38 28.1
0 3 -24 207.98 27.9
-3 3 24 207.08 21.7
0 -3 24 194.88 27.1
-3 0 24 257.47 26.5
3 0 24 200.68 16.7
0 3 24 200.58 17.8
3 -3 24 203.68 24.3
-1 -3 -24 259.17 24.7
-4 1 -24 276.87 25.5
-3 4 -24 227.58 31.4
-3 4 -24 330.67 31.8
3 -4 -24 267.77 29.9
4 -1 -24 254.37 37.7
-4 1 -24 265.17 32.3
1 3 -24 280.27 30.2
3 -4 -24 253.47 27.9
4 -1 -24 249.28 30.6
-1 -3 -24 234.98 24.6
1 3 -24 274.17 32.7
3 -4 24 211.68 25.7
1 3 24 191.78 16.2
-1 -3 24 204.88 28.3
4 -1 24 210.08 17
-4 1 24 170.78 24.5
-3 4 24 221.58 21.4
2 -4 -24 327.27 30.9
-2 4 -24 257.37 32.8
4 -2 -24 323.07 31.2
-2 -2 -24 296.07 26.3
2 2 -24 281.87 30.9
2 -4 -24 293.37 29.6
-2 -2 -24 358.36 27
-4 2 -24 265.77 28.4
2 2 -24 316.97 34.3
-2 4 -24 366.56 34.3
-4 2 -24 325.47 30.7
4 -2 -24 370.26 32.7
2 -4 24 349.37 30.6
-2 -2 24 280.87 30.5
-4 2 24 249.28 26.9
4 -2 24 276.07 23.2
-2 4 24 279.87 23.5
2 2 24 308.67 20.6
-3 -1 -24 250.77 24.2
-3 -1 -24 212.18 22
1 -4 -24 238.78 24.9
4 -3 -24 205.28 28.1
1 -4 -24 252.47 26.2
-1 4 -24 211.28 28
4 -3 -24 211.08 26.9
3 1 -24 215.08 27.5
-4 3 -24 196.38 27.1
3 1 -24 184.78 29.3
-1 4 -24 216.88 29.9
-4 3 -24 236.68 28
-1 4 24 240.68 20.4
-3 -1 24 222.68 27.9
3 1 24 263.37 15.8
1 -4 24 261.57 30.5
4 -3 24 224.38 24.4
-4 3 24 261.97 25.3
4 -4 -24 284.17 30.9
4 -4 -24 273.07 31.9
0 4 -24 325.47 34.4
4 0 -24 250.37 32.3
-4 0 -24 324.67 27.1
-4 4 -24 306.07 31.6
0 -4 -24 287.17 26.6
-4 0 -24 276.37 24.9
4 0 -24 282.97 30.5
0 -4 -24 308.47 28.6
0 4 -24 284.57 31.8
-4 4 -24 246.58 31
-4 4 24 272.47 26.1
-4 0 24 286.87 30.9
0 -4 24 332.47 34.5
4 -4 24 349.87 29.8
0 4 24 290.77 20.7
-4 5 -24 325.07 34.1
1 4 -24 307.37 35.4
-5 1 -24 269.57 26.5
-4 5 -24 298.37 35.4
4 -5 -24 318.87 32.1
-5 1 -24 281.47 26.1
4 -5 -24 264.77 31.1
-1 -4 -24 304.67 25.8
5 -1 -24 319.87 31.9
1 4 -24 273.97 32.7
-1 -4 -24 277.27 24.7
5 -1 -24 238.88 31.8
4 -5 24 289.17 32
-4 5 24 329.17 26.9
-1 -4 24 305.77 35.4
-5 1 24 297.47 31.3
3 -5 -24 274.37 30.1
2 3 -24 235.18 30.5
-3 5 -24 290.17 31.7
2 3 -24 220.78 32.6
-2 -3 -24 276.07 23.6
-5 2 -24 218.38 36.5
-2 -3 -24 242.08 23.2
-5 2 -24 224.68 25.7
-3 5 -24 240.08 33.7
5 -2 -24 277.57 29.9
3 -5 -24 247.48 28.3
5 -2 -24 218.98 30.5
5 -2 24 212.68 18.2
3 -5 24 280.67 29.5
-2 -3 24 239.98 30.7
-5 2 24 199.48 26.5
-3 5 24 194.38 21.3
-5 3 -24 70.99 15.8
-2 5 -24 21 16.6
3 2 -24 93.29 18.5
-3 -2 -24 63.89 12.9
-3 -2 -24 65.89 12.6
5 -3 -24 75.39 16.3
-5 3 -24 49.7 14.9
-2 5 -24 88.39 17.8
2 -5 -24 66.59 15.6
2 -5 -24 87.99 17.1
3 2 -24 88.59 20.6
5 -3 -24 80.39 18.9
5 -3 24 70.89 12.8
-5 3 24 87.89 15.4
2 -5 24 67.69 17.2
-3 -2 24 97.79 19.5
-2 5 24 74.09 11.6
-4 -1 -24 70.69 12.4
1 -5 -24 52.49 14.7
-1 5 -24 65.09 18
-4 -1 -24 54.59 11.3
5 -4 -24 49.6 15.6
5 -4 -24 66.39 16.9
1 -5 -24 53.29 13.8
4 1 -24 49.3 15.4
-5 4 -24 56.29 17.4
-1 5 -24 39.1 18.8
4 1 -24 70.39 19.5
-5 4 -24 58.19 15.7
1 -5 24 83.89 18
-5 4 24 67.19 14.7
5 -4 24 65.19 14.1
-1 5 24 77.29 10.6
-4 -1 24 83.29 18.6
-5 0 -24 126.39 22.1
5 0 -24 167.28 29.8
5 -5 -24 137.49 22.8
-5 5 -24 147.99 23.2
0 -5 -24 150.08 21.4
5 -5 -24 158.78 26.7
0 -5 -24 110.69 24.9
0 5 -24 177.88 31.5
5 0 -24 169.48 27.4
-5 0 -24 149.79 19.9
-5 5 -24 163.08 24.5
0 5 -24 197.48 30.5
0 -5 24 155.68 25.3
-5 0 24 165.78 26.6
5 -5 24 148.49 25.4
-6 1 -24 87.99 13.6
-5 6 -24 88.79 22.3
5 -6 -24 53.49 16.7
5 -6 -24 58.19 18.9
1 5 -24 95.09 19.8
-1 -5 -24 80.59 14.3
1 5 -24 74.29 20.3
6 -1 -24 49.9 17.6
6 -1 -24 68.29 16.9
-6 1 -24 70.99 13.6
-5 6 -24 71.09 19
-1 -5 -24 100.29 17.2
-6 1 24 32 14.5
-1 -5 24 54.99 18.2
-5 6 24 47.1 13.1
5 -6 24 62.69 17
2 4 -24 114.19 21.5
-4 6 -24 145.79 23.7
4 -6 -24 160.78 22.8
6 -2 -24 135.49 23.3
6 -2 -24 101.09 18
-6 2 -24 125.19 21.5
-2 -4 -24 121.49 17.6
4 -6 -24 154.48 26
2 4 -24 84.99 18.8
-6 2 -24 117.99 21.2
-4 6 -24 95.69 19.7
-4 6 24 88.49 13.9
-6 2 24 104.39 18.2
4 -6 24 95.29 18.2
-2 -4 24 76.39 18.4
3 -6 -24 54.69 19
3 3 -24 93.99 22.4
6 -3 -24 31.7 18.1
-6 3 -24 52.59 16.2
-6 3 -24 80.09 20.2
-3 -3 -24 38.1 11.1
3 -6 -24 57.39 15.9
3 3 -24 50.89 17.3
-3 6 -24 47.5 15.3
-3 6 -24 56.09 20
6 -3 -24 70.59 16.4
-3 -3 -24 49.1 11
-3 -3 24 73.19 18.7
6 -3 24 62.49 10.8
-6 3 24 66.09 16.7
-3 6 24 56.89 16.6
3 -6 24 68.29 17.8
-6 4 -24 171.18 26.9
4 2 -24 136.79 28.6
2 -6 -24 172.38 25.4
-6 4 -24 185.28 30.2
2 -6 -24 225.08 32.9
-4 -2 -24 180.48 21.2
-4 -2 -24 207.88 19.8
6 -4 -24 178.18 30.2
-2 6 -24 209.08 30.6
6 -4 -24 185.98 28.3
-2 6 -24 211.68 35.4
4 2 -24 211.98 33.9
-4 -2 24 183.08 29.6
-6 4 24 141.99 24.6
2 -6 24 190.88 32.7
-2 6 24 158.18 18
6 -4 24 163.98 21.5
1 -6 -24 136.59 22.9
-1 6 -24 168.58 27.1
-1 6 -24 177.58 26.8
5 1 -24 121.49 22.2
6 -5 -24 138.49 21.9
1 -6 -24 145.49 23.9
-6 5 -24 148.39 25.9
6 -5 -24 131.59 22.2
5 1 -24 194.58 28.8
-6 5 -24 139.19 21.7
1 -6 24 117.69 22.6
-6 5 24 140.69 20.2
6 -5 24 122.79 18.5
-1 6 24 126.89 13.9
-5 -1 24 101.89 20.7
0 -6 -24 20.3 10.3
6 -6 -24 -0.2 15.7
0 -6 -24 18.8 13.3
-6 0 -24 19.1 11.6
-6 0 -24 19 9.2
6 0 -24 25.4 17.6
0 6 -24 6.3 32.3
-6 6 -24 -8 17.2
-6 6 -24 -4.2 15.7
0 6 -24 -4.3 19.1
6 -6 -24 27.4 18.5
6 0 -24 -1.8 12.9
-6 6 24 29.2 11.1
-6 0 24 2.3 14.4
6 -6 24 -0.3 13
0 -6 24 4.9 15.8
-2 -5 -24 55.59 11.7
5 -7 -24 66.39 21
7 -2 -24 51.69 18.8
3 4 -24 54.39 21.5
7 -3 -24 72.49 19.7
4 -7 -24 87.49 20.5
-3 -4 -24 54.99 10.8
-4 -3 -24 594.14 34.6
3 -7 -24 590.84 45.5
7 -4 -24 539.85 47.9
4 3 -24 715.43 65.69
7 -5 -24 692.13 54.99
-5 -2 -24 764.22 41.4
2 -7 -24 791.22 50.99
0 0 -25 15.4 11.5
0 0 -25 9.4 11.8
0 0 25 8.1 8.8
-1 1 -25 648.34 45.4
-1 1 -25 676.73 45.4
-1 0 -25 640.04 44.5
1 -1 -25 593.24 44.2
1 0 -25 706.83 45.6
1 -1 -25 628.64 45.2
0 -1 -25 659.23 44
1 0 -25 602.04 44.9
0 1 -25 673.83 46.2
0 1 -25 669.73 45.7
0 -1 -25 607.14 43.8
-1 0 -25 640.14 43.7
-1 0 25 581.04 43.4
1 -1 25 616.34 40.2
1 0 25 592.54 38.2
0 1 25 622.54 38.6
0 -1 25 637.34 42.1
-1 1 25 586.44 39.2
1 -2 -25 767.22 50.09
-2 1 -25 800.82 51.89
-1 2 -25 775.22 52.29
-2 1 -25 723.53 49.99
-1 -1 -25 808.52 50.09
1 1 -25 726.53 51.99
2 -1 -25 745.33 51.39
1 -2 -25 694.83 49.99
1 1 -25 808.82 52.49
-1 2 -25 862.91 53.59
-1 -1 -25 793.82 49.3
2 -1 -25 795.82 51.69
2 -1 25 784.52 48.4
1 1 25 828.42 46.7
-1 -1 25 830.42 52.29
-1 2 25 820.92 48.3
1 -2 25 819.72 51.89
0 -2 -25 848.32 53.19
0 -2 -25 903.91 53.69
-2 2 -25 840.92 55.89
-2 2 -25 841.82 55.09
0 2 -25 820.22 56.19
-2 0 -25 764.12 51.69
2 -2 -25 826.92 54.89
0 2 -25 886.11 56.49
2 0 -25 862.71 55.69
2 0 -25 778.62 55.09
2 -2 -25 866.31 54.79
-2 0 -25 932.71 54.99
-2 2 25 807.72 50.19
2 -2 25 813.72 51.59
-2 0 25 870.01 52.99
0 -2 25 880.81 53.99
2 0 25 825.92 47.6
1 2 -25 376.96 34.7
-2 3 -25 333.57 33.5
-3 1 -25 379.86 32.5
-3 1 -25 312.87 29.9
1 2 -25 267.67 31.7
2 -3 -25 317.87 31.1
-1 -2 -25 332.47 28.6
-2 3 -25 314.67 33.5
-1 -2 -25 360.36 29.2
2 -3 -25 303.57 30.3
3 -1 -25 284.67 32
3 -1 -25 322.37 31.3
-2 3 25 298.87 25.8
1 2 25 335.67 22.6
2 -3 25 328.67 31
-1 -2 25 363.36 32.7
-3 1 25 315.27 29.4
3 -1 25 339.67 24.6
3 -2 -25 174.48 26.7
2 1 -25 174.88 25.1
-3 2 -25 183.88 26
-2 -1 -25 191.08 22.1
1 -3 -25 180.68 24.7
-1 3 -25 156.68 27.8
1 -3 -25 188.28 24.5
-2 -1 -25 209.58 23.2
-1 3 -25 164.38 26.8
3 -2 -25 197.78 27.3
2 1 -25 162.28 28
-3 2 -25 176.68 26.7
1 -3 25 189.68 22.8
-2 -1 25 144.09 24.3
3 -2 25 173.18 20.2
-1 3 25 163.68 18
2 1 25 138.29 14.7
3 0 -25 99.49 20.1
-3 3 -25 72.49 15.5
-3 0 -25 61.99 13.5
0 -3 -25 79.09 14
3 0 -25 32.3 13.7
0 3 -25 80.89 19
3 -3 -25 65.89 16.5
0 3 -25 51.09 14.5
3 -3 -25 55.99 16.6
-3 3 -25 66.29 16.6
0 -3 -25 58.99 14.5
0 3 25 72.89 10.3
0 -3 25 71.19 16.9
3 -3 25 75.69 15
3 0 25 70.09 11.6
-3 0 25 78.69 17
-3 3 25 48.6 11.6
-1 -3 -25 -6.3 9.5
1 3 -25 5.8 13.4
3 -4 -25 7.7 14
3 -4 -25 9.1 11.6
-1 -3 -25 0.6 11
4 -1 -25 -8.7 13
-4 1 -25 8.9 11.8
4 -1 -25 20.7 13.7
-4 1 -25 19.2 11.6
-3 4 -25 24.1 14.9
1 3 -25 10.7 15.3
-3 4 -25 -1.1 11.3
-3 4 25 1.7 8.8
1 3 25 9.2 6.2
3 -4 25 22.1 13.2
-4 1 25 6 10.7
-1 -3 25 10.4 12.9
4 -1 25 4.7 6.3
-4 2 -25 42.7 14.1
-2 4 -25 56.59 16.7
2 2 -25 28.4 13
2 -4 -25 15.2 12.2
-2 -2 -25 13.1 11.3
-4 2 -25 20.5 13.3
4 -2 -25 18.5 15.5
-2 4 -25 21.1 15.1
-2 -2 -25 34 11.5
4 -2 -25 32 14.2
2 -4 -25 41.7 15.6
2 2 -25 22.7 16
2 -4 25 18.6 10.3
-4 2 25 35.1 11.6
-2 4 25 41.3 10.2
4 -2 25 34.2 9.5
-2 -2 25 28.4 14.6
-3 -1 -25 36.9 11.9
1 -4 -25 33.2 14.1
4 -3 -25 56.59 15.1
-4 3 -25 74.29 15.9
-3 -1 -25 39.3 12.5
-1 4 -25 60.99 17.8
1 -4 -25 51.79 13.8
3 1 -25 44.6 18
3 1 -25 35.7 14.2
-4 3 -25 33 14.8
-1 4 -25 22 16.4
4 -3 -25 67.29 17.7
-4 3 25 67.19 11.9
4 -3 25 59.89 12.7
1 -4 25 68.19 17.9
-3 -1 25 28.9 13.5
-1 4 25 55.69 10.4
0 4 -25 81.49 18.5
4 -4 -25 93.69 19.1
0 -4 -25 72.09 15.9
4 -4 -25 64.29 18.5
4 0 -25 91.59 18.3
-4 4 -25 93.69 17.4
-4 0 -25 80.99 15.1
-4 4 -25 95.89 18.9
4 0 -25 70.59 18.3
0 4 -25 84.79 19.2
0 -4 -25 91.89 15.7
-4 0 -25 77.39 16.5
-4 0 25 51.79 15.1
0 4 25 77.39 11.6
0 -4 25 76.99 18
-4 4 25 64.89 15.3
4 -4 25 72.09 15.6
1 4 -25 29.2 17.1
5 -1 -25 28.5 17.2
-5 1 -25 25.2 11.9
-5 1 -25 22.7 11.8
4 -5 -25 16.9 14.6
1 4 -25 40.6 15.4
-1 -4 -25 25.5 10.8
-4 5 -25 27.6 18
5 -1 -25 26.9 13.1
-1 -4 -25 15.5 11.6
-4 5 -25 25.8 15.5
4 -5 -25 24.8 14.9
-4 5 25 20.4 10.7
-5 1 25 10.2 13.4
-1 -4 25 12.2 14.6
4 -5 25 22.6 14.2
-3 5 -25 164.38 25
2 3 -25 167.68 28.2
3 -5 -25 144.49 21.5
-5 2 -25 142.49 22.2
-5 2 -25 127.49 22.7
3 -5 -25 144.89 25.4
5 -2 -25 99.19 20.5
-2 -3 -25 173.68 30.1
5 -2 -25 146.19 26.3
-2 -3 -25 156.18 20.1
-3 5 -25 122.69 22.6
2 3 -25 139.29 23.9
-2 -3 25 112.29 20.6
-3 5 25 139.89 19.5
5 -2 25 153.68 16.2
-5 2 25 132.59 19.5
3 2 -25 296.17 35.4
3 2 -25 227.18 30.3
-5 3 -25 291.87 30.6
-3 -2 -25 268.97 24.9
5 -3 -25 232.18 31.6
-5 3 -25 245.48 38.2
2 -5 -25 177.48 29.7
-2 5 -25 290.77 36.6
-2 5 -25 282.27 32.6
2 -5 -25 234.18 28.3
5 -3 -25 268.97 30.5
5 -3 25 267.77 24.5
-3 -2 25 298.07 32.9
-2 5 25 262.07 22.5
-5 3 25 237.78 28.1
2 -5 25 302.97 33.2
1 -5 -25 203.58 34.4
4 1 -25 241.98 30.8
-4 -1 -25 237.08 23.4
5 -4 -25 177.28 30.4
5 -4 -25 223.08 30
-4 -1 -25 214.58 23.1
-1 5 -25 227.68 34.3
-5 4 -25 283.27 31.3
4 1 -25 274.07 34.1
-1 5 -25 251.17 31.5
1 -5 -25 229.58 27.4
-5 4 -25 223.28 38.7
5 -4 25 249.97 27.2
-5 4 25 254.57 27.1
-4 -1 25 260.17 31.8
1 -5 25 228.08 34.4
-1 5 25 270.87 20.6
5 -5 -25 260.07 32.6
0 5 -25 235.38 34
5 0 -25 240.38 31
-5 5 -25 173.68 37.8
0 -5 -25 221.18 25.6
0 -5 -25 267.47 25.6
-5 5 -25 242.78 31.9
0 5 -25 225.88 35.6
-5 0 -25 257.37 24.5
-5 0 -25 250.57 23.4
5 0 -25 222.38 33.5
5 -5 -25 248.88 31.7
5 -5 25 228.08 29.4
0 -5 25 237.58 35
-5 0 25 208.88 29.6
6 -1 -25 5.7 16.3
-1 -5 -25 4.5 11.4
5 -6 -25 -2.1 17
6 -2 -25 165.48 28.5
-4 6 -25 173.28 29.8
4 -6 -25 198.68 27.8
2 4 -25 170.58 26.9
-6 2 -25 178.18 23.7
-2 -4 -25 155.98 20.4
6 -2 -25 128.79 22.8
-2 -4 -25 163.88 20.1
-4 6 -25 190.68 29.2
2 4 -25 127.09 33.1
-6 2 -25 158.68 23.5
4 -6 -25 186.58 29.6
-6 2 25 151.78 22.2
-4 6 25 138.49 20.7
-2 -4 25 137.89 24.6
-3 -3 -25 380.86 32.6
-3 6 -25 482.85 46.4
-3 -3 -25 410.66 28.9
3 3 -25 404.16 42.7
3 -6 -25 455.85 38.3
3 -6 -25 378.26 36.4
3 3 -25 436.66 51.89
6 -3 -25 409.56 37.6
6 -3 -25 341.37 38.5
-3 6 -25 396.16 40
-6 3 -25 416.86 36
-6 3 -25 427.86 35.6
-3 -3 25 411.66 40
3 -6 25 389.66 40.7
-6 3 25 365.66 35.3
-3 6 25 378.66 28.9
6 -4 -25 310.97 37.2
-6 4 -25 203.78 30.9
2 -6 -25 275.07 29.9
2 -6 -25 290.97 31.2
4 2 -25 291.57 37.8
4 2 -25 277.87 33.7
6 -4 -25 273.57 34.4
-2 6 -25 255.67 34.6
-4 -2 -25 299.87 23.4
-4 -2 -25 355.46 29.2
-2 6 -25 298.57 40.4
-6 4 -25 298.37 31.9
6 -4 25 269.27 26.6
-6 4 25 232.58 29.3
-2 6 25 270.57 22.6
2 -6 25 250.07 36.9
-4 -2 25 298.17 34.3
6 -5 -25 360.56 39.1
1 -6 -25 419.46 33.8
0 0 -26 7.9 11.8
0 0 -26 6.8 11.8
0 0 26 13.8 9.4
-1 0 -26 50.49 14.7
0 -1 -26 20.8 12.3
1 -1 -26 24.5 13.6
1 0 -26 35 14.6
-1 1 -26 26.7 14.3
1 -1 -26 18.8 12.5
-1 1 -26 22.7 11.9
0 -1 -26 21.7 13
-1 0 -26 22.4 12.4
0 1 -26 47.3 14.3
1 0 -26 10.9 13
0 1 -26 25.5 13.4
1 0 26 39.5 10.4
0 1 26 35.2 10
-1 1 26 31.1 11.2
-1 0 26 40.4 12.5
0 -1 26 32.4 11.4
1 -1 26 34.6 11.2
-1 -1 -26 194.18 25.3
-2 1 -26 196.98 26.8
1 -2 -26 195.78 25.3
1 1 -26 175.68 28.1
2 -1 -26 201.18 27.9
1 -2 -26 215.38 27
-1 -1 -26 193.98 25
-1 2 -26 241.28 28.3
1 1 -26 187.48 27.1
2 -1 -26 207.98 28.2
-2 1 -26 204.08 26.7
-1 2 -26 218.08 29.3
2 -1 26 143.49 19.8
-2 1 26 199.48 23.3
1 1 26 184.48 18.5
-1 2 26 174.58 20.2
-1 -1 26 219.28 24.5
1 -2 26 177.38 24.1
-2 0 -26 208.08 25.3
2 -2 -26 225.98 27.2
0 2 -26 215.38 30.3
0 -2 -26 185.78 26.1
-2 0 -26 243.78 27.3
0 -2 -26 233.48 26.4
-2 2 -26 209.18 27.9
-2 2 -26 195.78 27.9
2 0 -26 200.58 28.6
2 -2 -26 202.38 28.4
0 2 -26 241.48 29.2
2 0 -26 195.28 28.6
2 0 26 265.37 21.3
-2 0 26 231.78 26.4
-2 2 26 264.87 24.9
2 -2 26 247.28 26.1
0 2 26 236.18 20.8
1 2 -26 291.27 32.4
-3 1 -26 281.27 30.6
-1 -2 -26 273.07 27.7
3 -1 -26 295.47 32.9
3 -1 -26 269.57 30.8
-1 -2 -26 271.67 28
2 -3 -26 300.27 30.4
2 -3 -26 308.97 30.5
-2 3 -26 310.67 33.4
-3 1 -26 283.47 29.1
1 2 -26 305.57 34
-2 3 -26 270.27 33.1
1 2 26 261.17 20.3
-3 1 26 251.07 27.1
-1 -2 26 278.07 30.3
-2 3 26 272.57 24.2
3 -1 26 249.18 21.7
2 -3 26 313.37 30.1
-1 3 -26 484.85 38.2
-1 3 -26 357.86 37.4
-2 -1 -26 398.66 32.8
1 -3 -26 354.66 33.5
2 1 -26 375.86 35.5
1 -3 -26 369.36 33
-3 2 -26 409.56 34.9
-3 2 -26 359.66 35.5
3 -2 -26 368.96 36.1
-2 -1 -26 365.36 49.7
3 -2 -26 362.56 34.9
2 1 -26 353.46 37.4
-1 3 26 434.06 35.3
2 1 26 454.95 26.8
3 -2 26 408.36 30.8
-2 -1 26 349.37 34.8
-3 3 -26 204.78 28.5
0 3 -26 213.18 31.6
-3 0 -26 156.28 27.8
0 -3 -26 134.09 22.5
0 -3 -26 205.78 24.5
3 0 -26 203.88 29.7
3 0 -26 178.48 29.7
3 -3 -26 218.38 28
-3 3 -26 201.68 28.4
3 -3 -26 203.58 29.1
0 3 -26 223.88 29.1
-3 0 -26 190.68 25.9
-3 0 26 155.08 25.2
-3 3 26 152.38 21.3
0 3 26 182.68 17.7
3 0 26 203.38 16.6
3 -3 26 166.68 24.5
0 -3 26 171.28 27.6
-1 -3 -26 91.09 16.4
4 -1 -26 119.39 20.8
1 3 -26 114.09 21.3
-4 1 -26 113.29 18.7
-4 1 -26 99.59 17.2
3 -4 -26 107.39 19.8
-3 4 -26 100.99 20
-3 4 -26 101.79 22.1
1 3 -26 96.39 20.8
4 -1 -26 120.99 20.2
3 -4 -26 126.29 21.1
-1 -3 -26 117.29 16.6
-1 -3 26 58.59 18.5
-4 1 26 81.09 17.4
3 -4 26 74.49 17
-3 4 26 88.99 14
-2 4 -26 416.66 39.2
2 -4 -26 329.37 40.9
2 2 -26 452.65 40.2
2 -4 -26 437.86 36.4
-4 2 -26 482.25 38.1
-2 4 -26 332.17 39
4 -2 -26 428.16 38.8
-2 -2 -26 465.85 34.4
-2 -2 -26 400.96 33.3
2 2 -26 411.66 40.6
4 -2 -26 454.15 39
-4 2 -26 454.15 40.4
-2 4 26 343.67 27.2
-2 -2 26 360.06 35.6
4 -2 26 373.76 27.3
-4 2 26 363.06 32
4 -3 -26 363.56 38
-4 3 -26 335.37 48.4
4 -3 -26 462.65 39.3
3 1 -26 430.76 38.1
3 1 -26 450.85 41.4
-4 3 -26 448.06 38.8
-3 -1 -26 421.26 34.7
1 -4 -26 456.75 36.3
-1 4 -26 466.25 41
-1 4 -26 398.86 41.1
1 -4 -26 505.35 39
-3 -1 -26 458.55 32.9
-3 -1 26 389.66 36.7
-1 4 26 370.46 27.4
1 -4 26 440.96 39.3
0 4 -26 196.08 28.3
0 -4 -26 158.48 23.2
4 0 -26 194.28 28.4
0 -4 -26 184.98 24.6
-4 0 -26 213.48 23.1
0 4 -26 113.79 22
4 -4 -26 209.28 30.4
-4 4 -26 194.58 28.2
4 0 -26 182.88 31.2
4 -4 -26 149.29 23.3
-4 0 -26 203.88 24.2
4 -4 26 188.98 27.2
0 -4 26 182.58 27.1
-4 4 26 171.78 23.2
-4 0 26 179.08 27.6
0 4 26 206.28 16.6
-1 -4 -26 59.59 14
1 4 -26 68.39 20.1
5 -1 -26 75.59 20.2
-5 1 -26 82.59 15.9
4 -5 -26 85.19 21
-2 -3 -26 116.59 20.3
2 3 -26 93.69 20.3
-5 2 -26 95.29 17.3
3 -5 -26 96.69 20.1
5 -2 -26 77.39 20.2
2 3 -26 119.69 21
-3 5 -26 105.69 22.2
3 -5 -26 110.39 19.4
-3 5 -26 120.09 20.9
5 -2 -26 95.49 20.5
-5 2 -26 132.79 19.5
-2 -3 -26 107.19 16
-5 2 26 75.09 18.1
-3 5 26 117.09 15.8
5 -2 26 105.09 14.5
-2 -3 26 133.69 23.1
-3 -2 -26 436.06 33.4
3 2 -26 432.26 43.1
-5 3 -26 430.46 37.6
-5 3 -26 434.76 38.2
5 -3 -26 442.16 40.6
2 -5 -26 442.46 36.8
-2 5 -26 466.65 42.2
5 -3 -26 374.36 41.1
-3 -2 -26 421.46 31.9
3 2 -26 428.46 40.5
-2 5 -26 455.15 44.2
2 -5 -26 431.16 37.3
-3 -2 26 335.27 37.4
2 -5 26 423.76 40.8
-5 3 26 406.66 34.4
-2 5 26 434.86 29
5 -3 26 373.26 30.2
1 -5 -26 276.37 28.8
4 1 -26 252.67 35
5 -4 -26 195.48 32.1
-1 5 -26 259.87 37.5
-4 -1 -26 251.47 23.9
0 -5 -26 290.47 28.5
5 0 -26 202.58 34.8
5 -5 -26 355.56 48.7
0 0 -27 -1.2 12.2
0 0 -27 -1.7 11.3
0 0 27 -2.8 8.4
1 0 -27 -17 12.4
-1 0 -27 13.7 12.3
1 -1 -27 5.6 13.5
1 -1 -27 21.6 12.7
0 1 -27 -6.9 11.2
0 -1 -27 4 12.9
0 -1 -27 13.9 12.5
0 1 -27 8.1 13.2
-1 1 -27 18.5 13
1 0 -27 6.9 12.2
-1 0 -27 -11.2 10.5
-1 1 -27 16.1 12.3
0 1 27 -0.6 8
-1 1 27 7.1 9.9
-1 0 27 -5.1 9.6
1 -1 27 0.6 9.4
0 -1 27 -3.7 9.8
1 0 27 -1.1 8.2
-2 1 -27 27.2 19.2
-1 -1 -27 10.7 11.7
2 -1 -27 14.2 13.3
1 -2 -27 17.4 13.3
1 -2 -27 13.3 13.7
-1 2 -27 14.9 13.5
1 1 -27 3 14.1
-2 1 -27 8.5 12.2
-1 -1 -27 7.3 19
1 1 -27 21.3 13.2
2 -1 -27 7.8 14
-1 2 -27 9 15.1
1 -2 27 4.8 11.3
1 1 27 12.7 8.2
-1 -1 27 6.8 8.4
-1 2 27 1.2 8.8
2 -1 27 13.9 15.4
-2 1 27 13.2 12.5
-2 0 -27 71.29 16.3
0 -2 -27 74.49 16
0 2 -27 49.5 18.8
-2 0 -27 66.09 15.8
-2 2 -27 85.39 18.7
-2 2 -27 61.19 16.8
2 -2 -27 55.29 18
0 2 -27 61.59 17.2
0 -2 -27 61.99 22.3
2 -2 -27 71.29 16.2
2 0 -27 50.39 18.3
2 0 -27 73.79 17.3
0 2 27 44.1 9.7
2 0 27 46.8 10.2
2 -2 27 50.69 13.5
-2 0 27 54.79 14.1
-2 2 27 44 12.2
-1 -2 -27 167.28 24.8
3 -1 -27 186.48 28.2
1 2 -27 206.58 30
-3 1 -27 237.68 27.4
1 2 -27 198.68 31
2 -3 -27 165.48 31.9
3 -1 -27 211.48 30.9
-2 3 -27 195.88 30.4
2 -3 -27 164.48 26.4
-2 3 -27 181.88 30.4
-3 1 -27 185.78 27.5
-3 1 27 134.39 23.5
-1 -2 27 82.59 18.4
3 -1 27 117.39 16.7
2 -3 27 145.09 25
1 2 27 110.39 15.1
-2 3 27 115.99 19.7
-3 2 -27 19.5 13.1
2 1 -27 30.3 15.2
-1 3 -27 -4.4 15.3
1 -3 -27 16.5 15.1
-2 -1 -27 6.2 11.8
-3 2 -27 29.9 15.5
2 1 -27 -1.3 14.3
3 -2 -27 -2.1 13.7
3 -2 -27 19.4 16.1
1 -3 -27 16.7 11.3
-1 3 -27 3.2 13
-2 -1 -27 3.9 11.3
-3 2 27 16.1 11.4
-2 -1 27 1 12.9
-1 3 27 14.2 8.9
3 -2 27 15.1 10.8
0 3 -27 382.16 40.9
0 -3 -27 420.26 34.6
3 0 -27 437.16 56.09
-3 0 -27 389.56 32.8
-3 3 -27 458.65 38.8
3 -3 -27 373.06 37.3
-3 0 -27 480.15 36.6
3 -3 -27 303.47 36.6
3 0 -27 422.36 39.8
0 -3 -27 370.86 33.7
0 3 -27 366.06 38.2
-3 3 -27 430.96 43
-3 3 27 357.46 30.9
0 -3 27 391.66 37.7
3 0 27 372.36 25.9
-3 0 27 380.96 34.7
3 -3 27 382.36 34
0 3 27 404.26 26.8
-4 1 -27 719.93 47.4
-3 4 -27 716.13 57.69
3 -4 -27 695.23 50.69
1 3 -27 711.63 55.09
4 -1 -27 639.14 52.19
-1 -3 -27 700.43 46.1
4 -2 -27 188.58 31.1
4 -2 -27 240.58 37.3
2 2 -27 189.48 27.8
-2 4 -27 206.78 32.1
2 -4 -27 182.18 29
-4 2 -27 221.38 28.2
-2 -2 -27 185.58 24.9
2 -4 -27 192.98 27.2
-4 2 27 169.58 25.7
-2 4 27 200.98 21.1
-2 -2 27 172.38 25.4
4 -2 27 158.78 19.7
-1 4 -27 59.69 19.1
4 -3 -27 53.39 19
-4 3 -27 73.99 18.2
-3 -1 -27 88.59 15.2
1 -4 -27 50.29 16.5
3 1 -27 60.69 20.9
0 -4 -27 559.74 41.4
4 -4 -27 594.34 47.6
0 0 -28 9.1 12.1
0 0 -28 -7.9 15.7
0 0 28 -2 10
1 0 -28 71.09 17.4
0 1 -28 76.59 22.9
-1 1 -28 110.09 20.5
0 -1 -28 88.99 18.3
0 1 -28 89.59 18.9
0 -1 -28 94.49 17.9
1 -1 -28 68.59 20.3
1 -1 -28 76.29 17.3
-1 0 -28 88.59 17.5
-1 1 -28 83.89 18.2
-1 0 -28 106.39 18.7
1 0 -28 84.39 17.9
1 -1 28 55.89 13.3
-1 1 28 64.79 13.3
0 -1 28 65.29 15
-1 0 28 75.89 15.3
0 1 28 57.09 16.1
1 0 28 70.19 13.1
-2 1 -28 104.49 19.2
1 -2 -28 150.98 26.6
-1 -1 -28 121.59 19.4
1 1 -28 166.68 31.8
2 -1 -28 130.89 25.3
2 -1 -28 208.78 30.8
-2 1 -28 121.69 20.5
-1 2 -28 110.49 23.1
1 -2 -28 118.49 20.6
1 1 -28 91.09 20.1
-1 2 -28 159.48 27.7
2 -1 28 143.49 20.3
1 1 28 150.28 18.3
1 -2 28 144.09 24.2
-2 1 28 123.49 22.3
-1 2 28 124.29 19.6
0 2 -28 236.68 33.2
2 -2 -28 301.87 34.8
-2 0 -28 317.87 30.7
2 0 -28 255.37 34.3
0 -2 -28 260.57 30.7
-2 2 -28 277.07 33
3 -1 -28 196.88 31.6
-1 -2 -28 204.08 26.9
2 -3 -28 229.68 30.1
1 -3 -28 533.75 41.9
loop_
_restr_equal_distance_atom_site_label_1
_restr_equal_distance_atom_site_label_2
_restr_equal_distance_site_symmetry_2
_restr_equal_distance_class_id
N1 C7 1 1
N1 C8 1 1
C7 C8 1 2
N1' C7' 1 1
N1' C8' 1 1
C7' C8' 1 2
loop_
_restr_equal_distance_class_class_id
_restr_equal_distance_class_target_weight_param
_restr_equal_distance_class_average
_restr_equal_distance_class_esd
_restr_equal_distance_class_diff_max
1 0.0100 1.4016 0.0068 0.0112
2 0.0200 2.4979 0.0178 0.0178
loop_
_restr_U_rigid_atom_site_label_1
_restr_U_rigid_atom_site_label_2
_restr_U_rigid_target_weight_param
_restr_U_rigid_U_parallel
_restr_U_rigid_diff
N1 C7 0.0100 0.1175 -0.0002
N1 C8 0.0100 0.1213 -0.0067
C7 C8 0.0100 0.1405 -0.0040
N1' C7' 0.0100 0.0480 0.0006
N1' C8' 0.0100 0.0472 0.0013
C7' C8' 0.0100 0.0516 -0.0053
loop_
_restr_U_similar_atom_site_label_1
_restr_U_similar_atom_site_label_2
_restr_U_similar_weight_param
N1 C7 0.0100
N1 C8 0.0100
N1' C7' 0.0100
N1' C8' 0.0100
