#------------------------------------------------------------------------------
#$Date: 2020-08-06 15:53:07 +0300 (Thu, 06 Aug 2020) $
#$Revision: 254881 $
#$URL: file:///home/coder/svn-repositories/cod/cif/7/12/66/7126682.cif $
#------------------------------------------------------------------------------
#
# This file is available in the Crystallography Open Database (COD),
# http://www.crystallography.net/
#
# All data on this site have been placed in the public domain by the
# contributors.
#
data_7126682
loop_
_publ_author_name
'Delmas, Luke C.'
'White, Andrew J. P.'
'Pugh, David'
'Evans, Arwyn'
'Isbell, Mark Antonin'
'Heng, Jerry Y. Y.'
'Lickiss, Paul D.'
'Davies, Robert P.'
_publ_section_title
;
 Stable metal-organic frameworks with low water affinity built from
 methyl-siloxane linkers.
;
_journal_issue                   57
_journal_name_full
'Chemical communications (Cambridge, England)'
_journal_page_first              7905
_journal_page_last               7908
_journal_paper_doi               10.1039/d0cc01186j
_journal_volume                  56
_journal_year                    2020
_chemical_formula_moiety         'C21 H25 N2 O8.5 Si Zr1.5, 1.5(C3 H7 N O)'
_chemical_formula_sum            'C25.5 H35.5 N3.5 O10 Si Zr1.5'
_chemical_formula_weight         715.99
_space_group_crystal_system      orthorhombic
_space_group_IT_number           72
_space_group_name_Hall           '-I 2 2c'
_space_group_name_H-M_alt        'I b a m'
_atom_sites_solution_hydrogens   geom
_audit_creation_method           SHELXL-2017/1
_audit_update_record
;
2019-08-29 deposited with the CCDC.	2020-06-04 downloaded from the CCDC.
;
_cell_angle_alpha                90
_cell_angle_beta                 90
_cell_angle_gamma                90
_cell_formula_units_Z            16
_cell_length_a                   17.2986(5)
_cell_length_b                   30.7451(6)
_cell_length_c                   27.0210(6)
_cell_measurement_reflns_used    9137
_cell_measurement_temperature    103(2)
_cell_measurement_theta_max      28.2030
_cell_measurement_theta_min      2.5520
_cell_volume                     14371.0(6)
_computing_cell_refinement       'CrysAlisPro 1.171.39.27b (Rigaku OD, 2015)'
_computing_data_collection       'CrysAlisPro 1.171.39.27b (Rigaku OD, 2015)'
_computing_data_reduction        'CrysAlisPro 1.171.39.27b (Rigaku OD, 2015)'
_computing_molecular_graphics    'Bruker SHELXTL'
_computing_publication_material  'CIFTAB-2014 (Sheldrick, 2017)'
_computing_structure_refinement  'SHELXL-2017/1 (Sheldrick, 2017)'
_computing_structure_solution    'SHELXT 2014/5 (Sheldrick, 2014)'
_diffrn_ambient_temperature      103(2)
_diffrn_measured_fraction_theta_full 0.997
_diffrn_measured_fraction_theta_max 0.998
_diffrn_measurement_device_type  'XtaLAB AFC12 (RCD3): Kappa single'
_diffrn_measurement_method       'omega scans'
_diffrn_radiation_type           MoK\a
_diffrn_radiation_wavelength     0.71073
_diffrn_reflns_av_R_equivalents  0.1201
_diffrn_reflns_av_unetI/netI     0.0869
_diffrn_reflns_Laue_measured_fraction_full 0.997
_diffrn_reflns_Laue_measured_fraction_max 0.998
_diffrn_reflns_limit_h_max       19
_diffrn_reflns_limit_h_min       -22
_diffrn_reflns_limit_k_max       39
_diffrn_reflns_limit_k_min       -34
_diffrn_reflns_limit_l_max       35
_diffrn_reflns_limit_l_min       -30
_diffrn_reflns_number            67333
_diffrn_reflns_point_group_measured_fraction_full 0.997
_diffrn_reflns_point_group_measured_fraction_max 0.998
_diffrn_reflns_theta_full        25.242
_diffrn_reflns_theta_max         27.485
_diffrn_reflns_theta_min         2.310
_exptl_absorpt_coefficient_mu    0.526
_exptl_absorpt_correction_T_max  1.00000
_exptl_absorpt_correction_T_min  0.75807
_exptl_absorpt_correction_type   multi-scan
_exptl_absorpt_process_details
; 
CrysAlisPro 1.171.39.27b (Rigaku Oxford Diffraction, 2015) 
Empirical absorption correction using spherical harmonics, 
implemented in SCALE3 ABSPACK scaling algorithm. 
;
_exptl_crystal_colour            colourless
_exptl_crystal_density_diffrn    1.324
_exptl_crystal_description       prism
_exptl_crystal_F_000             5872
_exptl_crystal_size_max          0.100
_exptl_crystal_size_mid          0.025
_exptl_crystal_size_min          0.010
_refine_diff_density_max         1.105
_refine_diff_density_min         -0.988
_refine_diff_density_rms         0.112
_refine_ls_extinction_method     none
_refine_ls_goodness_of_fit_ref   1.014
_refine_ls_hydrogen_treatment    constr
_refine_ls_matrix_type           full
_refine_ls_number_parameters     241
_refine_ls_number_reflns         8406
_refine_ls_number_restraints     0
_refine_ls_restrained_S_all      1.014
_refine_ls_R_factor_all          0.0963
_refine_ls_R_factor_gt           0.0591
_refine_ls_shift/su_max          0.001
_refine_ls_shift/su_mean         0.000
_refine_ls_structure_factor_coef Fsqd
_refine_ls_weighting_details
'w=1/[\s^2^(Fo^2^)+(0.1013P)^2^] where P=(Fo^2^+2Fc^2^)/3'
_refine_ls_weighting_scheme      calc
_refine_ls_wR_factor_gt          0.1665
_refine_ls_wR_factor_ref         0.1826
_reflns_Friedel_coverage         0.000
_reflns_number_gt                5153
_reflns_number_total             8406
_reflns_threshold_expression     'I > 2\s(I)'
_cod_data_source_file            d0cc01186j2.cif
_cod_data_source_block           IMP-32-Zr
_cod_depositor_comments
'Adding full bibliography for 7126681--7126683.cif.'
_cod_original_formula_sum        'C25.50 H35.50 N3.50 O10 Si Zr1.50'
_cod_database_code               7126682
_shelx_shelxl_version_number     2017/1
_shelx_space_group_comment
; 
The symmetry employed for this shelxl refinement is uniquely defined 
by the following loop, which should always be used as a source of 
symmetry information in preference to the above space-group names. 
They are only intended as comments. 
;
_shelx_res_file
; 
TITL 2017ncs0212 in Ibam (#72) 
    2017ncs0212.res 
    created by SHELXL-2017/1 at 13:41:39 on 02-Nov-2017 
CELL 0.71073  17.2986  30.7451  27.0210  90.000  90.000  90.000 
ZERR   16.00   0.0005   0.0006   0.0006   0.000   0.000   0.000 
LATT  2 
SYMM -X, -Y, Z 
SYMM 0.5-X, 0.5+Y, -Z 
SYMM 0.5+X, 0.5-Y, -Z 
SFAC C H N O Si Zr 
UNIT 408 568 56 160 16 24 
TEMP -170 
  
L.S. 6 0 142 
OMIT     2   4   6 
OMIT     2   4   0 
OMIT     0   0   4 
OMIT     0   2  10 
OMIT     1   6   7 
OMIT     1   5   0 
OMIT     2   2   8 
OMIT     1   1   4 
OMIT     1   7   4 
OMIT     3   1   2 
OMIT     2  10   2 
FMAP 2 
PLAN 10 
  
ACTA 
  
ABIN 
  
REM 0.5(C30H22O9Si2) 2(O) 2(C3H7NO) Zr1.5, 1.5(C3H7NO) 
REM (C15 H11 O4.5 Si) (O2) (C6 H14 N2 O2) Zr1.5, 1.5(C3 H7 N O) 
REM 'C21 H25 N2 O8.5 Si Zr1.5, 1.5(C3 H7 N O)' 
REM C21 H25 N2 O8.5 Si Zr1.5, C4.5 H10.5 N1.5 O1.5 
REM C25.5 H35.5 N3.5 O10 Si Zr1.5 
  
REM For charge balance, O50, O60 and O70 have all been presumed to be O(2-) 
  
REM SQUEEZE suggested 2023 e/cell = 126.4 e/asu 
  
REM The solvent used was dmf (C3H7NO, 40e) 
  
REM Before the use of SQUEEZE, electron density peaks were found bound to O30 
REM and O40, so they were presumed to be coordinated dmf solvent molecules. 
REM As SQUEEZE does not remove electron density that is within bonding 
REM distance of defined atoms, to remove all of this electron density, O30 
REM and O40 were removed from the atom list before SQUEEZE, than added back 
REM in afterwards. 
  
REM So, 2(C3H7N) = 64 e/asu of that removed by SQUEEZE would be due to the 
REM coordinated solvent, leaving 126.4 - 64 = 62.4 e/asu for the included 
REM solvent. 
  
REM 1.5(C3H7NO) = 60e, so this was used as the solvent present 
  
REM So, the atom list is low by 2(C3H7N) + 1.5(C3H7NO) = 
REM (C6 H14 N2) + (C4.5 H10.5 N1.5 O1.5) = C10.5 H24.5 N3.5 O1.5, 
REM and the UNIT is low by C168 H392 N56 O24, i.e. C240 H176 N0 O136 Si16 Zr24 
  
REM SQUEEZE suggested 142 variables 
  
WGHT    0.101300 
FVAR       0.12382 
ZR1   6    0.399360    0.491464    0.565726    11.00000    0.05336    0.01475 = 
         0.02629    0.00159    0.00905   -0.00142 
ZR2   6    0.522215    0.421535    0.500000    10.50000    0.04963    0.00948 = 
         0.01832    0.00000    0.00000   -0.00216 
O1    4    0.250000    0.250000    0.750000    10.50000    0.11215    0.04169 = 
         0.04229    0.00108    0.01285   -0.03805 
SI2   5    0.313590    0.230613    0.712549    11.00000    0.07904    0.03232 = 
         0.03332    0.00905   -0.00860   -0.02721 
C3    1    0.343198    0.277618    0.672480    11.00000    0.06944    0.02761 = 
         0.04003    0.00386    0.00309   -0.01983 
C4    1    0.304237    0.316470    0.674990    11.00000    0.09811    0.04927 = 
         0.07674    0.02194    0.04531   -0.00370 
AFIX  43 
H4A   2    0.260744    0.318882    0.696280    11.00000   -1.20000 
AFIX   0 
C5    1    0.326640    0.352240    0.647317    11.00000    0.09898    0.03680 = 
         0.07768    0.01830    0.04751    0.00347 
AFIX  43 
H5A   2    0.301324    0.379397    0.651626    11.00000   -1.20000 
AFIX   0 
C6    1    0.384563    0.348309    0.614235    11.00000    0.07206    0.02066 = 
         0.03925    0.00435    0.01480   -0.00914 
C7    1    0.424239    0.309817    0.610336    11.00000    0.08417    0.03292 = 
         0.07281    0.02114    0.03467    0.00017 
AFIX  43 
H7A   2    0.466172    0.307178    0.587832    11.00000   -1.20000 
AFIX   0 
C8    1    0.402487    0.274707    0.639636    11.00000    0.09846    0.02523 = 
         0.07463    0.01525    0.02673   -0.00027 
AFIX  43 
H8A   2    0.429750    0.248015    0.636623    11.00000   -1.20000 
AFIX   0 
C9    1    0.408225    0.386305    0.583050    11.00000    0.06714    0.01696 = 
         0.04308    0.00188    0.01246   -0.00516 
O10   4    0.378834    0.423111    0.593213    11.00000    0.08264    0.02286 = 
         0.05184    0.01121    0.02776   -0.00387 
O11   4    0.456528    0.378835    0.548940    11.00000    0.06689    0.01709 = 
         0.02963   -0.00004    0.00688   -0.00473 
C12   1    0.266824    0.187957    0.673043    11.00000    0.06936    0.02872 = 
         0.03710    0.00880   -0.00765   -0.01416 
C13   1    0.212330    0.200121    0.638549    11.00000    0.10906    0.02233 = 
         0.05552    0.00690   -0.02768   -0.01456 
AFIX  43 
H13A  2    0.200171    0.230063    0.634700    11.00000   -1.20000 
AFIX   0 
C14   1    0.174702    0.169557    0.609226    11.00000    0.09247    0.03052 = 
         0.05341    0.00152   -0.03494   -0.01079 
AFIX  43 
H14A  2    0.137968    0.178871    0.585336    11.00000   -1.20000 
AFIX   0 
C15   1    0.190338    0.125842    0.614586    11.00000    0.06862    0.02763 = 
         0.03827    0.00426   -0.01531   -0.01313 
C16   1    0.241549    0.113011    0.650085    11.00000    0.11367    0.02380 = 
         0.07131    0.00440   -0.04593   -0.00446 
AFIX  43 
H16A  2    0.250920    0.082905    0.655243    11.00000   -1.20000 
AFIX   0 
C17   1    0.280810    0.144145    0.679273    11.00000    0.09964    0.03462 = 
         0.07821    0.00301   -0.05210   -0.00864 
AFIX  43 
H17A  2    0.317148    0.134793    0.703391    11.00000   -1.20000 
AFIX   0 
C18   1    0.149951    0.093019    0.583838    11.00000    0.06165    0.02645 = 
         0.03832    0.00362   -0.00882   -0.00684 
O19   4    0.107561    0.108294    0.548948    11.00000    0.06073    0.02026 = 
         0.03025    0.00171   -0.00510   -0.00677 
O20   4    0.158686    0.053641    0.593067    11.00000    0.08492    0.02274 = 
         0.05633    0.00339   -0.02996   -0.00652 
C21   1    0.395329    0.207990    0.746537    11.00000    0.10482    0.05790 = 
         0.07409    0.01397   -0.03397   -0.03531 
AFIX  33 
H21A  2    0.433317    0.196378    0.723098    11.00000   -1.50000 
H21B  2    0.419386    0.230869    0.766550    11.00000   -1.50000 
H21C  2    0.377204    0.184566    0.768226    11.00000   -1.50000 
AFIX   0 
O30   4    0.282350    0.482511    0.564855    11.00000    0.04920    0.08065 = 
         0.11876    0.00130    0.00998   -0.02634 
O40   4    0.411081    0.492853    0.641204    11.00000    0.21575    0.08060 = 
         0.02186    0.00174   -0.01896    0.00115 
O50   4    0.387327    0.529349    0.500000    10.50000    0.16716    0.03190 = 
         0.02342    0.00000    0.00000   -0.04465 
O60   4    0.408108    0.452989    0.500000    10.50000    0.12957    0.07770 = 
         0.02394    0.00000    0.00000    0.06707 
O70   4    0.488984    0.538481    0.565605    11.00000    0.05927    0.04485 = 
         0.11651    0.05726   -0.01467   -0.00495 
  
HKLF 4 
  
  
  
  
REM  2017ncs0212 in Ibam (#72) 
REM R1 =  0.0591 for    5153 Fo > 4sig(Fo)  and  0.0963 for all    8406 data 
REM    241 parameters refined using      0 restraints 
  
END 
  
WGHT      0.1012      0.0000 
  
REM Highest difference peak  1.105,  deepest hole -0.988,  1-sigma level  0.112 
Q1    1   0.4709  0.4213  0.5000  10.50000  0.05    1.10 
Q2    1   0.3929  0.5088  0.5667  11.00000  0.05    0.97 
Q3    1   0.4834  0.5483  0.5785  11.00000  0.05    0.62 
Q4    1   0.3797  0.5596  0.5000  10.50000  0.05    0.57 
Q5    1   0.3696  0.4530  0.5000  10.50000  0.05    0.55 
Q6    1   0.4909  0.5325  0.5505  11.00000  0.05    0.55 
Q7    1   0.4739  0.5386  0.5416  11.00000  0.05    0.48 
Q8    1   0.3504  0.5312  0.5000  10.50000  0.05    0.46 
Q9    1   0.4725  0.2738  0.5000  10.50000  0.05    0.44 
Q10   1   0.1098  0.1020  0.5811  11.00000  0.05    0.41 
;
_shelx_res_checksum              27257
_shelx_fab_file
; 
    4    0    0    132.20      0.00 
    6    0    0     29.10      0.00 
    8    0    0     44.07      0.00 
   10    0    0    -41.16      0.00 
   12    0    0     18.20      0.00 
   14    0    0     10.53      0.00 
   16    0    0     -4.85      0.00 
   18    0    0     -4.27      0.00 
   20    0    0    -10.79      0.00 
   22    0    0    -17.21      0.00 
    3    1    0    254.22      0.00 
    5    1    0     16.57      0.00 
    7    1    0    -18.91      0.00 
    9    1    0      8.48      0.00 
   11    1    0      1.63      0.00 
   13    1    0    -14.83      0.00 
   15    1    0      0.92      0.00 
   17    1    0     39.14      0.00 
   19    1    0    -10.46      0.00 
   21    1    0     27.55      0.00 
    2    2    0    -99.56      0.00 
    4    2    0    -77.08      0.00 
    6    2    0     -6.51      0.00 
    8    2    0     15.59      0.00 
   10    2    0    -53.88      0.00 
   12    2    0     23.42      0.00 
   14    2    0     21.78      0.00 
   16    2    0     -3.47      0.00 
   18    2    0     -6.34      0.00 
   20    2    0    -22.13      0.00 
   22    2    0     -6.19      0.00 
    1    3    0    -71.49      0.00 
    3    3    0    -87.29      0.00 
    5    3    0    -10.89      0.00 
    7    3    0     49.94      0.00 
    9    3    0     20.16      0.00 
   11    3    0      9.74      0.00 
   13    3    0     -9.44      0.00 
   15    3    0     -1.76      0.00 
   17    3    0     34.65      0.00 
   19    3    0      0.03      0.00 
   21    3    0     22.31      0.00 
    0    4    0     54.44      0.00 
    2    4    0    -33.23      0.00 
    4    4    0   -124.68      0.00 
    6    4    0    -85.99      0.00 
    8    4    0     -4.41      0.00 
   10    4    0    -59.37      0.00 
   12    4    0     28.04      0.00 
   14    4    0     15.27      0.00 
   16    4    0      9.86      0.00 
   18    4    0     -6.39      0.00 
   20    4    0      2.21      0.00 
   22    4    0      5.84      0.00 
    1    5    0   -136.41      0.00 
    3    5    0    -91.39      0.00 
    5    5    0    -72.90      0.00 
    7    5    0    -66.91      0.00 
    9    5    0     -5.47      0.00 
   11    5    0    -15.91      0.00 
   13    5    0     12.40      0.00 
   15    5    0     -1.30      0.00 
   17    5    0     15.80      0.00 
   19    5    0      3.07      0.00 
   21    5    0      0.64      0.00 
    0    6    0    149.57      0.00 
    2    6    0    -55.63      0.00 
    4    6    0    -60.86      0.00 
    6    6    0    -19.03      0.00 
    8    6    0     -3.31      0.00 
   10    6    0    -43.66      0.00 
   12    6    0     11.82      0.00 
   14    6    0     12.48      0.00 
   16    6    0      6.19      0.00 
   18    6    0    -12.62      0.00 
   20    6    0     20.17      0.00 
   22    6    0      8.87      0.00 
    1    7    0     40.54      0.00 
    3    7    0     10.40      0.00 
    5    7    0    -19.98      0.00 
    7    7    0    -35.93      0.00 
    9    7    0    -11.88      0.00 
   11    7    0      4.71      0.00 
   13    7    0     12.36      0.00 
   15    7    0      4.65      0.00 
   17    7    0      9.36      0.00 
   19    7    0     -5.16      0.00 
   21    7    0     10.92      0.00 
    0    8    0    230.52      0.00 
    2    8    0     79.78      0.00 
    4    8    0     36.58      0.00 
    6    8    0    -26.90      0.00 
    8    8    0     27.13      0.00 
   10    8    0    -13.78      0.00 
   12    8    0     -4.40      0.00 
   14    8    0      6.56      0.00 
   16    8    0     -2.34      0.00 
   18    8    0     -7.96      0.00 
   20    8    0    -11.58      0.00 
   22    8    0     -2.80      0.00 
    1    9    0    134.23      0.00 
    3    9    0     27.39      0.00 
    5    9    0     29.18      0.00 
    7    9    0     -6.91      0.00 
    9    9    0     23.08      0.00 
   11    9    0      4.75      0.00 
   13    9    0      7.58      0.00 
   15    9    0     -2.33      0.00 
   17    9    0      4.46      0.00 
   19    9    0     -2.75      0.00 
   21    9    0    -13.50      0.00 
    0   10    0     61.01      0.00 
    2   10    0     13.73      0.00 
    4   10    0     32.21      0.00 
    6   10    0      4.52      0.00 
    8   10    0     30.09      0.00 
   10   10    0    -19.78      0.00 
   12   10    0      5.24      0.00 
   14   10    0      1.11      0.00 
   16   10    0     -6.03      0.00 
   18   10    0      4.97      0.00 
   20   10    0      7.42      0.00 
    1   11    0    -27.21      0.00 
    3   11    0     22.43      0.00 
    5   11    0     -4.53      0.00 
    7   11    0     36.12      0.00 
    9   11    0      0.52      0.00 
   11   11    0      2.18      0.00 
   13   11    0     -3.75      0.00 
   15   11    0     -6.99      0.00 
   17   11    0      8.48      0.00 
   19   11    0     -4.41      0.00 
   21   11    0      3.08      0.00 
    0   12    0     91.69      0.00 
    2   12    0     66.87      0.00 
    4   12    0     18.82      0.00 
    6   12    0     22.75      0.00 
    8   12    0     -6.73      0.00 
   10   12    0     -2.51      0.00 
   12   12    0    -10.20      0.00 
   14   12    0     -0.10      0.00 
   16   12    0     -0.41      0.00 
   18   12    0    -26.01      0.00 
   20   12    0     30.56      0.00 
    1   13    0     65.65      0.00 
    3   13    0     40.23      0.00 
    5   13    0    -59.42      0.00 
    7   13    0     14.29      0.00 
    9   13    0    -30.13      0.00 
   11   13    0      4.58      0.00 
   13   13    0     -1.17      0.00 
   15   13    0      4.72      0.00 
   17   13    0      3.07      0.00 
   19   13    0      9.00      0.00 
   21   13    0    -23.16      0.00 
    0   14    0    -17.06      0.00 
    2   14    0      3.80      0.00 
    4   14    0    -34.63      0.00 
    6   14    0     -3.14      0.00 
    8   14    0    -25.03      0.00 
   10   14    0     11.11      0.00 
   12   14    0     -5.94      0.00 
   14   14    0      7.59      0.00 
   16   14    0      4.73      0.00 
   18   14    0      2.18      0.00 
   20   14    0     25.51      0.00 
    1   15    0    -27.78      0.00 
    3   15    0     -6.60      0.00 
    5   15    0    -26.00      0.00 
    7   15    0     17.44      0.00 
    9   15    0     -3.84      0.00 
   11   15    0     12.17      0.00 
   13   15    0     -6.73      0.00 
   15   15    0      7.87      0.00 
   17   15    0     -9.48      0.00 
   19   15    0     27.45      0.00 
    0   16    0     -9.46      0.00 
    2   16    0     -6.55      0.00 
    4   16    0     -2.14      0.00 
    6   16    0     -2.63      0.00 
    8   16    0      0.73      0.00 
   10   16    0     14.95      0.00 
   12   16    0      3.84      0.00 
   14   16    0     22.79      0.00 
   16   16    0     -7.54      0.00 
   18   16    0      0.14      0.00 
   20   16    0     11.01      0.00 
    1   17    0      7.01      0.00 
    3   17    0    -17.25      0.00 
    5   17    0    -14.36      0.00 
    7   17    0     -1.35      0.00 
    9   17    0     -3.89      0.00 
   11   17    0      7.93      0.00 
   13   17    0      1.00      0.00 
   15   17    0      1.76      0.00 
   17   17    0      4.30      0.00 
   19   17    0     28.75      0.00 
    0   18    0      8.48      0.00 
    2   18    0     14.98      0.00 
    4   18    0     -5.00      0.00 
    6   18    0     10.03      0.00 
    8   18    0    -11.97      0.00 
   10   18    0      0.50      0.00 
   12   18    0     -9.09      0.00 
   14   18    0     19.96      0.00 
   16   18    0    -24.40      0.00 
   18   18    0     -5.40      0.00 
   20   18    0    -14.01      0.00 
    1   19    0    -14.54      0.00 
    3   19    0     12.75      0.00 
    5   19    0     -4.92      0.00 
    7   19    0     21.48      0.00 
    9   19    0    -15.74      0.00 
   11   19    0     21.41      0.00 
   13   19    0     -9.16      0.00 
   15   19    0      2.05      0.00 
   17   19    0    -13.68      0.00 
   19   19    0     22.11      0.00 
    0   20    0     10.88      0.00 
    2   20    0     24.96      0.00 
    4   20    0      0.54      0.00 
    6   20    0     29.47      0.00 
    8   20    0     -3.39      0.00 
   10   20    0      6.48      0.00 
   12   20    0    -13.70      0.00 
   14   20    0    -12.14      0.00 
   16   20    0    -18.75      0.00 
   18   20    0     20.44      0.00 
    1   21    0     18.50      0.00 
    3   21    0     27.22      0.00 
    5   21    0     13.58      0.00 
    7   21    0     28.76      0.00 
    9   21    0    -13.55      0.00 
   11   21    0     16.03      0.00 
   13   21    0     -7.81      0.00 
   15   21    0     -6.24      0.00 
   17   21    0      2.34      0.00 
   19   21    0      7.77      0.00 
    0   22    0     29.22      0.00 
    2   22    0     42.68      0.00 
    4   22    0     -6.27      0.00 
    6   22    0     33.75      0.00 
    8   22    0    -11.74      0.00 
   10   22    0     11.56      0.00 
   12   22    0     -3.27      0.00 
   14   22    0      8.77      0.00 
   16   22    0      2.29      0.00 
   18   22    0    -13.44      0.00 
    1   23    0     13.29      0.00 
    3   23    0      6.34      0.00 
    5   23    0      6.88      0.00 
    7   23    0     24.83      0.00 
    9   23    0     -6.02      0.00 
   11   23    0     -5.42      0.00 
   13   23    0     -4.41      0.00 
   15   23    0    -19.97      0.00 
   17   23    0    -21.19      0.00 
    0   24    0      1.81      0.00 
    2   24    0     19.61      0.00 
    4   24    0     13.10      0.00 
    6   24    0     19.48      0.00 
    8   24    0     -0.81      0.00 
   10   24    0      0.08      0.00 
   12   24    0    -15.87      0.00 
   14   24    0    -12.27      0.00 
   16   24    0     -7.45      0.00 
    1   25    0     -0.76      0.00 
    3   25    0    -10.23      0.00 
    5   25    0      1.47      0.00 
    7   25    0     20.12      0.00 
    9   25    0    -20.83      0.00 
   11   25    0      5.87      0.00 
   13   25    0     -4.68      0.00 
   15   25    0     15.70      0.00 
   17   25    0     -0.55      0.00 
    0   26    0     -6.92      0.00 
    2   26    0    -20.55      0.00 
    4   26    0     -8.27      0.00 
    6   26    0    -16.98      0.00 
    8   26    0     -8.31      0.00 
   10   26    0     14.69      0.00 
   12   26    0      4.94      0.00 
   14   26    0     39.77      0.00 
   16   26    0    -22.52      0.00 
    1   27    0    -25.61      0.00 
    3   27    0    -10.81      0.00 
    5   27    0    -13.28      0.00 
    7   27    0     11.01      0.00 
    9   27    0     -4.44      0.00 
   11   27    0     10.29      0.00 
   13   27    0      5.31      0.00 
   15   27    0    -19.59      0.00 
    0   28    0     -8.84      0.00 
    2   28    0     -5.01      0.00 
    4   28    0     -3.37      0.00 
    6   28    0      8.42      0.00 
    8   28    0    -15.78      0.00 
   10   28    0    -13.19      0.00 
   12   28    0    -12.21      0.00 
   14   28    0    -17.27      0.00 
    1   29    0     -4.10      0.00 
    3   29    0    -19.22      0.00 
    5   29    0     -7.34      0.00 
    7   29    0     12.89      0.00 
    9   29    0     23.53      0.00 
   11   29    0     22.24      0.00 
   13   29    0      2.77      0.00 
   15   29    0      0.85      0.00 
    0   30    0      8.36      0.00 
    2   30    0     25.44      0.00 
    4   30    0     24.29      0.00 
    6   30    0     19.71      0.00 
    8   30    0    -13.03      0.00 
   10   30    0      5.57      0.00 
   12   30    0    -49.43      0.00 
   14   30    0     15.97      0.00 
    1   31    0     21.59      0.00 
    3   31    0     15.96      0.00 
    5   31    0     13.86      0.00 
    7   31    0     30.02      0.00 
    9   31    0     -6.34      0.00 
   11   31    0     17.26      0.00 
   13   31    0     15.56      0.00 
    0   32    0     15.90      0.00 
    2   32    0     13.40      0.00 
    4   32    0     26.73      0.00 
    6   32    0     12.35      0.00 
    8   32    0     -3.51      0.00 
   10   32    0     -5.00      0.00 
   12   32    0     14.28      0.00 
    1   33    0      7.82      0.00 
    3   33    0      4.38      0.00 
    5   33    0      2.95      0.00 
    7   33    0     11.00      0.00 
    9   33    0      0.55      0.00 
   11   33    0      5.12      0.00 
    0   34    0      4.67      0.00 
    2   34    0     -3.94      0.00 
    4   34    0     11.16      0.00 
    6   34    0    -18.68      0.00 
    8   34    0     -9.88      0.00 
   10   34    0     14.38      0.00 
    1   35    0     -8.70      0.00 
    3   35    0     13.77      0.00 
    5   35    0     -5.36      0.00 
    7   35    0     14.20      0.00 
    9   35    0     -6.62      0.00 
    0   36    0     12.14      0.00 
    2   36    0    -31.17      0.00 
    4   36    0     11.89      0.00 
    6   36    0     -9.44      0.00 
    8   36    0      7.12      0.00 
    1   37    0     -2.03      0.00 
    3   37    0      2.59      0.00 
    5   37    0     -4.32      0.00 
    7   37    0    -16.76      0.00 
    0   38    0     15.67      0.00 
    2   38    0    -14.95      0.00 
    4   38    0      2.47      0.00 
    6   38    0     -7.59      0.00 
    1   39    0     -5.09      0.00 
    3   39    0      5.73      0.00 
    2    1    1     78.41      0.00 
    4    1    1    131.58      0.00 
    6    1    1     -2.58      0.00 
    8    1    1     24.51      0.00 
   10    1    1     -8.34      0.00 
   12    1    1      3.74      0.00 
   14    1    1    -12.90      0.00 
   16    1    1     -4.80      0.00 
   18    1    1    -18.65      0.00 
   20    1    1      6.14      0.00 
   22    1    1      8.64      0.00 
    3    2    1     97.80      0.00 
    5    2    1    -19.11      0.00 
    7    2    1     46.24      0.00 
    9    2    1    -11.00      0.00 
   11    2    1      3.57      0.00 
   13    2    1     -3.98      0.00 
   15    2    1      0.13      0.00 
   17    2    1      1.03      0.00 
   19    2    1      5.97      0.00 
   21    2    1     -9.97      0.00 
    2    3    1    -57.28      0.00 
    4    3    1    -45.73      0.00 
    6    3    1    -25.39      0.00 
    8    3    1     27.48      0.00 
   10    3    1     -4.65      0.00 
   12    3    1     10.27      0.00 
   14    3    1      1.68      0.00 
   16    3    1      8.91      0.00 
   18    3    1     -5.49      0.00 
   20    3    1     17.78      0.00 
   22    3    1      6.44      0.00 
    1    4    1     32.36      0.00 
    3    4    1     -9.43      0.00 
    5    4    1     34.53      0.00 
    7    4    1      1.66      0.00 
    9    4    1    -15.42      0.00 
   11    4    1     30.16      0.00 
   13    4    1     -1.41      0.00 
   15    4    1      9.72      0.00 
   17    4    1      5.76      0.00 
   19    4    1     -5.30      0.00 
   21    4    1     14.87      0.00 
    2    5    1     57.50      0.00 
    4    5    1    -13.45      0.00 
    6    5    1    -11.44      0.00 
    8    5    1     28.91      0.00 
   10    5    1    -12.06      0.00 
   12    5    1     -7.13      0.00 
   14    5    1    -12.81      0.00 
   16    5    1      5.44      0.00 
   18    5    1     -1.43      0.00 
   20    5    1     -6.07      0.00 
   22    5    1    -12.12      0.00 
    1    6    1    -56.41      0.00 
    3    6    1     43.01      0.00 
    5    6    1     18.40      0.00 
    7    6    1     14.51      0.00 
    9    6    1    -27.66      0.00 
   11    6    1     38.26      0.00 
   13    6    1    -15.83      0.00 
   15    6    1     14.43      0.00 
   17    6    1    -22.47      0.00 
   19    6    1      3.38      0.00 
   21    6    1    -11.40      0.00 
    2    7    1    -12.49      0.00 
    4    7    1    -50.99      0.00 
    6    7    1     -9.26      0.00 
    8    7    1     11.16      0.00 
   10    7    1     -0.60      0.00 
   12    7    1     -6.54      0.00 
   14    7    1      2.42      0.00 
   16    7    1     17.30      0.00 
   18    7    1    -11.12      0.00 
   20    7    1     19.50      0.00 
   22    7    1     11.81      0.00 
    1    8    1    -42.78      0.00 
    3    8    1     32.77      0.00 
    5    8    1    -43.38      0.00 
    7    8    1      9.67      0.00 
    9    8    1    -35.47      0.00 
   11    8    1      8.06      0.00 
   13    8    1    -14.41      0.00 
   15    8    1      7.02      0.00 
   17    8    1     -1.99      0.00 
   19    8    1      6.84      0.00 
   21    8    1    -16.08      0.00 
    2    9    1      0.07      0.00 
    4    9    1     -4.62      0.00 
    6    9    1    -14.28      0.00 
    8    9    1     -9.30      0.00 
   10    9    1     -2.47      0.00 
   12    9    1    -14.94      0.00 
   14    9    1     -6.41      0.00 
   16    9    1     -3.13      0.00 
   18    9    1    -17.54      0.00 
   20    9    1     11.31      0.00 
    1   10    1    -31.87      0.00 
    3   10    1     75.79      0.00 
    5   10    1    -15.60      0.00 
    7   10    1     27.75      0.00 
    9   10    1    -27.59      0.00 
   11   10    1     18.32      0.00 
   13   10    1     -3.27      0.00 
   15   10    1      0.76      0.00 
   17   10    1     10.44      0.00 
   19   10    1     -2.06      0.00 
   21   10    1      2.38      0.00 
    2   11    1      9.12      0.00 
    4   11    1    -17.92      0.00 
    6   11    1    -18.20      0.00 
    8   11    1     10.55      0.00 
   10   11    1    -11.66      0.00 
   12   11    1      4.89      0.00 
   14   11    1     -8.09      0.00 
   16   11    1     10.30      0.00 
   18   11    1     -9.39      0.00 
   20   11    1     26.07      0.00 
    1   12    1    -76.29      0.00 
    3   12    1     34.59      0.00 
    5   12    1    -34.84      0.00 
    7   12    1     18.37      0.00 
    9   12    1    -19.73      0.00 
   11   12    1     13.96      0.00 
   13   12    1    -11.67      0.00 
   15   12    1     14.05      0.00 
   17   12    1     -5.23      0.00 
   19   12    1     -3.57      0.00 
   21   12    1      3.18      0.00 
    2   13    1     22.19      0.00 
    4   13    1     -8.19      0.00 
    6   13    1     13.23      0.00 
    8   13    1     15.41      0.00 
   10   13    1      5.55      0.00 
   12   13    1     11.18      0.00 
   14   13    1    -11.24      0.00 
   16   13    1     11.99      0.00 
   18   13    1    -10.61      0.00 
   20   13    1      2.93      0.00 
    1   14    1     -8.68      0.00 
    3   14    1     39.99      0.00 
    5   14    1      5.86      0.00 
    7   14    1     14.38      0.00 
    9   14    1     -6.90      0.00 
   11   14    1     15.12      0.00 
   13   14    1    -13.66      0.00 
   15   14    1     -3.92      0.00 
   17   14    1     -0.97      0.00 
   19   14    1      9.19      0.00 
   21   14    1      8.16      0.00 
    2   15    1      2.62      0.00 
    4   15    1     -3.37      0.00 
    6   15    1      2.00      0.00 
    8   15    1     11.22      0.00 
   10   15    1      3.08      0.00 
   12   15    1     -0.38      0.00 
   14   15    1      9.85      0.00 
   16   15    1     17.36      0.00 
   18   15    1    -17.05      0.00 
   20   15    1     -6.61      0.00 
    1   16    1      6.70      0.00 
    3   16    1    -21.47      0.00 
    5   16    1     -7.12      0.00 
    7   16    1     14.03      0.00 
    9   16    1     -8.65      0.00 
   11   16    1     20.55      0.00 
   13   16    1    -10.89      0.00 
   15   16    1      4.25      0.00 
   17   16    1     -9.32      0.00 
   19   16    1     14.45      0.00 
    2   17    1     -5.30      0.00 
    4   17    1     -3.46      0.00 
    6   17    1    -22.84      0.00 
    8   17    1      6.56      0.00 
   10   17    1    -13.29      0.00 
   12   17    1      2.50      0.00 
   14   17    1      2.27      0.00 
   16   17    1      8.73      0.00 
   18   17    1    -15.41      0.00 
   20   17    1     14.56      0.00 
    1   18    1    -12.54      0.00 
    3   18    1      6.79      0.00 
    5   18    1     -1.65      0.00 
    7   18    1     -1.74      0.00 
    9   18    1    -17.76      0.00 
   11   18    1      4.75      0.00 
   13   18    1    -11.61      0.00 
   15   18    1      5.14      0.00 
   17   18    1    -14.43      0.00 
   19   18    1     -0.56      0.00 
    2   19    1      4.54      0.00 
    4   19    1     -0.14      0.00 
    6   19    1    -13.89      0.00 
    8   19    1      6.17      0.00 
   10   19    1     -2.55      0.00 
   12   19    1     -0.75      0.00 
   14   19    1      2.78      0.00 
   16   19    1      4.11      0.00 
   18   19    1      8.95      0.00 
    1   20    1    -17.59      0.00 
    3   20    1     -2.05      0.00 
    5   20    1    -19.03      0.00 
    7   20    1      4.66      0.00 
    9   20    1     -9.41      0.00 
   11   20    1     10.57      0.00 
   13   20    1     -1.38      0.00 
   15   20    1     -3.08      0.00 
   17   20    1      5.39      0.00 
   19   20    1     -3.89      0.00 
    2   21    1     -6.60      0.00 
    4   21    1    -11.28      0.00 
    6   21    1     -8.97      0.00 
    8   21    1      0.67      0.00 
   10   21    1      8.81      0.00 
   12   21    1    -16.79      0.00 
   14   21    1      8.49      0.00 
   16   21    1    -11.22      0.00 
   18   21    1    -13.72      0.00 
    1   22    1     -4.19      0.00 
    3   22    1      4.96      0.00 
    5   22    1     -3.31      0.00 
    7   22    1      8.21      0.00 
    9   22    1    -17.21      0.00 
   11   22    1      7.27      0.00 
   13   22    1      1.85      0.00 
   15   22    1     -5.66      0.00 
   17   22    1     -2.76      0.00 
    2   23    1      8.85      0.00 
    4   23    1     -4.72      0.00 
    6   23    1     -1.13      0.00 
    8   23    1      4.02      0.00 
   10   23    1      9.02      0.00 
   12   23    1     -5.16      0.00 
   14   23    1      6.35      0.00 
   16   23    1     20.53      0.00 
   18   23    1     23.31      0.00 
    1   24    1      0.45      0.00 
    3   24    1    -12.03      0.00 
    5   24    1      3.41      0.00 
    7   24    1     -3.52      0.00 
    9   24    1      2.38      0.00 
   11   24    1     18.40      0.00 
   13   24    1     -0.98      0.00 
   15   24    1      1.94      0.00 
   17   24    1    -12.45      0.00 
    2   25    1     -2.42      0.00 
    4   25    1     -9.05      0.00 
    6   25    1      8.96      0.00 
    8   25    1      4.64      0.00 
   10   25    1     10.14      0.00 
   12   25    1     -2.62      0.00 
   14   25    1      5.76      0.00 
   16   25    1    -12.84      0.00 
    1   26    1      3.16      0.00 
    3   26    1     -8.44      0.00 
    5   26    1      7.69      0.00 
    7   26    1     -8.50      0.00 
    9   26    1     10.41      0.00 
   11   26    1     -3.30      0.00 
   13   26    1      0.58      0.00 
   15   26    1     -0.38      0.00 
   17   26    1    -18.05      0.00 
    2   27    1      0.94      0.00 
    4   27    1     -0.88      0.00 
    6   27    1     -7.34      0.00 
    8   27    1     -3.28      0.00 
   10   27    1     -4.98      0.00 
   12   27    1     -8.42      0.00 
   14   27    1     10.06      0.00 
   16   27    1      5.33      0.00 
    1   28    1      0.79      0.00 
    3   28    1     -7.12      0.00 
    5   28    1     -3.68      0.00 
    7   28    1     -1.49      0.00 
    9   28    1      4.44      0.00 
   11   28    1     -6.89      0.00 
   13   28    1     -5.56      0.00 
   15   28    1     11.27      0.00 
    2   29    1     -5.12      0.00 
    4   29    1     -4.61      0.00 
    6   29    1      2.36      0.00 
    8   29    1     -4.22      0.00 
   10   29    1      7.59      0.00 
   12   29    1     13.76      0.00 
   14   29    1     -8.12      0.00 
    1   30    1      9.04      0.00 
    3   30    1    -19.06      0.00 
    5   30    1      1.57      0.00 
    7   30    1    -13.63      0.00 
    9   30    1     11.60      0.00 
   11   30    1     -6.60      0.00 
   13   30    1     21.14      0.00 
    2   31    1     -0.18      0.00 
    4   31    1     -9.55      0.00 
    6   31    1      0.94      0.00 
    8   31    1     -9.77      0.00 
   10   31    1      7.30      0.00 
   12   31    1    -17.18      0.00 
    1   32    1      9.27      0.00 
    3   32    1    -10.21      0.00 
    5   32    1      3.60      0.00 
    7   32    1      1.86      0.00 
    9   32    1     -2.69      0.00 
   11   32    1      3.76      0.00 
   13   32    1     17.52      0.00 
    2   33    1     -3.23      0.00 
    4   33    1     -6.89      0.00 
    6   33    1      8.92      0.00 
    8   33    1      3.34      0.00 
   10   33    1     30.95      0.00 
   12   33    1     -0.30      0.00 
    1   34    1      3.54      0.00 
    3   34    1    -14.02      0.00 
    5   34    1      0.96      0.00 
    7   34    1    -16.91      0.00 
    9   34    1     12.79      0.00 
   11   34    1     -6.88      0.00 
    2   35    1      2.55      0.00 
    4   35    1      0.45      0.00 
    6   35    1      0.76      0.00 
    8   35    1    -21.68      0.00 
   10   35    1     -2.05      0.00 
    1   36    1      8.80      0.00 
    3   36    1    -10.62      0.00 
    5   36    1      5.02      0.00 
    7   36    1      9.57      0.00 
    9   36    1     13.61      0.00 
    2   37    1     -3.08      0.00 
    4   37    1      2.71      0.00 
    6   37    1     10.70      0.00 
    8   37    1      4.63      0.00 
    1   38    1      1.95      0.00 
    3   38    1     -7.32      0.00 
    5   38    1     -9.85      0.00 
    2   39    1     -0.54      0.00 
    4   39    1      3.01      0.00 
    2    0    2   -357.95      0.00 
    4    0    2     49.62      0.00 
    6    0    2    -73.79      0.00 
    8    0    2     34.85      0.00 
   10    0    2    -25.42      0.00 
   12    0    2     24.68      0.00 
   14    0    2     -8.02      0.00 
   16    0    2     -0.53      0.00 
   18    0    2    -16.10      0.00 
   20    0    2     10.62      0.00 
   22    0    2    -26.04      0.00 
    3    1    2     47.48      0.00 
    5    1    2    -70.45      0.00 
    7    1    2    -21.44      0.00 
    9    1    2     10.34      0.00 
   11    1    2     -0.37      0.00 
   13    1    2    -12.60      0.00 
   15    1    2    -10.74      0.00 
   17    1    2      6.11      0.00 
   19    1    2    -12.22      0.00 
   21    1    2     28.55      0.00 
    2    2    2    -30.66      0.00 
    4    2    2     30.39      0.00 
    6    2    2    -18.93      0.00 
    8    2    2     17.97      0.00 
   10    2    2    -27.20      0.00 
   12    2    2     16.35      0.00 
   14    2    2    -13.44      0.00 
   16    2    2     -5.93      0.00 
   18    2    2    -10.52      0.00 
   20    2    2     -1.08      0.00 
   22    2    2     -4.56      0.00 
    1    3    2    158.39      0.00 
    3    3    2     20.32      0.00 
    5    3    2     10.49      0.00 
    7    3    2     13.93      0.00 
    9    3    2     -1.88      0.00 
   11    3    2     10.73      0.00 
   13    3    2     -4.30      0.00 
   15    3    2    -14.88      0.00 
   17    3    2     12.45      0.00 
   19    3    2     -3.49      0.00 
   21    3    2     13.89      0.00 
    0    4    2    189.79      0.00 
    2    4    2    250.00      0.00 
    4    4    2    123.23      0.00 
    6    4    2     15.08      0.00 
    8    4    2     25.05      0.00 
   10    4    2     -7.09      0.00 
   12    4    2     16.29      0.00 
   14    4    2    -21.93      0.00 
   16    4    2      2.19      0.00 
   18    4    2    -10.22      0.00 
   20    4    2     -2.58      0.00 
   22    4    2     -6.38      0.00 
    1    5    2      1.85      0.00 
    3    5    2     59.93      0.00 
    5    5    2     45.32      0.00 
    7    5    2    -18.08      0.00 
    9    5    2     21.26      0.00 
   11    5    2      3.84      0.00 
   13    5    2     -0.93      0.00 
   15    5    2    -14.91      0.00 
   17    5    2      7.15      0.00 
   19    5    2     -9.25      0.00 
   21    5    2     -7.20      0.00 
    0    6    2    -14.64      0.00 
    2    6    2   -105.05      0.00 
    4    6    2     29.46      0.00 
    6    6    2     45.21      0.00 
    8    6    2     28.16      0.00 
   10    6    2     -0.83      0.00 
   12    6    2     11.39      0.00 
   14    6    2     -9.97      0.00 
   16    6    2     16.01      0.00 
   18    6    2    -10.85      0.00 
   20    6    2     10.77      0.00 
   22    6    2     -4.74      0.00 
    1    7    2   -159.67      0.00 
    3    7    2     23.52      0.00 
    5    7    2     28.14      0.00 
    7    7    2      7.52      0.00 
    9    7    2     21.08      0.00 
   11    7    2      5.69      0.00 
   13    7    2    -17.60      0.00 
   15    7    2     -6.52      0.00 
   17    7    2     13.19      0.00 
   19    7    2     -4.83      0.00 
   21    7    2     21.61      0.00 
    0    8    2    -11.86      0.00 
    2    8    2    -28.07      0.00 
    4    8    2     -4.51      0.00 
    6    8    2    -36.35      0.00 
    8    8    2      9.55      0.00 
   10    8    2    -10.60      0.00 
   12    8    2      9.68      0.00 
   14    8    2     -5.26      0.00 
   16    8    2      6.86      0.00 
   18    8    2     -8.20      0.00 
   20    8    2      0.41      0.00 
    1    9    2    -36.68      0.00 
    3    9    2    -41.30      0.00 
    5    9    2     -1.57      0.00 
    7    9    2    -27.50      0.00 
    9    9    2    -11.38      0.00 
   11    9    2    -11.65      0.00 
   13    9    2     -7.99      0.00 
   15    9    2     -5.89      0.00 
   17    9    2      1.43      0.00 
   19    9    2      5.86      0.00 
   21    9    2      4.10      0.00 
    0   10    2    -33.34      0.00 
    2   10    2      4.65      0.00 
    4   10    2      1.91      0.00 
    6   10    2    -33.62      0.00 
    8   10    2      0.76      0.00 
   10   10    2    -14.72      0.00 
   12   10    2     18.33      0.00 
   14   10    2      3.79      0.00 
   16   10    2      4.21      0.00 
   18   10    2      2.97      0.00 
   20   10    2      3.25      0.00 
    1   11    2    -45.73      0.00 
    3   11    2    -15.51      0.00 
    5   11    2      8.42      0.00 
    7   11    2      0.65      0.00 
    9   11    2    -14.73      0.00 
   11   11    2      6.52      0.00 
   13   11    2    -14.65      0.00 
   15   11    2     -2.58      0.00 
   17   11    2      4.60      0.00 
   19   11    2      5.51      0.00 
   21   11    2     -5.02      0.00 
    0   12    2     28.35      0.00 
    2   12    2     13.00      0.00 
    4   12    2      3.34      0.00 
    6   12    2      3.99      0.00 
    8   12    2     -6.50      0.00 
   10   12    2     15.95      0.00 
   12   12    2     -0.62      0.00 
   14   12    2      6.07      0.00 
   16   12    2      4.74      0.00 
   18   12    2    -11.24      0.00 
   20   12    2      1.16      0.00 
    1   13    2     -0.70      0.00 
    3   13    2     -0.58      0.00 
    5   13    2     -1.74      0.00 
    7   13    2     17.78      0.00 
    9   13    2    -10.69      0.00 
   11   13    2     15.32      0.00 
   13   13    2     -5.41      0.00 
   15   13    2      8.08      0.00 
   17   13    2     -2.40      0.00 
   19   13    2      9.10      0.00 
   21   13    2    -24.77      0.00 
    0   14    2    -33.36      0.00 
    2   14    2    -22.83      0.00 
    4   14    2    -10.47      0.00 
    6   14    2     14.10      0.00 
    8   14    2    -10.02      0.00 
   10   14    2      8.25      0.00 
   12   14    2    -10.22      0.00 
   14   14    2     -5.83      0.00 
   16   14    2      8.31      0.00 
   18   14    2     -6.11      0.00 
   20   14    2    -14.86      0.00 
    1   15    2    -34.22      0.00 
    3   15    2      8.13      0.00 
    5   15    2     11.30      0.00 
    7   15    2      0.32      0.00 
    9   15    2     -7.58      0.00 
   11   15    2      2.42      0.00 
   13   15    2    -19.68      0.00 
   15   15    2      6.27      0.00 
   17   15    2    -16.37      0.00 
   19   15    2     -0.08      0.00 
    0   16    2     30.66      0.00 
    2   16    2     20.14      0.00 
    4   16    2      7.44      0.00 
    6   16    2      5.74      0.00 
    8   16    2    -11.87      0.00 
   10   16    2      1.72      0.00 
   12   16    2      0.74      0.00 
   14   16    2     -1.40      0.00 
   16   16    2      6.31      0.00 
   18   16    2    -17.71      0.00 
   20   16    2     -5.05      0.00 
    1   17    2     22.46      0.00 
    3   17    2      0.28      0.00 
    5   17    2     -4.98      0.00 
    7   17    2    -13.18      0.00 
    9   17    2     -1.25      0.00 
   11   17    2      1.04      0.00 
   13   17    2    -21.97      0.00 
   15   17    2      9.37      0.00 
   17   17    2     11.75      0.00 
   19   17    2      5.71      0.00 
    0   18    2     -5.58      0.00 
    2   18    2      7.79      0.00 
    4   18    2    -16.33      0.00 
    6   18    2      6.11      0.00 
    8   18    2     -9.04      0.00 
   10   18    2     15.53      0.00 
   12   18    2     -7.58      0.00 
   14   18    2     10.99      0.00 
   16   18    2     -0.47      0.00 
   18   18    2    -10.00      0.00 
   20   18    2      0.12      0.00 
    1   19    2    -13.23      0.00 
    3   19    2      8.97      0.00 
    5   19    2     -8.84      0.00 
    7   19    2     13.46      0.00 
    9   19    2     -9.15      0.00 
   11   19    2      6.51      0.00 
   13   19    2    -13.51      0.00 
   15   19    2     19.35      0.00 
   17   19    2    -21.12      0.00 
   19   19    2      9.36      0.00 
    0   20    2     -7.55      0.00 
    2   20    2     10.86      0.00 
    4   20    2     -6.05      0.00 
    6   20    2     -1.98      0.00 
    8   20    2    -12.84      0.00 
   10   20    2     12.81      0.00 
   12   20    2    -10.83      0.00 
   14   20    2      5.99      0.00 
   16   20    2     -0.71      0.00 
   18   20    2      1.00      0.00 
    1   21    2     -0.60      0.00 
    3   21    2      7.02      0.00 
    5   21    2    -17.73      0.00 
    7   21    2    -11.09      0.00 
    9   21    2     -5.49      0.00 
   11   21    2     -3.10      0.00 
   13   21    2     -1.97      0.00 
   15   21    2     26.85      0.00 
   17   21    2      5.77      0.00 
   19   21    2     10.81      0.00 
    0   22    2    -25.73      0.00 
    2   22    2      6.94      0.00 
    4   22    2    -26.45      0.00 
    6   22    2     -8.24      0.00 
    8   22    2    -20.47      0.00 
   10   22    2     16.68      0.00 
   12   22    2     -0.44      0.00 
   14   22    2     23.51      0.00 
   16   22    2     12.06      0.00 
   18   22    2    -16.37      0.00 
    1   23    2    -21.97      0.00 
    3   23    2     -5.21      0.00 
    5   23    2     -7.46      0.00 
    7   23    2     -2.22      0.00 
    9   23    2      6.00      0.00 
   11   23    2      4.87      0.00 
   13   23    2     -0.70      0.00 
   15   23    2     -7.97      0.00 
   17   23    2     -5.05      0.00 
    0   24    2    -23.95      0.00 
    2   24    2      5.92      0.00 
    4   24    2     -7.56      0.00 
    6   24    2     -6.46      0.00 
    8   24    2    -19.94      0.00 
   10   24    2      6.72      0.00 
   12   24    2    -14.30      0.00 
   14   24    2     -2.23      0.00 
   16   24    2      5.40      0.00 
    1   25    2      0.59      0.00 
    3   25    2      8.94      0.00 
    5   25    2     -5.80      0.00 
    7   25    2     -3.71      0.00 
    9   25    2     -5.72      0.00 
   11   25    2     15.58      0.00 
   13   25    2    -23.20      0.00 
   15   25    2     -7.28      0.00 
   17   25    2     -4.27      0.00 
    0   26    2     14.19      0.00 
    2   26    2      6.61      0.00 
    4   26    2     -1.27      0.00 
    6   26    2     -8.81      0.00 
    8   26    2      0.81      0.00 
   10   26    2     13.29      0.00 
   12   26    2     -7.81      0.00 
   14   26    2     45.21      0.00 
   16   26    2     14.92      0.00 
    1   27    2     11.09      0.00 
    3   27    2     20.41      0.00 
    5   27    2      4.98      0.00 
    7   27    2      6.97      0.00 
    9   27    2     -2.10      0.00 
   11   27    2     -8.34      0.00 
   13   27    2    -12.90      0.00 
   15   27    2    -15.62      0.00 
    0   28    2      5.26      0.00 
    2   28    2     20.59      0.00 
    4   28    2     16.69      0.00 
    6   28    2      3.88      0.00 
    8   28    2      8.33      0.00 
   10   28    2      0.27      0.00 
   12   28    2     10.64      0.00 
   14   28    2    -14.91      0.00 
    1   29    2      0.64      0.00 
    3   29    2     -6.88      0.00 
    5   29    2     -3.75      0.00 
    7   29    2    -19.95      0.00 
    9   29    2     -3.31      0.00 
   11   29    2    -14.92      0.00 
   13   29    2      6.04      0.00 
   15   29    2     -1.88      0.00 
    0   30    2    -12.35      0.00 
    2   30    2     -4.69      0.00 
    4   30    2    -14.56      0.00 
    6   30    2    -12.60      0.00 
    8   30    2      1.10      0.00 
   10   30    2     19.94      0.00 
   12   30    2     -4.84      0.00 
   14   30    2     20.23      0.00 
    1   31    2    -11.28      0.00 
    3   31    2    -12.04      0.00 
    5   31    2     -7.25      0.00 
    7   31    2     -7.83      0.00 
    9   31    2     -2.49      0.00 
   11   31    2    -11.78      0.00 
   13   31    2     18.17      0.00 
    0   32    2     -7.04      0.00 
    2   32    2     -4.73      0.00 
    4   32    2     -9.61      0.00 
    6   32    2     -5.05      0.00 
    8   32    2     -2.37      0.00 
   10   32    2    -14.50      0.00 
   12   32    2      9.65      0.00 
    1   33    2     -9.00      0.00 
    3   33    2    -12.70      0.00 
    5   33    2     -1.11      0.00 
    7   33    2     -9.69      0.00 
    9   33    2     16.90      0.00 
   11   33    2      4.99      0.00 
    0   34    2     10.43      0.00 
    2   34    2      3.07      0.00 
    4   34    2     -0.31      0.00 
    6   34    2     -9.87      0.00 
    8   34    2    -19.04      0.00 
   10   34    2     -4.26      0.00 
    1   35    2     -0.96      0.00 
    3   35    2     -2.23      0.00 
    5   35    2      6.16      0.00 
    7   35    2     27.46      0.00 
    9   35    2     17.86      0.00 
    0   36    2     19.41      0.00 
    2   36    2     -4.43      0.00 
    4   36    2     15.05      0.00 
    6   36    2    -12.24      0.00 
    8   36    2    -16.76      0.00 
    1   37    2      4.94      0.00 
    3   37    2     -8.34      0.00 
    5   37    2      5.11      0.00 
    7   37    2     15.37      0.00 
    0   38    2     10.49      0.00 
    2   38    2      7.05      0.00 
    4   38    2      3.03      0.00 
    6   38    2    -18.99      0.00 
    1   39    2    -19.68      0.00 
    3   39    2     -3.70      0.00 
    2    1    3   -121.76      0.00 
    4    1    3     43.80      0.00 
    6    1    3    -35.08      0.00 
    8    1    3     -0.24      0.00 
   10    1    3     -6.66      0.00 
   12    1    3      3.19      0.00 
   14    1    3     -0.28      0.00 
   16    1    3     11.07      0.00 
   18    1    3     -8.69      0.00 
   20    1    3    -10.55      0.00 
   22    1    3    -16.83      0.00 
    1    2    3     43.33      0.00 
    3    2    3     16.75      0.00 
    5    2    3   -101.88      0.00 
    7    2    3      9.02      0.00 
    9    2    3     -9.87      0.00 
   11    2    3     -5.10      0.00 
   13    2    3      4.42      0.00 
   15    2    3     -3.42      0.00 
   17    2    3     -9.19      0.00 
   19    2    3      9.16      0.00 
   21    2    3     -5.12      0.00 
    2    3    3   -111.57      0.00 
    4    3    3      7.35      0.00 
    6    3    3    -31.80      0.00 
    8    3    3     -4.34      0.00 
   10    3    3     -6.45      0.00 
   12    3    3      6.93      0.00 
   14    3    3     -2.31      0.00 
   16    3    3     12.22      0.00 
   18    3    3     -2.75      0.00 
   20    3    3      1.71      0.00 
   22    3    3    -13.11      0.00 
    1    4    3     68.05      0.00 
    3    4    3   -112.42      0.00 
    5    4    3    -17.31      0.00 
    7    4    3    -15.37      0.00 
    9    4    3    -17.11      0.00 
   11    4    3      1.11      0.00 
   13    4    3      0.44      0.00 
   15    4    3      0.05      0.00 
   17    4    3     -1.19      0.00 
   19    4    3     -3.89      0.00 
   21    4    3    -13.96      0.00 
    2    5    3     67.23      0.00 
    4    5    3     65.03      0.00 
    6    5    3     -0.12      0.00 
    8    5    3     -2.57      0.00 
   10    5    3     -9.69      0.00 
   12    5    3     -2.77      0.00 
   14    5    3    -19.80      0.00 
   16    5    3      2.85      0.00 
   18    5    3      3.29      0.00 
   20    5    3     -7.00      0.00 
   22    5    3     -3.63      0.00 
    1    6    3    -22.89      0.00 
    3    6    3     -8.34      0.00 
    5    6    3     25.60      0.00 
    7    6    3     25.58      0.00 
    9    6    3    -20.06      0.00 
   11    6    3      7.91      0.00 
   13    6    3     -7.32      0.00 
   15    6    3      0.16      0.00 
   17    6    3    -23.48      0.00 
   19    6    3     12.64      0.00 
   21    6    3     -3.49      0.00 
    2    7    3     20.13      0.00 
    4    7    3     -2.97      0.00 
    6    7    3    -14.76      0.00 
    8    7    3    -10.95      0.00 
   10    7    3      5.24      0.00 
   12    7    3      2.18      0.00 
   14    7    3      0.56      0.00 
   16    7    3     18.21      0.00 
   18    7    3      0.59      0.00 
   20    7    3     -0.43      0.00 
   22    7    3      8.51      0.00 
    1    8    3    -52.92      0.00 
    3    8    3    -49.46      0.00 
    5    8    3     -5.92      0.00 
    7    8    3     25.05      0.00 
    9    8    3      0.37      0.00 
   11    8    3     18.50      0.00 
   13    8    3     10.82      0.00 
   15    8    3     -1.86      0.00 
   17    8    3     -4.41      0.00 
   19    8    3     29.87      0.00 
   21    8    3      6.81      0.00 
    2    9    3     24.26      0.00 
    4    9    3     12.99      0.00 
    6    9    3     17.52      0.00 
    8    9    3      6.85      0.00 
   10    9    3     12.50      0.00 
   12    9    3      3.59      0.00 
   14    9    3      1.07      0.00 
   16    9    3      2.44      0.00 
   18    9    3    -19.24      0.00 
   20    9    3    -12.15      0.00 
    1   10    3    -20.88      0.00 
    3   10    3      2.72      0.00 
    5   10    3     -5.24      0.00 
    7   10    3     36.72      0.00 
    9   10    3      1.49      0.00 
   11   10    3     11.12      0.00 
   13   10    3      2.72      0.00 
   15   10    3      2.19      0.00 
   17   10    3     -2.67      0.00 
   19   10    3      1.05      0.00 
   21   10    3    -24.36      0.00 
    2   11    3    -13.52      0.00 
    4   11    3      0.62      0.00 
    6   11    3     11.79      0.00 
    8   11    3     13.26      0.00 
   10   11    3      3.67      0.00 
   12   11    3     21.93      0.00 
   14   11    3     -5.60      0.00 
   16   11    3      5.44      0.00 
   18   11    3     -3.11      0.00 
   20   11    3     11.72      0.00 
    1   12    3    -43.78      0.00 
    3   12    3     -3.40      0.00 
    5   12    3    -23.43      0.00 
    7   12    3     14.38      0.00 
    9   12    3    -18.67      0.00 
   11   12    3      4.28      0.00 
   13   12    3     -9.05      0.00 
   15   12    3     12.32      0.00 
   17   12    3    -13.32      0.00 
   19   12    3      1.28      0.00 
   21   12    3    -16.87      0.00 
    2   13    3    -10.92      0.00 
    4   13    3    -15.14      0.00 
    6   13    3     -5.66      0.00 
    8   13    3    -21.71      0.00 
   10   13    3    -16.52      0.00 
   12   13    3     -0.29      0.00 
   14   13    3     -8.89      0.00 
   16   13    3      2.91      0.00 
   18   13    3     -0.45      0.00 
   20   13    3      5.74      0.00 
    1   14    3    -10.89      0.00 
    3   14    3     -2.74      0.00 
    5   14    3     -7.40      0.00 
    7   14    3    -14.57      0.00 
    9   14    3    -22.05      0.00 
   11   14    3      5.96      0.00 
   13   14    3      0.05      0.00 
   15   14    3     -0.82      0.00 
   17   14    3    -10.96      0.00 
   19   14    3      3.16      0.00 
    2   15    3     -8.61      0.00 
    4   15    3      0.44      0.00 
    6   15    3     -4.39      0.00 
    8   15    3     -6.42      0.00 
   10   15    3      2.28      0.00 
   12   15    3     -8.63      0.00 
   14   15    3    -11.43      0.00 
   16   15    3      2.34      0.00 
   18   15    3      2.97      0.00 
   20   15    3      7.17      0.00 
    1   16    3      8.10      0.00 
    3   16    3    -24.66      0.00 
    5   16    3      3.07      0.00 
    7   16    3      4.85      0.00 
    9   16    3    -14.28      0.00 
   11   16    3      9.72      0.00 
   13   16    3     -0.69      0.00 
   15   16    3      5.86      0.00 
   17   16    3    -13.04      0.00 
   19   16    3     10.20      0.00 
    2   17    3     -1.96      0.00 
    4   17    3     15.14      0.00 
    6   17    3     -4.38      0.00 
    8   17    3     12.61      0.00 
   10   17    3    -12.00      0.00 
   12   17    3      5.24      0.00 
   14   17    3     -9.85      0.00 
   16   17    3      4.41      0.00 
   18   17    3      8.65      0.00 
   20   17    3      2.00      0.00 
    1   18    3     -3.56      0.00 
    3   18    3     14.94      0.00 
    5   18    3     21.52      0.00 
    7   18    3      7.61      0.00 
    9   18    3      1.22      0.00 
   11   18    3      9.10      0.00 
   13   18    3     -6.63      0.00 
   15   18    3      6.17      0.00 
   17   18    3    -10.30      0.00 
   19   18    3     -2.10      0.00 
    2   19    3      5.62      0.00 
    4   19    3     14.43      0.00 
    6   19    3      5.66      0.00 
    8   19    3     12.87      0.00 
   10   19    3      1.34      0.00 
   12   19    3      9.37      0.00 
   14   19    3     -0.71      0.00 
   16   19    3      0.55      0.00 
   18   19    3     40.35      0.00 
    1   20    3    -10.95      0.00 
    3   20    3     10.28      0.00 
    5   20    3      5.66      0.00 
    7   20    3     16.31      0.00 
    9   20    3      5.66      0.00 
   11   20    3      2.63      0.00 
   13   20    3      1.46      0.00 
   15   20    3      4.38      0.00 
   17   20    3      0.72      0.00 
   19   20    3     -4.29      0.00 
    2   21    3     -4.29      0.00 
    4   21    3      5.40      0.00 
    6   21    3      8.18      0.00 
    8   21    3     -4.60      0.00 
   10   21    3      3.64      0.00 
   12   21    3     -9.34      0.00 
   14   21    3      5.79      0.00 
   16   21    3    -19.02      0.00 
   18   21    3      3.61      0.00 
    1   22    3      1.93      0.00 
    3   22    3     20.10      0.00 
    5   22    3      6.19      0.00 
    7   22    3     13.77      0.00 
    9   22    3    -13.44      0.00 
   11   22    3     -5.84      0.00 
   13   22    3      3.15      0.00 
   15   22    3     10.25      0.00 
   17   22    3     -9.39      0.00 
    2   23    3      0.32      0.00 
    4   23    3      7.53      0.00 
    6   23    3      3.65      0.00 
    8   23    3    -14.99      0.00 
   10   23    3     -3.11      0.00 
   12   23    3     -3.90      0.00 
   14   23    3     -5.74      0.00 
   16   23    3     -1.09      0.00 
   18   23    3      9.38      0.00 
    1   24    3      4.89      0.00 
    3   24    3     -2.81      0.00 
    5   24    3     -2.07      0.00 
    7   24    3      0.92      0.00 
    9   24    3     -6.76      0.00 
   11   24    3     -4.08      0.00 
   13   24    3     -5.04      0.00 
   15   24    3     17.12      0.00 
   17   24    3     -0.93      0.00 
    2   25    3      1.78      0.00 
    4   25    3     -1.67      0.00 
    6   25    3     11.12      0.00 
    8   25    3    -14.22      0.00 
   10   25    3     -2.16      0.00 
   12   25    3     -6.48      0.00 
   14   25    3    -22.86      0.00 
   16   25    3    -21.22      0.00 
    1   26    3     -5.76      0.00 
    3   26    3      1.18      0.00 
    5   26    3      8.46      0.00 
    7   26    3    -14.87      0.00 
    9   26    3     -5.40      0.00 
   11   26    3    -14.13      0.00 
   13   26    3     19.57      0.00 
   15   26    3     21.17      0.00 
    2   27    3     15.63      0.00 
    4   27    3      8.50      0.00 
    6   27    3      4.46      0.00 
    8   27    3      2.89      0.00 
   10   27    3      1.95      0.00 
   12   27    3    -17.34      0.00 
   14   27    3    -27.74      0.00 
   16   27    3      0.49      0.00 
    1   28    3      5.10      0.00 
    3   28    3     15.88      0.00 
    5   28    3      0.14      0.00 
    7   28    3      3.56      0.00 
    9   28    3      4.62      0.00 
   11   28    3     -1.39      0.00 
   13   28    3     15.60      0.00 
   15   28    3      9.72      0.00 
    2   29    3     -6.39      0.00 
    4   29    3      1.82      0.00 
    6   29    3     12.09      0.00 
    8   29    3     -5.23      0.00 
   10   29    3      8.30      0.00 
   12   29    3     15.19      0.00 
   14   29    3    -14.72      0.00 
    1   30    3      6.18      0.00 
    3   30    3     14.73      0.00 
    5   30    3     13.28      0.00 
    7   30    3      5.95      0.00 
    9   30    3     -2.35      0.00 
   11   30    3    -30.08      0.00 
   13   30    3     17.86      0.00 
    2   31    3      8.68      0.00 
    4   31    3     -1.92      0.00 
    6   31    3      5.63      0.00 
    8   31    3     -4.93      0.00 
   10   31    3     -0.83      0.00 
   12   31    3    -13.12      0.00 
    1   32    3     -0.46      0.00 
    3   32    3     16.87      0.00 
    5   32    3      8.82      0.00 
    7   32    3      5.96      0.00 
    9   32    3    -15.19      0.00 
   11   32    3    -31.68      0.00 
   13   32    3      4.00      0.00 
    2   33    3      7.65      0.00 
    4   33    3     14.23      0.00 
    6   33    3      5.84      0.00 
    8   33    3      0.73      0.00 
   10   33    3      0.67      0.00 
   12   33    3    -13.34      0.00 
    1   34    3     -6.17      0.00 
    3   34    3      0.99      0.00 
    5   34    3      7.69      0.00 
    7   34    3     -5.76      0.00 
    9   34    3      6.66      0.00 
   11   34    3     -5.46      0.00 
    2   35    3      9.52      0.00 
    4   35    3      1.74      0.00 
    6   35    3     -7.89      0.00 
    8   35    3      0.63      0.00 
   10   35    3    -10.33      0.00 
    1   36    3     -2.74      0.00 
    3   36    3      2.36      0.00 
    5   36    3     -2.09      0.00 
    7   36    3    -17.72      0.00 
    9   36    3    -16.90      0.00 
    2   37    3      0.04      0.00 
    4   37    3      6.22      0.00 
    6   37    3      5.31      0.00 
    8   37    3     15.62      0.00 
    1   38    3      4.56      0.00 
    3   38    3     -2.46      0.00 
    5   38    3    -13.66      0.00 
    2   39    3      6.71      0.00 
    4   39    3     19.08      0.00 
    0    0    4    457.57      0.00 
    2    0    4   -236.83      0.00 
    4    0    4     80.38      0.00 
    6    0    4    -18.76      0.00 
    8    0    4    -10.66      0.00 
   10    0    4     10.03      0.00 
   12    0    4     11.66      0.00 
   14    0    4     16.12      0.00 
   16    0    4      6.19      0.00 
   18    0    4     -5.81      0.00 
   20    0    4      7.93      0.00 
   22    0    4     -2.64      0.00 
    1    1    4    104.17      0.00 
    3    1    4     -3.97      0.00 
    5    1    4     10.84      0.00 
    7    1    4     25.13      0.00 
    9    1    4     -6.01      0.00 
   11    1    4      4.32      0.00 
   13    1    4     -2.75      0.00 
   15    1    4      0.16      0.00 
   17    1    4      3.73      0.00 
   19    1    4     -3.14      0.00 
   21    1    4     -2.82      0.00 
    0    2    4   -113.56      0.00 
    2    2    4    -20.63      0.00 
    4    2    4    -31.82      0.00 
    6    2    4      9.18      0.00 
    8    2    4     10.92      0.00 
   10    2    4     10.56      0.00 
   12    2    4      0.62      0.00 
   14    2    4      0.96      0.00 
   16    2    4      2.05      0.00 
   18    2    4      1.51      0.00 
   20    2    4      1.20      0.00 
   22    2    4     13.38      0.00 
    1    3    4   -177.52      0.00 
    3    3    4   -138.96      0.00 
    5    3    4     13.67      0.00 
    7    3    4     28.03      0.00 
    9    3    4    -16.49      0.00 
   11    3    4      1.03      0.00 
   13    3    4     13.44      0.00 
   15    3    4      5.94      0.00 
   17    3    4      1.27      0.00 
   19    3    4    -13.08      0.00 
   21    3    4    -13.38      0.00 
    0    4    4    -31.91      0.00 
    2    4    4     71.11      0.00 
    4    4    4    -23.60      0.00 
    6    4    4    -27.36      0.00 
    8    4    4     27.14      0.00 
   10    4    4      4.19      0.00 
   12    4    4     -1.41      0.00 
   14    4    4    -18.18      0.00 
   16    4    4     -5.85      0.00 
   18    4    4      3.92      0.00 
   20    4    4      1.02      0.00 
   22    4    4      0.95      0.00 
    1    5    4     93.21      0.00 
    3    5    4    -37.21      0.00 
    5    5    4     26.88      0.00 
    7    5    4      4.81      0.00 
    9    5    4     -7.27      0.00 
   11    5    4    -15.13      0.00 
   13    5    4      4.88      0.00 
   15    5    4     -9.05      0.00 
   17    5    4    -14.23      0.00 
   19    5    4      2.76      0.00 
   21    5    4    -10.59      0.00 
    0    6    4   -107.20      0.00 
    2    6    4    -12.11      0.00 
    4    6    4     -8.48      0.00 
    6    6    4     -8.38      0.00 
    8    6    4     -6.86      0.00 
   10    6    4    -11.98      0.00 
   12    6    4     -0.71      0.00 
   14    6    4     -3.38      0.00 
   16    6    4     -0.38      0.00 
   18    6    4     -9.96      0.00 
   20    6    4      0.04      0.00 
   22    6    4     -1.62      0.00 
    1    7    4     71.78      0.00 
    3    7    4     10.40      0.00 
    5    7    4     44.78      0.00 
    7    7    4     23.18      0.00 
    9    7    4      9.56      0.00 
   11    7    4     -0.76      0.00 
   13    7    4     -2.69      0.00 
   15    7    4     -6.21      0.00 
   17    7    4     -8.97      0.00 
   19    7    4     10.82      0.00 
   21    7    4      4.00      0.00 
    0    8    4     23.29      0.00 
    2    8    4     24.48      0.00 
    4    8    4     22.70      0.00 
    6    8    4     -5.72      0.00 
    8    8    4     10.08      0.00 
   10    8    4      4.40      0.00 
   12    8    4     -0.43      0.00 
   14    8    4     -0.94      0.00 
   16    8    4     -0.66      0.00 
   18    8    4    -11.44      0.00 
   20    8    4    -13.55      0.00 
    1    9    4     15.37      0.00 
    3    9    4    -34.42      0.00 
    5    9    4     15.75      0.00 
    7    9    4      1.95      0.00 
    9    9    4     15.92      0.00 
   11    9    4     -1.52      0.00 
   13    9    4     14.34      0.00 
   15    9    4     -1.48      0.00 
   17    9    4     -0.59      0.00 
   19    9    4     -5.61      0.00 
   21    9    4    -21.61      0.00 
    0   10    4   -114.98      0.00 
    2   10    4    -69.69      0.00 
    4   10    4     -1.52      0.00 
    6   10    4    -11.28      0.00 
    8   10    4     26.12      0.00 
   10   10    4     -3.69      0.00 
   12   10    4     11.66      0.00 
   14   10    4     -5.11      0.00 
   16   10    4     -0.45      0.00 
   18   10    4      1.04      0.00 
   20   10    4      7.78      0.00 
    1   11    4    -98.21      0.00 
    3   11    4    -47.23      0.00 
    5   11    4    -16.24      0.00 
    7   11    4     12.58      0.00 
    9   11    4     -0.82      0.00 
   11   11    4     -0.74      0.00 
   13   11    4      0.16      0.00 
   15   11    4     -2.17      0.00 
   17   11    4     -1.48      0.00 
   19   11    4     -8.79      0.00 
   21   11    4      7.92      0.00 
    0   12    4    -51.40      0.00 
    2   12    4    -17.44      0.00 
    4   12    4    -23.95      0.00 
    6   12    4    -16.01      0.00 
    8   12    4    -11.82      0.00 
   10   12    4      2.40      0.00 
   12   12    4      7.15      0.00 
   14   12    4     -6.41      0.00 
   16   12    4     -5.16      0.00 
   18   12    4     -4.69      0.00 
   20   12    4      3.40      0.00 
    1   13    4      2.28      0.00 
    3   13    4      9.09      0.00 
    5   13    4    -18.42      0.00 
    7   13    4     20.97      0.00 
    9   13    4    -15.51      0.00 
   11   13    4      1.75      0.00 
   13   13    4     -1.03      0.00 
   15   13    4      2.26      0.00 
   17   13    4    -14.68      0.00 
   19   13    4      3.79      0.00 
   21   13    4     15.59      0.00 
    0   14    4     -1.56      0.00 
    2   14    4     21.53      0.00 
    4   14    4     -2.47      0.00 
    6   14    4      5.00      0.00 
    8   14    4     -0.72      0.00 
   10   14    4      4.44      0.00 
   12   14    4     -3.07      0.00 
   14   14    4     -8.53      0.00 
   16   14    4      8.65      0.00 
   18   14    4     10.99      0.00 
   20   14    4     -8.68      0.00 
    1   15    4    -13.09      0.00 
    3   15    4     14.96      0.00 
    5   15    4      9.82      0.00 
    7   15    4     13.63      0.00 
    9   15    4      5.32      0.00 
   11   15    4      0.36      0.00 
   13   15    4      3.72      0.00 
   15   15    4      3.41      0.00 
   17   15    4    -22.60      0.00 
   19   15    4     14.40      0.00 
    0   16    4     17.99      0.00 
    2   16    4      4.62      0.00 
    4   16    4     37.19      0.00 
    6   16    4     18.56      0.00 
    8   16    4     24.59      0.00 
   10   16    4      4.64      0.00 
   12   16    4      3.57      0.00 
   14   16    4      3.13      0.00 
   16   16    4     -5.47      0.00 
   18   16    4     10.50      0.00 
   20   16    4     -6.23      0.00 
    1   17    4     23.33      0.00 
    3   17    4     -2.17      0.00 
    5   17    4     20.82      0.00 
    7   17    4     -2.60      0.00 
    9   17    4     -0.68      0.00 
   11   17    4     -1.67      0.00 
   13   17    4      9.56      0.00 
   15   17    4      2.91      0.00 
   17   17    4    -10.89      0.00 
   19   17    4     -2.47      0.00 
    0   18    4    -20.78      0.00 
    2   18    4    -16.17      0.00 
    4   18    4     -0.27      0.00 
    6   18    4      0.71      0.00 
    8   18    4     10.12      0.00 
   10   18    4    -10.72      0.00 
   12   18    4    -11.24      0.00 
   14   18    4      1.91      0.00 
   16   18    4     -3.58      0.00 
   18   18    4     25.49      0.00 
    1   19    4    -31.38      0.00 
    3   19    4    -17.84      0.00 
    5   19    4     -3.92      0.00 
    7   19    4      3.34      0.00 
    9   19    4    -18.85      0.00 
   11   19    4      5.83      0.00 
   13   19    4      0.97      0.00 
   15   19    4     -3.95      0.00 
   17   19    4    -14.86      0.00 
   19   19    4     15.57      0.00 
    0   20    4    -37.49      0.00 
    2   20    4    -26.19      0.00 
    4   20    4    -21.40      0.00 
    6   20    4      5.51      0.00 
    8   20    4     -0.71      0.00 
   10   20    4     -4.06      0.00 
   12   20    4      0.98      0.00 
   14   20    4    -18.05      0.00 
   16   20    4      5.53      0.00 
   18   20    4     13.52      0.00 
    1   21    4    -24.66      0.00 
    3   21    4    -24.62      0.00 
    5   21    4     -5.76      0.00 
    7   21    4     -1.57      0.00 
    9   21    4     -5.70      0.00 
   11   21    4     11.04      0.00 
   13   21    4      4.43      0.00 
   15   21    4    -13.47      0.00 
   17   21    4     -0.10      0.00 
    0   22    4    -10.78      0.00 
    2   22    4     -4.23      0.00 
    4   22    4    -28.80      0.00 
    6   22    4      7.31      0.00 
    8   22    4      6.02      0.00 
   10   22    4     -2.15      0.00 
   12   22    4      1.90      0.00 
   14   22    4     -1.72      0.00 
   16   22    4      5.21      0.00 
   18   22    4    -13.48      0.00 
    1   23    4      3.55      0.00 
    3   23    4    -13.23      0.00 
    5   23    4      8.82      0.00 
    7   23    4     19.07      0.00 
    9   23    4     -6.65      0.00 
   11   23    4      1.10      0.00 
   13   23    4     13.60      0.00 
   15   23    4     -4.48      0.00 
   17   23    4      3.69      0.00 
    0   24    4     10.72      0.00 
    2   24    4     -1.84      0.00 
    4   24    4      3.00      0.00 
    6   24    4      5.13      0.00 
    8   24    4     11.84      0.00 
   10   24    4      0.19      0.00 
   12   24    4     -6.38      0.00 
   14   24    4    -10.56      0.00 
   16   24    4     -1.98      0.00 
    1   25    4      9.87      0.00 
    3   25    4     -3.19      0.00 
    5   25    4     11.03      0.00 
    7   25    4     10.59      0.00 
    9   25    4      0.15      0.00 
   11   25    4     -4.07      0.00 
   13   25    4      0.76      0.00 
   15   25    4      9.07      0.00 
   17   25    4     13.40      0.00 
    0   26    4     18.59      0.00 
    2   26    4     -9.91      0.00 
    4   26    4      3.43      0.00 
    6   26    4      4.48      0.00 
    8   26    4     -6.54      0.00 
   10   26    4    -15.77      0.00 
   12   26    4      5.86      0.00 
   14   26    4     24.31      0.00 
   16   26    4     -1.93      0.00 
    1   27    4     -9.10      0.00 
    3   27    4    -14.12      0.00 
    5   27    4     -2.11      0.00 
    7   27    4      1.30      0.00 
    9   27    4      8.63      0.00 
   11   27    4     -3.94      0.00 
   13   27    4      1.93      0.00 
   15   27    4     -6.14      0.00 
    0   28    4     -8.71      0.00 
    2   28    4     -5.37      0.00 
    4   28    4     -9.18      0.00 
    6   28    4      3.49      0.00 
    8   28    4     -2.40      0.00 
   10   28    4     -6.00      0.00 
   12   28    4     20.76      0.00 
   14   28    4    -16.57      0.00 
    1   29    4     -6.82      0.00 
    3   29    4     -5.48      0.00 
    5   29    4      3.21      0.00 
    7   29    4      1.11      0.00 
    9   29    4     -2.19      0.00 
   11   29    4    -12.90      0.00 
   13   29    4    -11.32      0.00 
   15   29    4     -1.61      0.00 
    0   30    4      3.60      0.00 
    2   30    4     -1.02      0.00 
    4   30    4     -8.05      0.00 
    6   30    4      9.46      0.00 
    8   30    4     -3.50      0.00 
   10   30    4     10.61      0.00 
   12   30    4    -16.88      0.00 
   14   30    4     18.04      0.00 
    1   31    4      7.60      0.00 
    3   31    4      0.10      0.00 
    5   31    4     -1.86      0.00 
    7   31    4      5.97      0.00 
    9   31    4     -9.34      0.00 
   11   31    4     -7.56      0.00 
   13   31    4     -1.06      0.00 
    0   32    4     -5.32      0.00 
    2   32    4     -3.90      0.00 
    4   32    4     -3.42      0.00 
    6   32    4      0.75      0.00 
    8   32    4     -9.05      0.00 
   10   32    4    -14.17      0.00 
   12   32    4     23.25      0.00 
    1   33    4    -10.16      0.00 
    3   33    4     -4.02      0.00 
    5   33    4     -7.34      0.00 
    7   33    4     -3.77      0.00 
    9   33    4     11.24      0.00 
   11   33    4     -2.87      0.00 
    0   34    4     -4.28      0.00 
    2   34    4    -11.13      0.00 
    4   34    4      0.54      0.00 
    6   34    4      7.56      0.00 
    8   34    4     14.55      0.00 
   10   34    4      3.46      0.00 
    1   35    4     -5.08      0.00 
    3   35    4      8.34      0.00 
    5   35    4     -8.20      0.00 
    7   35    4      6.98      0.00 
    9   35    4      8.31      0.00 
    0   36    4     12.85      0.00 
    2   36    4     -9.10      0.00 
    4   36    4     -4.61      0.00 
    6   36    4     -7.74      0.00 
    8   36    4      1.85      0.00 
    1   37    4      8.61      0.00 
    3   37    4     11.33      0.00 
    5   37    4      5.36      0.00 
    7   37    4      6.92      0.00 
    0   38    4      9.14      0.00 
    2   38    4      2.29      0.00 
    4   38    4     -4.29      0.00 
    6   38    4      0.01      0.00 
    1   39    4     -7.52      0.00 
    3   39    4      0.00      0.00 
    2    1    5    -21.21      0.00 
    4    1    5     71.36      0.00 
    6    1    5     -3.96      0.00 
    8    1    5      7.98      0.00 
   10    1    5     -7.47      0.00 
   12    1    5     -8.43      0.00 
   14    1    5    -15.74      0.00 
   16    1    5     -1.09      0.00 
   18    1    5      5.90      0.00 
   20    1    5      4.31      0.00 
   22    1    5      8.61      0.00 
    1    2    5     17.13      0.00 
    3    2    5     79.51      0.00 
    5    2    5      3.76      0.00 
    7    2    5     10.84      0.00 
    9    2    5     -5.28      0.00 
   11    2    5    -19.71      0.00 
   13    2    5     -1.67      0.00 
   15    2    5     -2.74      0.00 
   17    2    5    -12.88      0.00 
   19    2    5     -7.30      0.00 
   21    2    5     -6.50      0.00 
    2    3    5      8.83      0.00 
    4    3    5     22.18      0.00 
    6    3    5     -1.66      0.00 
    8    3    5     -7.88      0.00 
   10    3    5    -19.17      0.00 
   12    3    5     -4.21      0.00 
   14    3    5    -15.23      0.00 
   16    3    5     -8.19      0.00 
   18    3    5      5.25      0.00 
   20    3    5     27.35      0.00 
   22    3    5     33.55      0.00 
    1    4    5      4.26      0.00 
    3    4    5    -65.97      0.00 
    5    4    5      5.88      0.00 
    7    4    5    -21.57      0.00 
    9    4    5     10.63      0.00 
   11    4    5     -8.73      0.00 
   13    4    5     -5.43      0.00 
   15    4    5     11.90      0.00 
   17    4    5     14.03      0.00 
   19    4    5      1.32      0.00 
   21    4    5     -5.06      0.00 
    2    5    5     16.95      0.00 
    4    5    5    -23.84      0.00 
    6    5    5     -9.35      0.00 
    8    5    5     -3.02      0.00 
   10    5    5     -2.30      0.00 
   12    5    5     12.45      0.00 
   14    5    5      4.35      0.00 
   16    5    5     -3.39      0.00 
   18    5    5      3.59      0.00 
   20    5    5      3.87      0.00 
   22    5    5     22.90      0.00 
    1    6    5     15.92      0.00 
    3    6    5     58.94      0.00 
    5    6    5     -0.76      0.00 
    7    6    5      0.54      0.00 
    9    6    5     18.21      0.00 
   11    6    5      4.29      0.00 
   13    6    5     -6.46      0.00 
   15    6    5      7.43      0.00 
   17    6    5     -9.71      0.00 
   19    6    5     -6.78      0.00 
   21    6    5     -2.48      0.00 
    2    7    5    -16.64      0.00 
    4    7    5     19.30      0.00 
    6    7    5     34.17      0.00 
    8    7    5      4.32      0.00 
   10    7    5     11.96      0.00 
   12    7    5      0.18      0.00 
   14    7    5      9.26      0.00 
   16    7    5      1.56      0.00 
   18    7    5     13.21      0.00 
   20    7    5     -9.93      0.00 
    1    8    5     43.64      0.00 
    3    8    5     29.59      0.00 
    5    8    5    -16.20      0.00 
    7    8    5      3.67      0.00 
    9    8    5     17.72      0.00 
   11    8    5    -16.44      0.00 
   13    8    5     -1.44      0.00 
   15    8    5    -13.28      0.00 
   17    8    5     -6.33      0.00 
   19    8    5      8.91      0.00 
   21    8    5     13.65      0.00 
    2    9    5      8.03      0.00 
    4    9    5     41.83      0.00 
    6    9    5     21.82      0.00 
    8    9    5    -18.51      0.00 
   10    9    5     10.16      0.00 
   12    9    5    -14.18      0.00 
   14    9    5      0.88      0.00 
   16    9    5     -5.09      0.00 
   18    9    5      8.64      0.00 
   20    9    5    -19.38      0.00 
    1   10    5     31.97      0.00 
    3   10    5     40.26      0.00 
    5   10    5    -11.77      0.00 
    7   10    5    -13.67      0.00 
    9   10    5     -2.58      0.00 
   11   10    5    -18.36      0.00 
   13   10    5      4.61      0.00 
   15   10    5     -3.31      0.00 
   17   10    5      6.92      0.00 
   19   10    5      3.12      0.00 
   21   10    5      5.83      0.00 
    2   11    5     -1.49      0.00 
    4   11    5     11.22      0.00 
    6   11    5    -20.42      0.00 
    8   11    5    -12.50      0.00 
   10   11    5     -9.29      0.00 
   12   11    5     -2.81      0.00 
   14   11    5     -4.35      0.00 
   16   11    5     -8.91      0.00 
   18   11    5     13.60      0.00 
   20   11    5     -1.91      0.00 
    1   12    5      4.40      0.00 
    3   12    5     10.36      0.00 
    5   12    5    -10.76      0.00 
    7   12    5     -4.28      0.00 
    9   12    5     10.65      0.00 
   11   12    5     -6.24      0.00 
   13   12    5     -8.05      0.00 
   15   12    5      0.55      0.00 
   17   12    5      6.34      0.00 
   19   12    5    -12.60      0.00 
   21   12    5     16.80      0.00 
    2   13    5     26.46      0.00 
    4   13    5      5.43      0.00 
    6   13    5     -1.71      0.00 
    8   13    5     -6.24      0.00 
   10   13    5    -11.43      0.00 
   12   13    5     -5.71      0.00 
   14   13    5      7.67      0.00 
   16   13    5     -4.10      0.00 
   18   13    5     10.09      0.00 
   20   13    5     -7.25      0.00 
    1   14    5     28.59      0.00 
    3   14    5     -1.32      0.00 
    5   14    5     23.17      0.00 
    7   14    5    -15.56      0.00 
    9   14    5     18.89      0.00 
   11   14    5     -4.70      0.00 
   13   14    5     -6.54      0.00 
   15   14    5     -3.93      0.00 
   17   14    5     13.30      0.00 
   19   14    5    -13.95      0.00 
    2   15    5     35.22      0.00 
    4   15    5      9.93      0.00 
    6   15    5     20.21      0.00 
    8   15    5      5.43      0.00 
   10   15    5      8.42      0.00 
   12   15    5     -4.43      0.00 
   14   15    5      8.45      0.00 
   16   15    5      0.14      0.00 
   18   15    5      1.60      0.00 
   20   15    5      7.64      0.00 
    1   16    5     40.87      0.00 
    3   16    5    -16.69      0.00 
    5   16    5      4.86      0.00 
    7   16    5    -10.22      0.00 
    9   16    5      8.71      0.00 
   11   16    5     -9.97      0.00 
   13   16    5      1.56      0.00 
   15   16    5      2.90      0.00 
   17   16    5     11.51      0.00 
   19   16    5     10.51      0.00 
    2   17    5     -4.46      0.00 
    4   17    5      2.81      0.00 
    6   17    5      1.35      0.00 
    8   17    5     -6.65      0.00 
   10   17    5     -5.47      0.00 
   12   17    5      2.75      0.00 
   14   17    5      6.25      0.00 
   16   17    5     -7.39      0.00 
   18   17    5    -21.75      0.00 
   20   17    5     12.20      0.00 
    1   18    5     17.53      0.00 
    3   18    5     17.23      0.00 
    5   18    5     -8.02      0.00 
    7   18    5    -11.87      0.00 
    9   18    5      5.74      0.00 
   11   18    5     -4.68      0.00 
   13   18    5     -0.10      0.00 
   15   18    5      4.65      0.00 
   17   18    5      7.18      0.00 
   19   18    5    -22.89      0.00 
    2   19    5     11.64      0.00 
    4   19    5     12.43      0.00 
    6   19    5      2.27      0.00 
    8   19    5      9.48      0.00 
   10   19    5      0.12      0.00 
   12   19    5      0.98      0.00 
   14   19    5      5.29      0.00 
   16   19    5    -21.34      0.00 
   18   19    5     -4.58      0.00 
    1   20    5     -6.10      0.00 
    3   20    5     10.42      0.00 
    5   20    5     -8.84      0.00 
    7   20    5     -0.02      0.00 
    9   20    5      6.38      0.00 
   11   20    5      3.75      0.00 
   13   20    5    -11.75      0.00 
   15   20    5    -20.29      0.00 
   17   20    5     18.46      0.00 
   19   20    5    -13.95      0.00 
    2   21    5      5.54      0.00 
    4   21    5     -5.07      0.00 
    6   21    5     -4.55      0.00 
    8   21    5      3.85      0.00 
   10   21    5      2.07      0.00 
   12   21    5     -6.33      0.00 
   14   21    5      7.15      0.00 
   16   21    5     -6.77      0.00 
   18   21    5    -22.41      0.00 
    1   22    5      0.47      0.00 
    3   22    5      3.32      0.00 
    5   22    5    -11.69      0.00 
    7   22    5     -1.06      0.00 
    9   22    5     -9.01      0.00 
   11   22    5      4.65      0.00 
   13   22    5     -2.55      0.00 
   15   22    5     -0.87      0.00 
   17   22    5      9.76      0.00 
    2   23    5      9.88      0.00 
    4   23    5     -4.94      0.00 
    6   23    5     -7.27      0.00 
    8   23    5     -2.74      0.00 
   10   23    5     -4.49      0.00 
   12   23    5     -3.25      0.00 
   14   23    5     -5.84      0.00 
   16   23    5     22.56      0.00 
   18   23    5     -0.87      0.00 
    1   24    5      6.82      0.00 
    3   24    5     -3.24      0.00 
    5   24    5      4.91      0.00 
    7   24    5     -1.99      0.00 
    9   24    5      0.17      0.00 
   11   24    5     12.92      0.00 
   13   24    5     -5.35      0.00 
   15   24    5     -5.48      0.00 
   17   24    5     -4.29      0.00 
    2   25    5      2.53      0.00 
    4   25    5     -8.75      0.00 
    6   25    5     -9.38      0.00 
    8   25    5      1.01      0.00 
   10   25    5      3.34      0.00 
   12   25    5      9.58      0.00 
   14   25    5      5.34      0.00 
   16   25    5     -7.46      0.00 
    1   26    5     -8.08      0.00 
    3   26    5      2.90      0.00 
    5   26    5      6.55      0.00 
    7   26    5     -3.04      0.00 
    9   26    5     14.42      0.00 
   11   26    5     -5.57      0.00 
   13   26    5      8.05      0.00 
   15   26    5      3.74      0.00 
    2   27    5      0.63      0.00 
    4   27    5      9.19      0.00 
    6   27    5     -4.06      0.00 
    8   27    5     22.18      0.00 
   10   27    5     -2.91      0.00 
   12   27    5     -5.44      0.00 
   14   27    5      2.72      0.00 
   16   27    5     -0.91      0.00 
    1   28    5     -3.75      0.00 
    3   28    5      8.45      0.00 
    5   28    5     -1.40      0.00 
    7   28    5      0.17      0.00 
    9   28    5      4.52      0.00 
   11   28    5      2.66      0.00 
   13   28    5      3.71      0.00 
   15   28    5      1.66      0.00 
    2   29    5     -7.96      0.00 
    4   29    5     -6.92      0.00 
    6   29    5    -17.10      0.00 
    8   29    5      0.40      0.00 
   10   29    5     -1.77      0.00 
   12   29    5     11.49      0.00 
   14   29    5      0.65      0.00 
    1   30    5     -0.57      0.00 
    3   30    5     -2.28      0.00 
    5   30    5      5.17      0.00 
    7   30    5      3.64      0.00 
    9   30    5     -0.27      0.00 
   11   30    5      9.95      0.00 
   13   30    5     -8.77      0.00 
    2   31    5      0.71      0.00 
    4   31    5    -10.23      0.00 
    6   31    5     -2.95      0.00 
    8   31    5     -1.08      0.00 
   10   31    5     13.87      0.00 
   12   31    5      4.86      0.00 
    1   32    5      8.34      0.00 
    3   32    5     -3.17      0.00 
    5   32    5     -5.30      0.00 
    7   32    5     -1.13      0.00 
    9   32    5     -0.44      0.00 
   11   32    5     22.16      0.00 
   13   32    5      0.03      0.00 
    2   33    5    -11.39      0.00 
    4   33    5     -0.08      0.00 
    6   33    5     -4.12      0.00 
    8   33    5    -13.82      0.00 
   10   33    5     -6.16      0.00 
   12   33    5     -9.33      0.00 
    1   34    5     18.25      0.00 
    3   34    5     -7.02      0.00 
    5   34    5     -7.45      0.00 
    7   34    5      4.81      0.00 
    9   34    5     18.18      0.00 
   11   34    5     31.79      0.00 
    2   35    5    -12.31      0.00 
    4   35    5      4.76      0.00 
    6   35    5     -3.03      0.00 
    8   35    5     -0.16      0.00 
   10   35    5     -9.26      0.00 
    1   36    5      6.11      0.00 
    3   36    5      3.34      0.00 
    5   36    5     -5.64      0.00 
    7   36    5      6.84      0.00 
    9   36    5      0.19      0.00 
    2   37    5     -1.99      0.00 
    4   37    5     10.37      0.00 
    6   37    5      9.28      0.00 
    1   38    5     -1.24      0.00 
    3   38    5     -4.89      0.00 
    5   38    5      5.70      0.00 
    2   39    5      1.94      0.00 
    0    0    6    166.18      0.00 
    2    0    6     39.96      0.00 
    4    0    6    118.01      0.00 
    6    0    6    -10.60      0.00 
    8    0    6     -2.01      0.00 
   10    0    6     24.57      0.00 
   12    0    6    -16.99      0.00 
   14    0    6    -11.21      0.00 
   16    0    6      4.47      0.00 
   18    0    6      1.51      0.00 
   20    0    6     -6.03      0.00 
   22    0    6    -13.61      0.00 
    1    1    6     70.61      0.00 
    3    1    6     55.64      0.00 
    5    1    6    -38.07      0.00 
    7    1    6     18.56      0.00 
    9    1    6     -6.99      0.00 
   11    1    6    -11.41      0.00 
   13    1    6      2.68      0.00 
   15    1    6     11.40      0.00 
   17    1    6    -21.29      0.00 
   19    1    6     20.57      0.00 
   21    1    6    -11.08      0.00 
    0    2    6    -74.99      0.00 
    2    2    6    115.65      0.00 
    4    2    6    -12.91      0.00 
    6    2    6     -7.41      0.00 
    8    2    6    -29.18      0.00 
   10    2    6     17.32      0.00 
   12    2    6    -15.74      0.00 
   14    2    6     -1.04      0.00 
   16    2    6      5.03      0.00 
   18    2    6     14.07      0.00 
   20    2    6      1.18      0.00 
   22    2    6      5.29      0.00 
    1    3    6     96.87      0.00 
    3    3    6     66.40      0.00 
    5    3    6     10.66      0.00 
    7    3    6     23.53      0.00 
    9    3    6    -14.98      0.00 
   11    3    6     -4.33      0.00 
   13    3    6     13.64      0.00 
   15    3    6      3.57      0.00 
   17    3    6    -13.88      0.00 
   19    3    6      9.36      0.00 
   21    3    6     -4.68      0.00 
    0    4    6    -61.85      0.00 
    2    4    6    -58.84      0.00 
    4    4    6    -60.88      0.00 
    6    4    6    -41.17      0.00 
    8    4    6    -28.29      0.00 
   10    4    6     23.53      0.00 
   12    4    6     -8.81      0.00 
   14    4    6      5.56      0.00 
   16    4    6      8.51      0.00 
   18    4    6     22.78      0.00 
   20    4    6      1.68      0.00 
   22    4    6      7.27      0.00 
    1    5    6    105.98      0.00 
    3    5    6    -21.50      0.00 
    5    5    6     -8.22      0.00 
    7    5    6     -1.03      0.00 
    9    5    6     -0.36      0.00 
   11    5    6    -10.94      0.00 
   13    5    6     17.78      0.00 
   15    5    6      8.83      0.00 
   17    5    6     -9.27      0.00 
   19    5    6     -0.08      0.00 
   21    5    6     -1.30      0.00 
    0    6    6   -105.54      0.00 
    2    6    6    -38.18      0.00 
    4    6    6      5.98      0.00 
    6    6    6    -14.24      0.00 
    8    6    6    -32.46      0.00 
   10    6    6     19.72      0.00 
   12    6    6     -6.29      0.00 
   14    6    6      9.93      0.00 
   16    6    6     11.09      0.00 
   18    6    6      3.77      0.00 
   20    6    6      4.66      0.00 
    1    7    6    -68.63      0.00 
    3    7    6    -67.52      0.00 
    5    7    6    -31.75      0.00 
    7    7    6    -12.09      0.00 
    9    7    6     -8.13      0.00 
   11    7    6     -0.74      0.00 
   13    7    6      6.92      0.00 
   15    7    6     11.53      0.00 
   17    7    6     -1.85      0.00 
   19    7    6      3.51      0.00 
   21    7    6     -1.79      0.00 
    0    8    6     33.81      0.00 
    2    8    6     35.46      0.00 
    4    8    6    -28.63      0.00 
    6    8    6    -10.23      0.00 
    8    8    6     -3.19      0.00 
   10    8    6      4.85      0.00 
   12    8    6    -16.81      0.00 
   14    8    6     -6.75      0.00 
   16    8    6      1.54      0.00 
   18    8    6      5.37      0.00 
   20    8    6     11.78      0.00 
    1    9    6     82.68      0.00 
    3    9    6     34.18      0.00 
    5    9    6     10.90      0.00 
    7    9    6    -21.57      0.00 
    9    9    6      3.10      0.00 
   11    9    6     -4.16      0.00 
   13    9    6      6.31      0.00 
   15    9    6     -2.17      0.00 
   17    9    6      3.18      0.00 
   19    9    6      0.47      0.00 
   21    9    6    -19.30      0.00 
    0   10    6     79.47      0.00 
    2   10    6     59.98      0.00 
    4   10    6     10.40      0.00 
    6   10    6     10.98      0.00 
    8   10    6      3.54      0.00 
   10   10    6    -13.34      0.00 
   12   10    6      0.99      0.00 
   14   10    6     -4.76      0.00 
   16   10    6     -1.21      0.00 
   18   10    6     -4.23      0.00 
   20   10    6     22.28      0.00 
    1   11    6     87.60      0.00 
    3   11    6     45.40      0.00 
    5   11    6     36.00      0.00 
    7   11    6      4.74      0.00 
    9   11    6      6.57      0.00 
   11   11    6      2.98      0.00 
   13   11    6      7.52      0.00 
   15   11    6      3.78      0.00 
   17   11    6     11.51      0.00 
   19   11    6      6.55      0.00 
   21   11    6      2.26      0.00 
    0   12    6     88.14      0.00 
    2   12    6     64.57      0.00 
    4   12    6     26.05      0.00 
    6   12    6     27.08      0.00 
    8   12    6      3.78      0.00 
   10   12    6      6.95      0.00 
   12   12    6     -1.06      0.00 
   14   12    6     -1.04      0.00 
   16   12    6      4.73      0.00 
   18   12    6     -3.36      0.00 
   20   12    6    -10.01      0.00 
    1   13    6     50.96      0.00 
    3   13    6      1.05      0.00 
    5   13    6     -6.23      0.00 
    7   13    6      1.45      0.00 
    9   13    6      7.64      0.00 
   11   13    6      3.10      0.00 
   13   13    6      3.35      0.00 
   15   13    6      9.23      0.00 
   17   13    6     13.39      0.00 
   19   13    6     -9.72      0.00 
    0   14    6    -37.76      0.00 
    2   14    6    -34.64      0.00 
    4   14    6    -12.94      0.00 
    6   14    6      2.54      0.00 
    8   14    6    -10.96      0.00 
   10   14    6     -8.79      0.00 
   12   14    6      9.68      0.00 
   14   14    6     -6.11      0.00 
   16   14    6      5.62      0.00 
   18   14    6      0.02      0.00 
   20   14    6      6.94      0.00 
    1   15    6    -15.22      0.00 
    3   15    6    -24.42      0.00 
    5   15    6    -22.56      0.00 
    7   15    6    -20.13      0.00 
    9   15    6      9.26      0.00 
   11   15    6     -6.95      0.00 
   13   15    6      2.09      0.00 
   15   15    6     -1.99      0.00 
   17   15    6     10.39      0.00 
   19   15    6    -11.49      0.00 
    0   16    6     -7.85      0.00 
    2   16    6    -35.90      0.00 
    4   16    6     -7.69      0.00 
    6   16    6    -33.10      0.00 
    8   16    6     -2.29      0.00 
   10   16    6     -3.54      0.00 
   12   16    6      3.57      0.00 
   14   16    6     -9.09      0.00 
   16   16    6     -0.88      0.00 
   18   16    6     -6.74      0.00 
   20   16    6     17.01      0.00 
    1   17    6      5.57      0.00 
    3   17    6    -27.21      0.00 
    5   17    6     -3.78      0.00 
    7   17    6    -28.79      0.00 
    9   17    6      8.24      0.00 
   11   17    6     -1.76      0.00 
   13   17    6      3.90      0.00 
   15   17    6     -6.79      0.00 
   17   17    6     13.50      0.00 
   19   17    6    -26.88      0.00 
    0   18    6     23.26      0.00 
    2   18    6      4.19      0.00 
    4   18    6      3.11      0.00 
    6   18    6    -14.40      0.00 
    8   18    6      9.37      0.00 
   10   18    6     -2.43      0.00 
   12   18    6     -0.99      0.00 
   14   18    6     -4.89      0.00 
   16   18    6     -6.71      0.00 
   18   18    6      1.26      0.00 
    1   19    6     17.40      0.00 
    3   19    6     20.69      0.00 
    5   19    6     22.60      0.00 
    7   19    6      1.96      0.00 
    9   19    6     17.35      0.00 
   11   19    6     -1.38      0.00 
   13   19    6      9.95      0.00 
   15   19    6      2.24      0.00 
   17   19    6      0.23      0.00 
   19   19    6    -14.38      0.00 
    0   20    6     35.84      0.00 
    2   20    6     32.85      0.00 
    4   20    6     31.79      0.00 
    6   20    6      2.60      0.00 
    8   20    6     10.87      0.00 
   10   20    6      5.84      0.00 
   12   20    6     11.91      0.00 
   14   20    6     -6.29      0.00 
   16   20    6      1.65      0.00 
   18   20    6    -16.68      0.00 
    1   21    6     37.54      0.00 
    3   21    6     28.53      0.00 
    5   21    6     18.25      0.00 
    7   21    6     -5.86      0.00 
    9   21    6     22.98      0.00 
   11   21    6    -17.34      0.00 
   13   21    6      2.36      0.00 
   15   21    6     -6.76      0.00 
   17   21    6     11.94      0.00 
    0   22    6     15.61      0.00 
    2   22    6     30.07      0.00 
    4   22    6     24.43      0.00 
    6   22    6     -8.98      0.00 
    8   22    6     -1.21      0.00 
   10   22    6     -8.61      0.00 
   12   22    6      9.99      0.00 
   14   22    6      2.63      0.00 
   16   22    6      9.83      0.00 
   18   22    6      1.17      0.00 
    1   23    6     -2.16      0.00 
    3   23    6      8.26      0.00 
    5   23    6      9.73      0.00 
    7   23    6     -5.52      0.00 
    9   23    6     -0.61      0.00 
   11   23    6    -10.26      0.00 
   13   23    6     -4.44      0.00 
   15   23    6    -16.72      0.00 
   17   23    6     -2.30      0.00 
    0   24    6    -12.62      0.00 
    2   24    6     -6.36      0.00 
    4   24    6     17.09      0.00 
    6   24    6    -20.96      0.00 
    8   24    6      3.67      0.00 
   10   24    6     12.90      0.00 
   12   24    6      3.00      0.00 
   14   24    6    -15.59      0.00 
   16   24    6    -11.86      0.00 
    1   25    6    -15.56      0.00 
    3   25    6     -6.79      0.00 
    5   25    6     -0.77      0.00 
    7   25    6    -21.30      0.00 
    9   25    6     -0.77      0.00 
   11   25    6     -4.89      0.00 
   13   25    6     -4.31      0.00 
   15   25    6     -2.25      0.00 
   17   25    6     -2.46      0.00 
    0   26    6      3.47      0.00 
    2   26    6     -7.53      0.00 
    4   26    6      6.01      0.00 
    6   26    6    -13.01      0.00 
    8   26    6     10.35      0.00 
   10   26    6      4.58      0.00 
   12   26    6     -2.68      0.00 
   14   26    6      0.62      0.00 
   16   26    6     -2.26      0.00 
    1   27    6     -4.95      0.00 
    3   27    6      8.60      0.00 
    5   27    6     -1.30      0.00 
    7   27    6    -11.40      0.00 
    9   27    6     14.59      0.00 
   11   27    6     -3.21      0.00 
   13   27    6     11.30      0.00 
   15   27    6     -1.53      0.00 
    0   28    6      1.15      0.00 
    2   28    6     10.02      0.00 
    4   28    6      3.16      0.00 
    6   28    6     -7.82      0.00 
    8   28    6      6.70      0.00 
   10   28    6      3.13      0.00 
   12   28    6     26.08      0.00 
   14   28    6    -20.65      0.00 
    1   29    6     -4.05      0.00 
    3   29    6      9.48      0.00 
    5   29    6      5.49      0.00 
    7   29    6      6.95      0.00 
    9   29    6     11.84      0.00 
   11   29    6    -12.04      0.00 
   13   29    6     10.87      0.00 
    0   30    6      5.20      0.00 
    2   30    6     14.10      0.00 
    4   30    6      7.00      0.00 
    6   30    6     -0.08      0.00 
    8   30    6     -3.86      0.00 
   10   30    6      8.83      0.00 
   12   30    6      0.08      0.00 
   14   30    6    -12.89      0.00 
    1   31    6      2.34      0.00 
    3   31    6      1.61      0.00 
    5   31    6      6.84      0.00 
    7   31    6     -0.12      0.00 
    9   31    6      7.77      0.00 
   11   31    6     -3.23      0.00 
   13   31    6     14.94      0.00 
    0   32    6      5.99      0.00 
    2   32    6     16.03      0.00 
    4   32    6      4.83      0.00 
    6   32    6      6.80      0.00 
    8   32    6     -3.08      0.00 
   10   32    6      3.04      0.00 
   12   32    6     21.43      0.00 
    1   33    6      7.26      0.00 
    3   33    6      7.14      0.00 
    5   33    6     16.17      0.00 
    7   33    6     -2.22      0.00 
    9   33    6     11.50      0.00 
   11   33    6     -5.00      0.00 
    0   34    6      2.59      0.00 
    2   34    6      8.52      0.00 
    4   34    6      5.80      0.00 
    6   34    6    -11.34      0.00 
    8   34    6    -20.38      0.00 
   10   34    6     12.05      0.00 
    1   35    6      6.68      0.00 
    3   35    6     -1.99      0.00 
    5   35    6      7.96      0.00 
    7   35    6      2.90      0.00 
    9   35    6    -24.16      0.00 
    0   36    6      0.94      0.00 
    2   36    6     -7.97      0.00 
    4   36    6     -9.21      0.00 
    6   36    6     -3.04      0.00 
    8   36    6    -10.12      0.00 
    1   37    6     -7.26      0.00 
    3   37    6      8.60      0.00 
    5   37    6      0.72      0.00 
    7   37    6     -4.15      0.00 
    0   38    6    -20.73      0.00 
    2   38    6     -6.77      0.00 
    4   38    6     -8.46      0.00 
    1   39    6     -4.26      0.00 
    2    1    7    -45.12      0.00 
    4    1    7     51.41      0.00 
    6    1    7    -21.53      0.00 
    8    1    7     15.32      0.00 
   10    1    7     22.25      0.00 
   12    1    7     13.38      0.00 
   14    1    7      3.55      0.00 
   16    1    7      4.04      0.00 
   18    1    7     11.75      0.00 
   20    1    7     -2.63      0.00 
   22    1    7      5.45      0.00 
    1    2    7     54.93      0.00 
    3    2    7    -22.83      0.00 
    5    2    7    -30.79      0.00 
    7    2    7     35.22      0.00 
    9    2    7     24.52      0.00 
   11    2    7     10.96      0.00 
   13    2    7     25.68      0.00 
   15    2    7     14.77      0.00 
   17    2    7     -1.08      0.00 
   19    2    7     -6.56      0.00 
   21    2    7    -30.20      0.00 
    2    3    7    -21.04      0.00 
    4    3    7     63.97      0.00 
    6    3    7      7.13      0.00 
    8    3    7     10.76      0.00 
   10    3    7     23.20      0.00 
   12    3    7     18.07      0.00 
   14    3    7      9.72      0.00 
   16    3    7     -7.06      0.00 
   18    3    7     -1.05      0.00 
   20    3    7    -12.11      0.00 
    1    4    7     71.67      0.00 
    3    4    7    -61.35      0.00 
    5    4    7     47.11      0.00 
    7    4    7     17.59      0.00 
    9    4    7     36.59      0.00 
   11    4    7      4.15      0.00 
   13    4    7      9.40      0.00 
   15    4    7     -4.82      0.00 
   17    4    7     -0.95      0.00 
   19    4    7     10.42      0.00 
   21    4    7      1.00      0.00 
    2    5    7     18.84      0.00 
    4    5    7     -1.13      0.00 
    6    5    7      9.40      0.00 
    8    5    7      9.61      0.00 
   10    5    7      0.04      0.00 
   12    5    7     -9.74      0.00 
   14    5    7     -1.99      0.00 
   16    5    7      0.54      0.00 
   18    5    7      3.31      0.00 
   20    5    7    -28.75      0.00 
    1    6    7    -28.39      0.00 
    3    6    7    -17.56      0.00 
    5    6    7     17.31      0.00 
    7    6    7    -32.03      0.00 
    9    6    7     11.49      0.00 
   11    6    7    -11.22      0.00 
   13    6    7      9.56      0.00 
   15    6    7     -8.06      0.00 
   17    6    7    -13.10      0.00 
   19    6    7    -13.58      0.00 
   21    6    7      1.81      0.00 
    2    7    7    -20.25      0.00 
    4    7    7    -41.60      0.00 
    6    7    7     -0.33      0.00 
    8    7    7    -35.06      0.00 
   10    7    7    -23.91      0.00 
   12    7    7    -18.56      0.00 
   14    7    7     -0.48      0.00 
   16    7    7      0.34      0.00 
   18    7    7     15.45      0.00 
   20    7    7    -10.32      0.00 
    1    8    7    -19.88      0.00 
    3    8    7    -80.78      0.00 
    5    8    7    -33.89      0.00 
    7    8    7    -42.69      0.00 
    9    8    7     11.12      0.00 
   11    8    7    -27.74      0.00 
   13    8    7     18.59      0.00 
   15    8    7     -2.00      0.00 
   17    8    7      1.57      0.00 
   19    8    7     -7.01      0.00 
   21    8    7      1.96      0.00 
    2    9    7    -11.28      0.00 
    4    9    7    -53.84      0.00 
    6    9    7     -8.24      0.00 
    8    9    7    -35.37      0.00 
   10    9    7     13.52      0.00 
   12    9    7     -1.23      0.00 
   14    9    7     10.88      0.00 
   16    9    7     -8.88      0.00 
   18    9    7      6.04      0.00 
   20    9    7    -17.22      0.00 
    1   10    7     -8.00      0.00 
    3   10    7    -33.31      0.00 
    5   10    7      3.52      0.00 
    7   10    7     -5.32      0.00 
    9   10    7     33.22      0.00 
   11   10    7    -15.32      0.00 
   13   10    7     14.55      0.00 
   15   10    7      1.89      0.00 
   17   10    7      5.32      0.00 
   19   10    7     -0.91      0.00 
   21   10    7     -4.78      0.00 
    2   11    7     -7.28      0.00 
    4   11    7     -7.35      0.00 
    6   11    7     34.25      0.00 
    8   11    7      0.17      0.00 
   10   11    7     10.60      0.00 
   12   11    7      7.36      0.00 
   14   11    7      8.41      0.00 
   16   11    7    -13.51      0.00 
   18   11    7     13.21      0.00 
   20   11    7      3.12      0.00 
    1   12    7     -7.27      0.00 
    3   12    7     -8.21      0.00 
    5   12    7      6.07      0.00 
    7   12    7     10.73      0.00 
    9   12    7     29.24      0.00 
   11   12    7     -5.54      0.00 
   13   12    7     10.98      0.00 
   15   12    7     -2.96      0.00 
   17   12    7      4.03      0.00 
   19   12    7    -10.22      0.00 
    2   13    7    -16.89      0.00 
    4   13    7     -5.19      0.00 
    6   13    7     24.84      0.00 
    8   13    7     -6.06      0.00 
   10   13    7     22.71      0.00 
   12   13    7      0.45      0.00 
   14   13    7     15.90      0.00 
   16   13    7    -14.07      0.00 
   18   13    7     10.29      0.00 
   20   13    7      4.58      0.00 
    1   14    7      2.25      0.00 
    3   14    7    -21.57      0.00 
    5   14    7     18.86      0.00 
    7   14    7    -14.64      0.00 
    9   14    7     25.51      0.00 
   11   14    7      1.13      0.00 
   13   14    7      5.18      0.00 
   15   14    7     -6.01      0.00 
   17   14    7      2.27      0.00 
   19   14    7    -16.98      0.00 
    2   15    7    -26.66      0.00 
    4   15    7    -16.88      0.00 
    6   15    7      9.49      0.00 
    8   15    7     -2.27      0.00 
   10   15    7      5.65      0.00 
   12   15    7     -8.18      0.00 
   14   15    7      3.85      0.00 
   16   15    7    -20.27      0.00 
   18   15    7     -9.41      0.00 
   20   15    7    -13.02      0.00 
    1   16    7      9.25      0.00 
    3   16    7    -40.52      0.00 
    5   16    7     11.09      0.00 
    7   16    7     -2.62      0.00 
    9   16    7     18.57      0.00 
   11   16    7     -3.46      0.00 
   13   16    7      6.49      0.00 
   15   16    7     -6.86      0.00 
   17   16    7     10.87      0.00 
   19   16    7      1.94      0.00 
    2   17    7    -29.75      0.00 
    4   17    7    -11.06      0.00 
    6   17    7     -8.43      0.00 
    8   17    7     -5.73      0.00 
   10   17    7     -5.33      0.00 
   12   17    7      2.62      0.00 
   14   17    7      1.35      0.00 
   16   17    7      2.26      0.00 
   18   17    7     -1.93      0.00 
    1   18    7     -1.91      0.00 
    3   18    7    -23.96      0.00 
    5   18    7     -0.84      0.00 
    7   18    7    -14.85      0.00 
    9   18    7      2.86      0.00 
   11   18    7     -3.80      0.00 
   13   18    7      7.14      0.00 
   15   18    7     -2.48      0.00 
   17   18    7     11.43      0.00 
   19   18    7    -11.14      0.00 
    2   19    7    -20.49      0.00 
    4   19    7    -10.34      0.00 
    6   19    7    -10.63      0.00 
    8   19    7     -2.09      0.00 
   10   19    7    -11.63      0.00 
   12   19    7     -0.48      0.00 
   14   19    7      2.24      0.00 
   16   19    7     -5.20      0.00 
   18   19    7     27.70      0.00 
    1   20    7    -17.05      0.00 
    3   20    7    -25.78      0.00 
    5   20    7     -9.43      0.00 
    7   20    7    -10.26      0.00 
    9   20    7     -1.74      0.00 
   11   20    7    -14.90      0.00 
   13   20    7      6.44      0.00 
   15   20    7     -1.96      0.00 
   17   20    7     17.13      0.00 
    2   21    7    -29.32      0.00 
    4   21    7    -10.48      0.00 
    6   21    7     -7.69      0.00 
    8   21    7    -14.59      0.00 
   10   21    7     -0.20      0.00 
   12   21    7      5.28      0.00 
   14   21    7     10.50      0.00 
   16   21    7     -5.48      0.00 
   18   21    7    -14.62      0.00 
    1   22    7      3.69      0.00 
    3   22    7      6.81      0.00 
    5   22    7     -9.58      0.00 
    7   22    7      9.28      0.00 
    9   22    7      6.13      0.00 
   11   22    7      4.20      0.00 
   13   22    7      9.56      0.00 
   15   22    7     12.55      0.00 
   17   22    7      7.80      0.00 
    2   23    7    -12.38      0.00 
    4   23    7      7.93      0.00 
    6   23    7     17.13      0.00 
    8   23    7     12.19      0.00 
   10   23    7      7.96      0.00 
   12   23    7      9.81      0.00 
   14   23    7    -13.94      0.00 
   16   23    7      4.05      0.00 
    1   24    7      3.75      0.00 
    3   24    7     -4.80      0.00 
    5   24    7      9.05      0.00 
    7   24    7     16.71      0.00 
    9   24    7      9.18      0.00 
   11   24    7     22.67      0.00 
   13   24    7     -2.62      0.00 
   15   24    7     -7.64      0.00 
   17   24    7      5.61      0.00 
    2   25    7    -15.47      0.00 
    4   25    7     -8.08      0.00 
    6   25    7      1.71      0.00 
    8   25    7      9.13      0.00 
   10   25    7    -13.85      0.00 
   12   25    7      6.27      0.00 
   14   25    7      1.80      0.00 
   16   25    7     13.21      0.00 
    1   26    7     -9.94      0.00 
    3   26    7     -5.79      0.00 
    5   26    7     -6.30      0.00 
    7   26    7     -7.15      0.00 
    9   26    7      0.99      0.00 
   11   26    7     -0.37      0.00 
   13   26    7     -0.07      0.00 
   15   26    7     -8.70      0.00 
    2   27    7     -0.77      0.00 
    4   27    7     -1.27      0.00 
    6   27    7     -0.92      0.00 
    8   27    7      3.93      0.00 
   10   27    7    -12.40      0.00 
   12   27    7      0.30      0.00 
   14   27    7    -20.70      0.00 
    1   28    7     -7.93      0.00 
    3   28    7      0.37      0.00 
    5   28    7     -7.66      0.00 
    7   28    7     -1.93      0.00 
    9   28    7     -9.08      0.00 
   11   28    7     -3.99      0.00 
   13   28    7     14.93      0.00 
   15   28    7     -7.24      0.00 
    2   29    7     -4.73      0.00 
    4   29    7    -12.32      0.00 
    6   29    7    -12.51      0.00 
    8   29    7      0.82      0.00 
   10   29    7    -15.08      0.00 
   12   29    7      4.40      0.00 
   14   29    7    -23.04      0.00 
    1   30    7    -13.40      0.00 
    3   30    7     -7.79      0.00 
    5   30    7    -15.53      0.00 
    7   30    7      6.92      0.00 
    9   30    7    -17.20      0.00 
   11   30    7      7.51      0.00 
   13   30    7      7.65      0.00 
    2   31    7     -1.62      0.00 
    4   31    7     -0.88      0.00 
    6   31    7      3.90      0.00 
    8   31    7     10.21      0.00 
   10   31    7    -11.76      0.00 
   12   31    7      2.45      0.00 
    1   32    7    -15.99      0.00 
    3   32    7     10.68      0.00 
    5   32    7     -4.01      0.00 
    7   32    7      9.92      0.00 
    9   32    7     -0.38      0.00 
   11   32    7      4.07      0.00 
    2   33    7     -7.97      0.00 
    4   33    7     -3.06      0.00 
    6   33    7     -4.03      0.00 
    8   33    7     20.03      0.00 
   10   33    7     -5.18      0.00 
    1   34    7     -7.44      0.00 
    3   34    7      3.65      0.00 
    5   34    7      5.59      0.00 
    7   34    7      3.48      0.00 
    9   34    7     -7.12      0.00 
    2   35    7     -7.48      0.00 
    4   35    7      3.83      0.00 
    6   35    7    -11.79      0.00 
    8   35    7      5.55      0.00 
    1   36    7     -3.38      0.00 
    3   36    7     -2.73      0.00 
    5   36    7     -6.55      0.00 
    7   36    7      9.72      0.00 
    2   37    7     -1.68      0.00 
    4   37    7     -0.03      0.00 
    6   37    7    -10.48      0.00 
    1   38    7     -5.85      0.00 
    3   38    7     -6.62      0.00 
    5   38    7      4.00      0.00 
    0    0    8    -40.65      0.00 
    2    0    8   -118.90      0.00 
    4    0    8     49.56      0.00 
    6    0    8     -6.87      0.00 
    8    0    8    -40.95      0.00 
   10    0    8     25.30      0.00 
   12    0    8    -19.81      0.00 
   14    0    8      2.61      0.00 
   16    0    8     -1.85      0.00 
   18    0    8      7.74      0.00 
   20    0    8     -5.79      0.00 
    1    1    8     12.36      0.00 
    3    1    8    -87.45      0.00 
    5    1    8    -12.76      0.00 
    7    1    8     16.40      0.00 
    9    1    8    -16.79      0.00 
   11    1    8      5.57      0.00 
   13    1    8    -10.21      0.00 
   15    1    8     10.10      0.00 
   17    1    8    -19.11      0.00 
   19    1    8      7.50      0.00 
   21    1    8    -11.87      0.00 
    0    2    8   -149.19      0.00 
    2    2    8     29.59      0.00 
    4    2    8    -30.74      0.00 
    6    2    8     12.42      0.00 
    8    2    8    -46.15      0.00 
   10    2    8     22.98      0.00 
   12    2    8    -11.71      0.00 
   14    2    8     10.67      0.00 
   16    2    8     -6.07      0.00 
   18    2    8     -3.73      0.00 
   20    2    8     -6.55      0.00 
    1    3    8    -21.78      0.00 
    3    3    8     -4.43      0.00 
    5    3    8     16.00      0.00 
    7    3    8     11.46      0.00 
    9    3    8    -13.20      0.00 
   11    3    8     -2.47      0.00 
   13    3    8    -15.98      0.00 
   15    3    8      8.68      0.00 
   17    3    8      4.20      0.00 
   19    3    8      3.99      0.00 
   21    3    8    -13.84      0.00 
    0    4    8    -79.48      0.00 
    2    4    8     60.27      0.00 
    4    4    8    -22.10      0.00 
    6    4    8     28.33      0.00 
    8    4    8    -11.02      0.00 
   10    4    8     22.22      0.00 
   12    4    8     -9.88      0.00 
   14    4    8     -2.82      0.00 
   16    4    8     -7.05      0.00 
   18    4    8      2.64      0.00 
   20    4    8    -12.90      0.00 
    1    5    8     61.48      0.00 
    3    5    8    -13.09      0.00 
    5    5    8     16.90      0.00 
    7    5    8      2.24      0.00 
    9    5    8      3.32      0.00 
   11    5    8     -9.54      0.00 
   13    5    8      7.53      0.00 
   15    5    8      6.34      0.00 
   17    5    8     -1.07      0.00 
   19    5    8      4.16      0.00 
   21    5    8    -10.24      0.00 
    0    6    8    -25.05      0.00 
    2    6    8     91.40      0.00 
    4    6    8     12.39      0.00 
    6    6    8     29.52      0.00 
    8    6    8    -24.79      0.00 
   10    6    8     13.63      0.00 
   12    6    8     -1.05      0.00 
   14    6    8     -3.17      0.00 
   16    6    8     -5.44      0.00 
   18    6    8      4.26      0.00 
   20    6    8      6.64      0.00 
    1    7    8      0.38      0.00 
    3    7    8     -1.17      0.00 
    5    7    8      9.29      0.00 
    7    7    8     -1.79      0.00 
    9    7    8      3.14      0.00 
   11    7    8      2.17      0.00 
   13    7    8      3.10      0.00 
   15    7    8     10.84      0.00 
   17    7    8    -11.53      0.00 
   19    7    8     14.37      0.00 
   21    7    8      6.16      0.00 
    0    8    8    -11.14      0.00 
    2    8    8     17.31      0.00 
    4    8    8     -3.74      0.00 
    6    8    8     15.29      0.00 
    8    8    8     -9.39      0.00 
   10    8    8      9.63      0.00 
   12    8    8      0.11      0.00 
   14    8    8      3.79      0.00 
   16    8    8      3.03      0.00 
   18    8    8     11.38      0.00 
   20    8    8    -22.28      0.00 
    1    9    8     28.57      0.00 
    3    9    8     10.90      0.00 
    5    9    8      8.34      0.00 
    7    9    8     -6.32      0.00 
    9    9    8      4.56      0.00 
   11    9    8    -12.55      0.00 
   13    9    8     -0.91      0.00 
   15    9    8      8.77      0.00 
   17    9    8      0.30      0.00 
   19    9    8      1.60      0.00 
   21    9    8      1.65      0.00 
    0   10    8    -76.52      0.00 
    2   10    8    -39.23      0.00 
    4   10    8     -5.07      0.00 
    6   10    8    -39.98      0.00 
    8   10    8    -14.47      0.00 
   10   10    8    -13.63      0.00 
   12   10    8      1.51      0.00 
   14   10    8     -1.76      0.00 
   16   10    8     -4.81      0.00 
   18   10    8      3.83      0.00 
   20   10    8    -13.44      0.00 
    1   11    8    -60.36      0.00 
    3   11    8    -29.99      0.00 
    5   11    8    -12.22      0.00 
    7   11    8     -7.17      0.00 
    9   11    8     -4.95      0.00 
   11   11    8     -1.98      0.00 
   13   11    8      0.01      0.00 
   15   11    8     -7.92      0.00 
   17   11    8     -8.54      0.00 
   19   11    8     -5.68      0.00 
    0   12    8    -36.36      0.00 
    2   12    8      5.87      0.00 
    4   12    8     -8.52      0.00 
    6   12    8     -8.22      0.00 
    8   12    8     -2.03      0.00 
   10   12    8    -10.32      0.00 
   12   12    8     -4.58      0.00 
   14   12    8     -9.31      0.00 
   16   12    8    -10.46      0.00 
   18   12    8     13.73      0.00 
   20   12    8     -3.35      0.00 
    1   13    8     -2.80      0.00 
    3   13    8      3.75      0.00 
    5   13    8    -17.88      0.00 
    7   13    8    -12.91      0.00 
    9   13    8     -5.98      0.00 
   11   13    8    -14.21      0.00 
   13   13    8     -8.44      0.00 
   15   13    8      3.13      0.00 
   17   13    8      2.91      0.00 
   19   13    8     -7.29      0.00 
    0   14    8    -15.42      0.00 
    2   14    8     16.41      0.00 
    4   14    8     -2.88      0.00 
    6   14    8     -2.21      0.00 
    8   14    8    -16.53      0.00 
   10   14    8    -14.86      0.00 
   12   14    8      8.84      0.00 
   14   14    8     -8.43      0.00 
   16   14    8     -1.02      0.00 
   18   14    8      9.02      0.00 
   20   14    8      6.25      0.00 
    1   15    8     16.28      0.00 
    3   15    8     32.63      0.00 
    5   15    8     15.48      0.00 
    7   15    8     -0.29      0.00 
    9   15    8     15.42      0.00 
   11   15    8    -11.89      0.00 
   13   15    8     10.38      0.00 
   15   15    8     -0.50      0.00 
   17   15    8     -7.68      0.00 
   19   15    8      6.09      0.00 
    0   16    8     37.64      0.00 
    2   16    8      5.83      0.00 
    4   16    8     19.25      0.00 
    6   16    8      0.00      0.00 
    8   16    8     17.78      0.00 
   10   16    8      0.56      0.00 
   12   16    8     13.30      0.00 
   14   16    8      9.23      0.00 
   16   16    8      6.59      0.00 
   18   16    8     -2.54      0.00 
    1   17    8     17.21      0.00 
    3   17    8      2.97      0.00 
    5   17    8     12.87      0.00 
    7   17    8     -9.05      0.00 
    9   17    8     10.16      0.00 
   11   17    8    -12.67      0.00 
   13   17    8     11.06      0.00 
   15   17    8     -2.57      0.00 
   17   17    8     18.32      0.00 
   19   17    8     11.80      0.00 
    0   18    8     14.74      0.00 
    2   18    8      3.11      0.00 
    4   18    8     11.72      0.00 
    6   18    8     -8.84      0.00 
    8   18    8      4.36      0.00 
   10   18    8    -14.64      0.00 
   12   18    8      5.69      0.00 
   14   18    8      1.76      0.00 
   16   18    8     -3.27      0.00 
   18   18    8      3.72      0.00 
    1   19    8     -4.07      0.00 
    3   19    8    -17.76      0.00 
    5   19    8     -8.91      0.00 
    7   19    8    -12.31      0.00 
    9   19    8     -4.17      0.00 
   11   19    8    -14.95      0.00 
   13   19    8      5.41      0.00 
   15   19    8     -7.32      0.00 
   17   19    8      8.03      0.00 
   19   19    8      9.95      0.00 
    0   20    8    -19.32      0.00 
    2   20    8    -20.03      0.00 
    4   20    8     -7.39      0.00 
    6   20    8     -1.27      0.00 
    8   20    8     -0.57      0.00 
   10   20    8    -11.70      0.00 
   12   20    8     16.20      0.00 
   14   20    8     -6.74      0.00 
   16   20    8      8.49      0.00 
   18   20    8      3.73      0.00 
    1   21    8      1.14      0.00 
    3   21    8    -20.67      0.00 
    5   21    8    -18.87      0.00 
    7   21    8    -18.78      0.00 
    9   21    8      6.61      0.00 
   11   21    8    -18.79      0.00 
   13   21    8      5.54      0.00 
   15   21    8     -0.61      0.00 
   17   21    8     17.04      0.00 
    0   22    8      3.84      0.00 
    2   22    8     -1.95      0.00 
    4   22    8     -6.44      0.00 
    6   22    8      0.82      0.00 
    8   22    8      0.72      0.00 
   10   22    8    -20.98      0.00 
   12   22    8     12.75      0.00 
   14   22    8     -9.58      0.00 
   16   22    8     -6.28      0.00 
   18   22    8     -3.57      0.00 
    1   23    8      5.05      0.00 
    3   23    8    -14.22      0.00 
    5   23    8     -2.25      0.00 
    7   23    8     10.98      0.00 
    9   23    8      0.47      0.00 
   11   23    8    -11.45      0.00 
   13   23    8     13.36      0.00 
   15   23    8     13.41      0.00 
   17   23    8     18.87      0.00 
    0   24    8     23.80      0.00 
    2   24    8     -4.61      0.00 
    4   24    8     11.19      0.00 
    6   24    8     -6.61      0.00 
    8   24    8     11.39      0.00 
   10   24    8      4.02      0.00 
   12   24    8     20.52      0.00 
   14   24    8      4.96      0.00 
   16   24    8      6.44      0.00 
    1   25    8     12.32      0.00 
    3   25    8     -2.17      0.00 
    5   25    8      9.04      0.00 
    7   25    8      2.35      0.00 
    9   25    8     -0.64      0.00 
   11   25    8    -12.12      0.00 
   13   25    8     10.78      0.00 
   15   25    8      4.79      0.00 
    0   26    8     30.98      0.00 
    2   26    8     -6.98      0.00 
    4   26    8      7.81      0.00 
    6   26    8     -5.19      0.00 
    8   26    8      9.75      0.00 
   10   26    8     -7.97      0.00 
   12   26    8     -1.72      0.00 
   14   26    8    -14.60      0.00 
   16   26    8      7.15      0.00 
    1   27    8      8.08      0.00 
    3   27    8     -5.37      0.00 
    5   27    8     -0.44      0.00 
    7   27    8    -10.17      0.00 
    9   27    8    -23.68      0.00 
   11   27    8    -16.65      0.00 
   13   27    8     12.92      0.00 
   15   27    8     -1.38      0.00 
    0   28    8     -7.60      0.00 
    2   28    8    -12.31      0.00 
    4   28    8     -1.61      0.00 
    6   28    8     -3.76      0.00 
    8   28    8     -0.11      0.00 
   10   28    8      6.05      0.00 
   12   28    8     15.26      0.00 
   14   28    8    -26.48      0.00 
    1   29    8     -8.05      0.00 
    3   29    8     -7.50      0.00 
    5   29    8      2.59      0.00 
    7   29    8     15.08      0.00 
    9   29    8      1.38      0.00 
   11   29    8    -17.13      0.00 
   13   29    8    -18.51      0.00 
    0   30    8      9.20      0.00 
    2   30    8      1.34      0.00 
    4   30    8     -3.45      0.00 
    6   30    8     -3.87      0.00 
    8   30    8      6.21      0.00 
   10   30    8      1.70      0.00 
   12   30    8     -1.97      0.00 
    1   31    8      8.27      0.00 
    3   31    8     -5.43      0.00 
    5   31    8     -2.88      0.00 
    7   31    8    -19.36      0.00 
    9   31    8    -26.03      0.00 
   11   31    8     -7.94      0.00 
   13   31    8      0.02      0.00 
    0   32    8     -1.27      0.00 
    2   32    8      1.90      0.00 
    4   32    8     -8.30      0.00 
    6   32    8      1.56      0.00 
    8   32    8     18.32      0.00 
   10   32    8     -6.62      0.00 
   12   32    8     10.49      0.00 
    1   33    8    -10.98      0.00 
    3   33    8     -4.69      0.00 
    5   33    8      2.69      0.00 
    7   33    8     -2.36      0.00 
    9   33    8      1.85      0.00 
   11   33    8      4.69      0.00 
    0   34    8    -23.22      0.00 
    2   34    8      0.91      0.00 
    4   34    8     -2.92      0.00 
    6   34    8     -0.05      0.00 
    8   34    8      8.35      0.00 
   10   34    8      2.71      0.00 
    1   35    8      7.71      0.00 
    3   35    8     -4.46      0.00 
    5   35    8      5.15      0.00 
    7   35    8     14.41      0.00 
    9   35    8     -6.88      0.00 
    0   36    8     -4.41      0.00 
    2   36    8     12.04      0.00 
    4   36    8     -6.44      0.00 
    6   36    8      4.05      0.00 
    8   36    8      7.95      0.00 
    1   37    8      6.59      0.00 
    3   37    8     -0.18      0.00 
    5   37    8     -1.78      0.00 
    0   38    8     -9.83      0.00 
    2   38    8     11.03      0.00 
    4   38    8     -0.51      0.00 
    2    1    9    -33.41      0.00 
    4    1    9     26.85      0.00 
    6    1    9    -20.28      0.00 
    8    1    9      0.53      0.00 
   10    1    9    -10.97      0.00 
   12    1    9     -7.95      0.00 
   14    1    9     -8.14      0.00 
   16    1    9      1.67      0.00 
   18    1    9      5.75      0.00 
   20    1    9     -6.79      0.00 
    1    2    9     -9.99      0.00 
    3    2    9     19.00      0.00 
    5    2    9    -16.27      0.00 
    7    2    9      2.49      0.00 
    9    2    9    -22.53      0.00 
   11    2    9    -24.18      0.00 
   13    2    9     -9.77      0.00 
   15    2    9     -6.02      0.00 
   17    2    9     -1.51      0.00 
   19    2    9      2.20      0.00 
   21    2    9      6.61      0.00 
    2    3    9    -22.89      0.00 
    4    3    9      3.11      0.00 
    6    3    9    -19.04      0.00 
    8    3    9    -18.03      0.00 
   10    3    9    -26.53      0.00 
   12    3    9     -6.12      0.00 
   14    3    9     -8.07      0.00 
   16    3    9    -12.08      0.00 
   18    3    9     -0.99      0.00 
   20    3    9      2.88      0.00 
    1    4    9     21.05      0.00 
    3    4    9    -45.92      0.00 
    5    4    9      8.32      0.00 
    7    4    9    -42.74      0.00 
    9    4    9     -8.54      0.00 
   11    4    9    -10.89      0.00 
   13    4    9     -6.85      0.00 
   15    4    9      5.44      0.00 
   17    4    9      8.87      0.00 
   19    4    9      1.82      0.00 
   21    4    9      3.93      0.00 
    2    5    9     -6.24      0.00 
    4    5    9    -28.25      0.00 
    6    5    9    -14.44      0.00 
    8    5    9      0.06      0.00 
   10    5    9      0.93      0.00 
   12    5    9      5.05      0.00 
   14    5    9      7.38      0.00 
   16    5    9      2.51      0.00 
   18    5    9      7.36      0.00 
   20    5    9     13.31      0.00 
    1    6    9     23.89      0.00 
    3    6    9     13.31      0.00 
    5    6    9     12.37      0.00 
    7    6    9    -20.69      0.00 
    9    6    9     21.97      0.00 
   11    6    9     10.30      0.00 
   13    6    9     17.16      0.00 
   15    6    9     10.28      0.00 
   17    6    9      9.87      0.00 
   19    6    9      5.71      0.00 
   21    6    9     -3.99      0.00 
    2    7    9     14.23      0.00 
    4    7    9     39.40      0.00 
    6    7    9     25.62      0.00 
    8    7    9      5.67      0.00 
   10    7    9      6.54      0.00 
   12    7    9      4.52      0.00 
   14    7    9     -2.19      0.00 
   16    7    9    -14.46      0.00 
   18    7    9      2.41      0.00 
   20    7    9     -0.55      0.00 
    1    8    9     45.39      0.00 
    3    8    9      8.67      0.00 
    5    8    9     40.73      0.00 
    7    8    9     16.04      0.00 
    9    8    9     25.45      0.00 
   11    8    9     -5.16      0.00 
   13    8    9      5.51      0.00 
   15    8    9     -8.87      0.00 
   17    8    9      1.41      0.00 
   19    8    9     13.32      0.00 
   21    8    9      2.59      0.00 
    2    9    9      7.64      0.00 
    4    9    9     21.22      0.00 
    6    9    9     16.14      0.00 
    8    9    9    -13.49      0.00 
   10    9    9      5.96      0.00 
   12    9    9    -12.01      0.00 
   14    9    9      3.57      0.00 
   16    9    9    -13.49      0.00 
   18    9    9      7.02      0.00 
   20    9    9    -21.14      0.00 
    1   10    9     17.78      0.00 
    3   10    9     17.90      0.00 
    5   10    9     21.50      0.00 
    7   10    9    -15.24      0.00 
    9   10    9     10.19      0.00 
   11   10    9    -17.79      0.00 
   13   10    9      0.59      0.00 
   15   10    9     -9.56      0.00 
   17   10    9     -1.11      0.00 
   19   10    9      4.28      0.00 
    2   11    9      2.88      0.00 
    4   11    9     14.15      0.00 
    6   11    9     -0.16      0.00 
    8   11    9    -24.35      0.00 
   10   11    9     -9.12      0.00 
   12   11    9     -5.33      0.00 
   14   11    9      5.95      0.00 
   16   11    9     -6.97      0.00 
   18   11    9      5.50      0.00 
   20   11    9    -22.38      0.00 
    1   12    9     -1.73      0.00 
    3   12    9    -15.42      0.00 
    5   12    9    -22.49      0.00 
    7   12    9    -27.09      0.00 
    9   12    9     -3.73      0.00 
   11   12    9    -14.21      0.00 
   13   12    9     14.77      0.00 
   15   12    9     -6.09      0.00 
   17   12    9     18.42      0.00 
   19   12    9    -15.62      0.00 
    2   13    9      7.58      0.00 
    4   13    9    -12.59      0.00 
    6   13    9     -6.58      0.00 
    8   13    9    -14.80      0.00 
   10   13    9      3.31      0.00 
   12   13    9     -5.38      0.00 
   14   13    9     12.33      0.00 
   16   13    9     -6.12      0.00 
   18   13    9      4.71      0.00 
   20   13    9     -2.71      0.00 
    1   14    9     30.14      0.00 
    3   14    9    -11.60      0.00 
    5   14    9     23.20      0.00 
    7   14    9    -20.40      0.00 
    9   14    9     13.35      0.00 
   11   14    9     -5.40      0.00 
   13   14    9      8.07      0.00 
   15   14    9    -10.73      0.00 
   17   14    9      9.27      0.00 
   19   14    9    -15.79      0.00 
    2   15    9     33.94      0.00 
    4   15    9     10.25      0.00 
    6   15    9     10.27      0.00 
    8   15    9    -10.25      0.00 
   10   15    9      2.97      0.00 
   12   15    9     -3.99      0.00 
   14   15    9      4.49      0.00 
   16   15    9      1.39      0.00 
   18   15    9     18.07      0.00 
   20   15    9     25.12      0.00 
    1   16    9     30.18      0.00 
    3   16    9    -20.83      0.00 
    5   16    9     13.86      0.00 
    7   16    9    -19.61      0.00 
    9   16    9      5.32      0.00 
   11   16    9    -15.88      0.00 
   13   16    9      6.17      0.00 
   15   16    9     -9.22      0.00 
   17   16    9     11.97      0.00 
   19   16    9      1.39      0.00 
    2   17    9      9.11      0.00 
    4   17    9     -4.47      0.00 
    6   17    9      2.41      0.00 
    8   17    9     -7.30      0.00 
   10   17    9     -0.40      0.00 
   12   17    9     -6.86      0.00 
   14   17    9     15.15      0.00 
   16   17    9      8.42      0.00 
   18   17    9    -16.43      0.00 
    1   18    9     18.12      0.00 
    3   18    9     14.27      0.00 
    5   18    9      3.83      0.00 
    7   18    9    -15.01      0.00 
    9   18    9      7.21      0.00 
   11   18    9     -2.52      0.00 
   13   18    9      8.03      0.00 
   15   18    9     -7.99      0.00 
   17   18    9      0.58      0.00 
   19   18    9    -10.44      0.00 
    2   19    9     15.25      0.00 
    4   19    9     24.45      0.00 
    6   19    9     12.52      0.00 
    8   19    9      7.60      0.00 
   10   19    9      9.77      0.00 
   12   19    9     -2.39      0.00 
   14   19    9     -2.54      0.00 
   16   19    9     -9.84      0.00 
   18   19    9     -1.64      0.00 
    1   20    9     11.31      0.00 
    3   20    9     28.90      0.00 
    5   20    9      6.44      0.00 
    7   20    9     11.49      0.00 
    9   20    9     10.38      0.00 
   11   20    9     -8.97      0.00 
   13   20    9      5.38      0.00 
   15   20    9    -13.38      0.00 
   17   20    9      2.94      0.00 
    2   21    9      0.10      0.00 
    4   21    9      7.47      0.00 
    6   21    9      8.26      0.00 
    8   21    9      2.55      0.00 
   10   21    9      4.82      0.00 
   12   21    9      0.45      0.00 
   14   21    9     -3.35      0.00 
   16   21    9      6.83      0.00 
   18   21    9      6.97      0.00 
    1   22    9      1.88      0.00 
    3   22    9     12.68      0.00 
    5   22    9    -14.34      0.00 
    7   22    9      4.45      0.00 
    9   22    9     -4.86      0.00 
   11   22    9     -9.97      0.00 
   13   22    9     -0.91      0.00 
   15   22    9     11.12      0.00 
   17   22    9      6.06      0.00 
    2   23    9     11.42      0.00 
    4   23    9      3.04      0.00 
    6   23    9     -1.32      0.00 
    8   23    9     -9.74      0.00 
   10   23    9     -4.58      0.00 
   12   23    9     -0.95      0.00 
   14   23    9    -14.80      0.00 
   16   23    9      4.64      0.00 
    1   24    9      5.06      0.00 
    3   24    9     -0.06      0.00 
    5   24    9     -6.66      0.00 
    7   24    9     -7.61      0.00 
    9   24    9    -17.99      0.00 
   11   24    9     -3.16      0.00 
   13   24    9     -1.77      0.00 
   15   24    9     -2.51      0.00 
   17   24    9     11.76      0.00 
    2   25    9     -1.44      0.00 
    4   25    9      1.65      0.00 
    6   25    9    -16.09      0.00 
    8   25    9     -7.94      0.00 
   10   25    9    -20.60      0.00 
   12   25    9      2.20      0.00 
   14   25    9     14.74      0.00 
   16   25    9     -4.18      0.00 
    1   26    9     -9.37      0.00 
    3   26    9     11.29      0.00 
    5   26    9    -10.74      0.00 
    7   26    9     -8.80      0.00 
    9   26    9      3.82      0.00 
   11   26    9     -0.09      0.00 
   13   26    9    -13.48      0.00 
   15   26    9    -14.71      0.00 
    2   27    9      4.24      0.00 
    4   27    9     17.19      0.00 
    6   27    9     -1.94      0.00 
    8   27    9      6.63      0.00 
   10   27    9    -11.43      0.00 
   12   27    9      2.87      0.00 
   14   27    9      1.60      0.00 
    1   28    9     -2.81      0.00 
    3   28    9     20.31      0.00 
    5   28    9      3.57      0.00 
    7   28    9     13.31      0.00 
    9   28    9     14.18      0.00 
   11   28    9      4.62      0.00 
   13   28    9      3.50      0.00 
    2   29    9      3.70      0.00 
    4   29    9     11.90      0.00 
    6   29    9    -11.26      0.00 
    8   29    9      8.68      0.00 
   10   29    9     -9.82      0.00 
   12   29    9      5.37      0.00 
   14   29    9     -1.66      0.00 
    1   30    9     -9.00      0.00 
    3   30    9      3.90      0.00 
    5   30    9     -1.18      0.00 
    7   30    9     10.16      0.00 
    9   30    9     -6.49      0.00 
   11   30    9     27.08      0.00 
   13   30    9    -14.80      0.00 
    2   31    9      8.14      0.00 
    4   31    9      6.60      0.00 
    6   31    9      0.35      0.00 
    8   31    9     -2.42      0.00 
   10   31    9     -8.52      0.00 
   12   31    9     -5.25      0.00 
    1   32    9     -0.82      0.00 
    3   32    9     14.96      0.00 
    5   32    9     -4.60      0.00 
    7   32    9      7.59      0.00 
    9   32    9      1.26      0.00 
   11   32    9      6.75      0.00 
    2   33    9      8.44      0.00 
    4   33    9      9.41      0.00 
    6   33    9      5.64      0.00 
    8   33    9    -14.14      0.00 
   10   33    9    -19.90      0.00 
    1   34    9      4.63      0.00 
    3   34    9      3.37      0.00 
    5   34    9    -12.88      0.00 
    7   34    9     -4.92      0.00 
    9   34    9     -3.67      0.00 
    2   35    9     -6.04      0.00 
    4   35    9     -2.97      0.00 
    6   35    9    -12.16      0.00 
    8   35    9      0.68      0.00 
    1   36    9      0.89      0.00 
    3   36    9      9.18      0.00 
    5   36    9     -5.94      0.00 
    7   36    9     16.46      0.00 
    2   37    9      2.69      0.00 
    4   37    9     13.69      0.00 
    6   37    9     -5.16      0.00 
    1   38    9     -3.82      0.00 
    3   38    9     10.60      0.00 
    0    0   10     38.80      0.00 
    2    0   10   -118.26      0.00 
    4    0   10     26.50      0.00 
    6    0   10     18.03      0.00 
    8    0   10      8.30      0.00 
   10    0   10      4.97      0.00 
   12    0   10     -0.04      0.00 
   14    0   10      5.62      0.00 
   16    0   10    -15.28      0.00 
   18    0   10      5.74      0.00 
   20    0   10    -14.86      0.00 
    1    1   10    -42.26      0.00 
    3    1   10     55.08      0.00 
    5    1   10    -26.05      0.00 
    7    1   10     19.75      0.00 
    9    1   10     14.04      0.00 
   11    1   10      6.25      0.00 
   13    1   10      0.49      0.00 
   15    1   10     11.24      0.00 
   17    1   10     -2.17      0.00 
   19    1   10     10.96      0.00 
   21    1   10     -4.46      0.00 
    0    2   10     49.25      0.00 
    2    2   10     19.26      0.00 
    4    2   10    -19.35      0.00 
    6    2   10     32.13      0.00 
    8    2   10      0.48      0.00 
   10    2   10     13.00      0.00 
   12    2   10      2.73      0.00 
   14    2   10     10.83      0.00 
   16    2   10    -14.41      0.00 
   18    2   10      4.32      0.00 
   20    2   10      3.18      0.00 
    1    3   10    -90.54      0.00 
    3    3   10     -3.44      0.00 
    5    3   10    -19.79      0.00 
    7    3   10      4.32      0.00 
    9    3   10     -8.04      0.00 
   11    3   10      6.30      0.00 
   13    3   10      1.12      0.00 
   15    3   10      1.85      0.00 
   17    3   10      2.07      0.00 
   19    3   10      3.40      0.00 
   21    3   10      5.03      0.00 
    0    4   10     -4.59      0.00 
    2    4   10     38.84      0.00 
    4    4   10     -6.62      0.00 
    6    4   10     28.05      0.00 
    8    4   10     13.43      0.00 
   10    4   10     14.77      0.00 
   12    4   10    -10.62      0.00 
   14    4   10    -10.62      0.00 
   16    4   10    -19.52      0.00 
   18    4   10      3.64      0.00 
   20    4   10      3.63      0.00 
    1    5   10      3.39      0.00 
    3    5   10    -43.02      0.00 
    5    5   10     16.13      0.00 
    7    5   10      0.94      0.00 
    9    5   10      4.52      0.00 
   11    5   10     -3.46      0.00 
   13    5   10      2.88      0.00 
   15    5   10     -2.01      0.00 
   17    5   10     -0.91      0.00 
   19    5   10    -22.11      0.00 
   21    5   10    -14.95      0.00 
    0    6   10    -84.36      0.00 
    2    6   10      3.81      0.00 
    4    6   10    -11.67      0.00 
    6    6   10      8.10      0.00 
    8    6   10    -10.26      0.00 
   10    6   10      1.43      0.00 
   12    6   10    -15.36      0.00 
   14    6   10     -1.34      0.00 
   16    6   10    -10.26      0.00 
   18    6   10     -6.44      0.00 
   20    6   10     21.05      0.00 
    1    7   10    -26.69      0.00 
    3    7   10     -3.53      0.00 
    5    7   10     15.86      0.00 
    7    7   10      5.87      0.00 
    9    7   10      9.85      0.00 
   11    7   10    -10.48      0.00 
   13    7   10    -18.33      0.00 
   15    7   10     -5.42      0.00 
   17    7   10     -8.63      0.00 
   19    7   10     -4.74      0.00 
   21    7   10    -21.85      0.00 
    0    8   10    -41.99      0.00 
    2    8   10    -16.85      0.00 
    4    8   10    -10.46      0.00 
    6    8   10     36.48      0.00 
    8    8   10      4.63      0.00 
   10    8   10     12.57      0.00 
   12    8   10      1.82      0.00 
   14    8   10      1.38      0.00 
   16    8   10    -10.49      0.00 
   18    8   10     -0.27      0.00 
   20    8   10     -2.02      0.00 
    1    9   10    -32.83      0.00 
    3    9   10    -36.98      0.00 
    5    9   10     -0.27      0.00 
    7    9   10      3.13      0.00 
    9    9   10      9.29      0.00 
   11    9   10     -1.27      0.00 
   13    9   10     -5.08      0.00 
   15    9   10      4.49      0.00 
   17    9   10      1.09      0.00 
   19    9   10      9.06      0.00 
    0   10   10    -15.02      0.00 
    2   10   10    -21.38      0.00 
    4   10   10    -12.05      0.00 
    6   10   10      9.78      0.00 
    8   10   10      8.74      0.00 
   10   10   10      0.93      0.00 
   12   10   10     -0.47      0.00 
   14   10   10     -0.70      0.00 
   16   10   10     -8.28      0.00 
   18   10   10     -2.98      0.00 
   20   10   10      6.67      0.00 
    1   11   10    -29.20      0.00 
    3   11   10    -14.72      0.00 
    5   11   10     15.16      0.00 
    7   11   10      7.05      0.00 
    9   11   10      6.29      0.00 
   11   11   10     18.22      0.00 
   13   11   10     15.43      0.00 
   15   11   10      3.55      0.00 
   17   11   10    -12.86      0.00 
   19   11   10     -9.76      0.00 
    0   12   10      2.39      0.00 
    2   12   10    -22.09      0.00 
    4   12   10     -6.34      0.00 
    6   12   10     25.59      0.00 
    8   12   10     11.52      0.00 
   10   12   10     14.99      0.00 
   12   12   10     -1.67      0.00 
   14   12   10      2.59      0.00 
   16   12   10      5.93      0.00 
   18   12   10      5.67      0.00 
   20   12   10    -11.46      0.00 
    1   13   10     -2.69      0.00 
    3   13   10     -8.66      0.00 
    5   13   10     -1.48      0.00 
    7   13   10     21.88      0.00 
    9   13   10      1.20      0.00 
   11   13   10      1.85      0.00 
   13   13   10      1.18      0.00 
   15   13   10     -1.88      0.00 
   17   13   10     17.33      0.00 
   19   13   10      1.32      0.00 
    0   14   10    -14.10      0.00 
    2   14   10    -22.09      0.00 
    4   14   10     -0.12      0.00 
    6   14   10      3.87      0.00 
    8   14   10      0.11      0.00 
   10   14   10      7.47      0.00 
   12   14   10      1.80      0.00 
   14   14   10     -2.66      0.00 
   16   14   10      2.27      0.00 
   18   14   10    -16.55      0.00 
   20   14   10     -7.82      0.00 
    1   15   10    -10.74      0.00 
    3   15   10    -10.57      0.00 
    5   15   10      6.29      0.00 
    7   15   10     17.06      0.00 
    9   15   10      1.84      0.00 
   11   15   10     -0.12      0.00 
   13   15   10     -1.32      0.00 
   15   15   10    -11.98      0.00 
   17   15   10     -3.40      0.00 
   19   15   10     -9.94      0.00 
    0   16   10    -11.37      0.00 
    2   16   10    -28.83      0.00 
    4   16   10     22.56      0.00 
    6   16   10      7.68      0.00 
    8   16   10     12.49      0.00 
   10   16   10     -3.00      0.00 
   12   16   10     -5.77      0.00 
   14   16   10     -8.02      0.00 
   16   16   10     -0.29      0.00 
   18   16   10    -15.56      0.00 
    1   17   10      3.47      0.00 
    3   17   10    -20.47      0.00 
    5   17   10     10.56      0.00 
    7   17   10     -8.86      0.00 
    9   17   10      0.57      0.00 
   11   17   10     -9.56      0.00 
   13   17   10     -2.18      0.00 
   15   17   10     -3.46      0.00 
   17   17   10     14.38      0.00 
   19   17   10     -8.17      0.00 
    0   18   10     -4.94      0.00 
    2   18   10    -11.03      0.00 
    4   18   10     10.32      0.00 
    6   18   10     -7.13      0.00 
    8   18   10      3.65      0.00 
   10   18   10     -7.09      0.00 
   12   18   10     -0.61      0.00 
   14   18   10     -5.30      0.00 
   16   18   10     -2.71      0.00 
   18   18   10    -15.65      0.00 
    1   19   10    -19.84      0.00 
    3   19   10    -14.55      0.00 
    5   19   10     15.60      0.00 
    7   19   10     -6.47      0.00 
    9   19   10     10.33      0.00 
   11   19   10     -8.52      0.00 
   13   19   10     -3.54      0.00 
   15   19   10    -13.25      0.00 
   17   19   10      5.29      0.00 
    0   20   10    -15.57      0.00 
    2   20   10    -25.39      0.00 
    4   20   10      5.06      0.00 
    6   20   10      2.70      0.00 
    8   20   10     10.47      0.00 
   10   20   10     -2.77      0.00 
   12   20   10     18.79      0.00 
   14   20   10      4.11      0.00 
   16   20   10     21.52      0.00 
   18   20   10     -5.45      0.00 
    1   21   10    -21.24      0.00 
    3   21   10     -4.22      0.00 
    5   21   10      3.01      0.00 
    7   21   10     -9.19      0.00 
    9   21   10     21.49      0.00 
   11   21   10      1.37      0.00 
   13   21   10      7.41      0.00 
   15   21   10    -12.42      0.00 
   17   21   10     -5.06      0.00 
    0   22   10    -16.74      0.00 
    2   22   10    -13.77      0.00 
    4   22   10      1.41      0.00 
    6   22   10     -3.74      0.00 
    8   22   10     16.65      0.00 
   10   22   10     -8.89      0.00 
   12   22   10      0.66      0.00 
   14   22   10    -21.08      0.00 
   16   22   10     -8.02      0.00 
    1   23   10     -3.72      0.00 
    3   23   10     -8.95      0.00 
    5   23   10      0.00      0.00 
    7   23   10     -5.13      0.00 
    9   23   10     -5.52      0.00 
   11   23   10      8.61      0.00 
   13   23   10     -8.88      0.00 
   15   23   10     -1.96      0.00 
   17   23   10      4.86      0.00 
    0   24   10    -18.19      0.00 
    2   24   10    -19.38      0.00 
    4   24   10     11.52      0.00 
    6   24   10     -8.75      0.00 
    8   24   10     10.58      0.00 
   10   24   10     -3.07      0.00 
   12   24   10      5.39      0.00 
   14   24   10     -0.14      0.00 
   16   24   10     -7.54      0.00 
    1   25   10     -9.67      0.00 
    3   25   10     -5.06      0.00 
    5   25   10      5.26      0.00 
    7   25   10     -7.70      0.00 
    9   25   10      3.50      0.00 
   11   25   10     -8.68      0.00 
   13   25   10    -21.17      0.00 
   15   25   10     -1.67      0.00 
    0   26   10      8.22      0.00 
    2   26   10     -5.44      0.00 
    4   26   10      7.76      0.00 
    6   26   10     -7.22      0.00 
    8   26   10     14.18      0.00 
   10   26   10    -10.24      0.00 
   12   26   10    -15.18      0.00 
   14   26   10     -4.34      0.00 
    1   27   10      6.55      0.00 
    3   27   10      6.05      0.00 
    5   27   10     -7.44      0.00 
    7   27   10      0.64      0.00 
    9   27   10      0.66      0.00 
   11   27   10      8.63      0.00 
   13   27   10     21.41      0.00 
   15   27   10     15.29      0.00 
    0   28   10     -5.25      0.00 
    2   28   10     -0.95      0.00 
    4   28   10      9.48      0.00 
    6   28   10     15.23      0.00 
    8   28   10     -3.24      0.00 
   10   28   10      4.34      0.00 
   12   28   10     14.49      0.00 
   14   28   10     10.26      0.00 
    1   29   10     -4.43      0.00 
    3   29   10     14.63      0.00 
    5   29   10    -18.99      0.00 
    7   29   10      5.86      0.00 
    9   29   10     14.61      0.00 
   11   29   10     -4.00      0.00 
   13   29   10      1.36      0.00 
    0   30   10     -4.88      0.00 
    2   30   10     -1.50      0.00 
    4   30   10     -1.61      0.00 
    6   30   10     18.06      0.00 
    8   30   10    -12.69      0.00 
   10   30   10    -13.85      0.00 
   12   30   10     -0.36      0.00 
    1   31   10     -4.34      0.00 
    3   31   10     -4.40      0.00 
    5   31   10     -4.61      0.00 
    7   31   10     -1.28      0.00 
    9   31   10      4.06      0.00 
   11   31   10      3.89      0.00 
    0   32   10    -11.30      0.00 
    2   32   10     -2.58      0.00 
    4   32   10    -10.77      0.00 
    6   32   10     -3.89      0.00 
    8   32   10    -10.55      0.00 
   10   32   10     11.75      0.00 
    1   33   10    -10.98      0.00 
    3   33   10     -6.46      0.00 
    5   33   10     -8.99      0.00 
    7   33   10      7.70      0.00 
    9   33   10      6.08      0.00 
    0   34   10      6.42      0.00 
    2   34   10     -1.62      0.00 
    4   34   10      1.14      0.00 
    6   34   10      4.42      0.00 
    8   34   10     -9.55      0.00 
    1   35   10      1.40      0.00 
    3   35   10      0.33      0.00 
    5   35   10     -9.85      0.00 
    7   35   10      2.74      0.00 
    0   36   10     12.16      0.00 
    2   36   10      2.29      0.00 
    4   36   10      1.34      0.00 
    6   36   10     -0.50      0.00 
    1   37   10     -3.78      0.00 
    3   37   10     -1.09      0.00 
    5   37   10     -9.84      0.00 
    0   38   10     -8.39      0.00 
    2   38   10      2.60      0.00 
    2    1   11    -19.66      0.00 
    4    1   11     -5.33      0.00 
    6    1   11    -52.01      0.00 
    8    1   11     12.72      0.00 
   10    1   11     -6.15      0.00 
   12    1   11      2.93      0.00 
   14    1   11      6.03      0.00 
   16    1   11      6.05      0.00 
   18    1   11      5.15      0.00 
   20    1   11    -22.92      0.00 
    1    2   11     -5.27      0.00 
    3    2   11      2.22      0.00 
    5    2   11    -15.72      0.00 
    7    2   11     -3.86      0.00 
    9    2   11     -6.08      0.00 
   11    2   11      6.23      0.00 
   13    2   11      4.53      0.00 
   15    2   11     -6.12      0.00 
   17    2   11      5.28      0.00 
   19    2   11     12.22      0.00 
   21    2   11      1.23      0.00 
    2    3   11      5.20      0.00 
    4    3   11     -8.53      0.00 
    6    3   11    -18.20      0.00 
    8    3   11     20.75      0.00 
   10    3   11     -9.79      0.00 
   12    3   11     13.31      0.00 
   14    3   11      1.54      0.00 
   16    3   11     -6.77      0.00 
   18    3   11      5.21      0.00 
   20    3   11     -6.29      0.00 
    1    4   11     22.49      0.00 
    3    4   11    -15.86      0.00 
    5    4   11     20.29      0.00 
    7    4   11    -12.50      0.00 
    9    4   11      9.28      0.00 
   11    4   11     -3.59      0.00 
   13    4   11    -13.39      0.00 
   15    4   11     -2.73      0.00 
   17    4   11      0.54      0.00 
   19    4   11     -4.87      0.00 
   21    4   11     -4.12      0.00 
    2    5   11     24.40      0.00 
    4    5   11    -12.97      0.00 
    6    5   11     24.16      0.00 
    8    5   11     -3.51      0.00 
   10    5   11     -8.63      0.00 
   12    5   11    -10.68      0.00 
   14    5   11     -4.83      0.00 
   16    5   11     -8.20      0.00 
   18    5   11     -2.44      0.00 
   20    5   11      8.57      0.00 
    1    6   11     -4.84      0.00 
    3    6   11     12.22      0.00 
    5    6   11     25.00      0.00 
    7    6   11     -4.35      0.00 
    9    6   11      6.28      0.00 
   11    6   11     -9.76      0.00 
   13    6   11     -9.28      0.00 
   15    6   11     -4.41      0.00 
   17    6   11     -1.74      0.00 
   19    6   11     -2.06      0.00 
   21    6   11     11.55      0.00 
    2    7   11     20.77      0.00 
    4    7   11      0.08      0.00 
    6    7   11     14.38      0.00 
    8    7   11     -7.89      0.00 
   10    7   11      2.00      0.00 
   12    7   11     -1.16      0.00 
   14    7   11     -1.36      0.00 
   16    7   11     -2.39      0.00 
   18    7   11     -4.13      0.00 
   20    7   11    -18.82      0.00 
    1    8   11      4.51      0.00 
    3    8   11     -7.72      0.00 
    5    8   11    -10.12      0.00 
    7    8   11     -3.50      0.00 
    9    8   11     10.58      0.00 
   11    8   11      0.26      0.00 
   13    8   11     11.55      0.00 
   15    8   11      5.94      0.00 
   17    8   11      8.94      0.00 
   19    8   11     -1.64      0.00 
    2    9   11     -3.98      0.00 
    4    9   11    -32.20      0.00 
    6    9   11      9.74      0.00 
    8    9   11      9.23      0.00 
   10    9   11     20.41      0.00 
   12    9   11     -0.04      0.00 
   14    9   11     14.47      0.00 
   16    9   11     -3.74      0.00 
   18    9   11     10.62      0.00 
   20    9   11      3.69      0.00 
    1   10   11      3.26      0.00 
    3   10   11     12.96      0.00 
    5   10   11      3.54      0.00 
    7   10   11     10.28      0.00 
    9   10   11     22.70      0.00 
   11   10   11      5.38      0.00 
   13   10   11      5.65      0.00 
   15   10   11     -7.99      0.00 
   17   10   11      0.20      0.00 
   19   10   11      4.92      0.00 
    2   11   11     22.13      0.00 
    4   11   11      6.12      0.00 
    6   11   11     26.29      0.00 
    8   11   11     11.97      0.00 
   10   11   11      9.54      0.00 
   12   11   11     -8.79      0.00 
   14   11   11      5.93      0.00 
   16   11   11     -6.08      0.00 
   18   11   11      1.76      0.00 
   20   11   11      1.24      0.00 
    1   12   11    -10.91      0.00 
    3   12   11      5.12      0.00 
    5   12   11     -2.10      0.00 
    7   12   11     -2.24      0.00 
    9   12   11     -4.11      0.00 
   11   12   11    -13.34      0.00 
   13   12   11     -7.88      0.00 
   15   12   11    -14.60      0.00 
   17   12   11     16.58      0.00 
   19   12   11     10.34      0.00 
    2   13   11     -5.27      0.00 
    4   13   11    -16.43      0.00 
    6   13   11     -0.17      0.00 
    8   13   11    -23.29      0.00 
   10   13   11    -12.54      0.00 
   12   13   11    -19.88      0.00 
   14   13   11      2.01      0.00 
   16   13   11    -12.39      0.00 
   18   13   11      2.40      0.00 
   20   13   11     -0.36      0.00 
    1   14   11      6.42      0.00 
    3   14   11      0.55      0.00 
    5   14   11      6.82      0.00 
    7   14   11    -16.22      0.00 
    9   14   11      0.25      0.00 
   11   14   11    -11.15      0.00 
   13   14   11     -5.59      0.00 
   15   14   11     -6.08      0.00 
   17   14   11     -1.82      0.00 
   19   14   11    -15.14      0.00 
    2   15   11      1.13      0.00 
    4   15   11      8.57      0.00 
    6   15   11      7.57      0.00 
    8   15   11     -2.19      0.00 
   10   15   11     -1.87      0.00 
   12   15   11     -7.47      0.00 
   14   15   11      0.13      0.00 
   16   15   11     -2.87      0.00 
   18   15   11      7.21      0.00 
    1   16   11     16.65      0.00 
    3   16   11    -10.36      0.00 
    5   16   11      9.05      0.00 
    7   16   11     -5.36      0.00 
    9   16   11     -0.06      0.00 
   11   16   11     -4.91      0.00 
   13   16   11      5.93      0.00 
   15   16   11     -6.41      0.00 
   17   16   11     11.14      0.00 
   19   16   11      0.63      0.00 
    2   17   11    -14.27      0.00 
    4   17   11     10.93      0.00 
    6   17   11     10.52      0.00 
    8   17   11     15.03      0.00 
   10   17   11      4.05      0.00 
   12   17   11      5.37      0.00 
   14   17   11     -1.11      0.00 
   16   17   11     -4.55      0.00 
   18   17   11     -0.97      0.00 
    1   18   11     17.94      0.00 
    3   18   11      2.97      0.00 
    5   18   11     17.94      0.00 
    7   18   11      7.95      0.00 
    9   18   11     18.59      0.00 
   11   18   11      8.45      0.00 
   13   18   11     14.46      0.00 
   15   18   11     -1.81      0.00 
   17   18   11     -7.11      0.00 
    2   19   11      6.91      0.00 
    4   19   11     20.21      0.00 
    6   19   11      2.79      0.00 
    8   19   11      9.27      0.00 
   10   19   11     11.19      0.00 
   12   19   11     -3.87      0.00 
   14   19   11    -14.71      0.00 
   16   19   11     -5.59      0.00 
   18   19   11     24.52      0.00 
    1   20   11     -4.27      0.00 
    3   20   11    -15.60      0.00 
    5   20   11      4.38      0.00 
    7   20   11      2.71      0.00 
    9   20   11     -4.49      0.00 
   11   20   11    -12.12      0.00 
   13   20   11     13.04      0.00 
   15   20   11     -9.77      0.00 
   17   20   11     -9.47      0.00 
    2   21   11     -9.76      0.00 
    4   21   11      0.80      0.00 
    6   21   11     -3.35      0.00 
    8   21   11    -17.33      0.00 
   10   21   11     -3.49      0.00 
   12   21   11     -5.47      0.00 
   14   21   11      0.97      0.00 
   16   21   11      4.62      0.00 
    1   22   11     -2.67      0.00 
    3   22   11      0.32      0.00 
    5   22   11    -14.45      0.00 
    7   22   11     -3.81      0.00 
    9   22   11     -0.88      0.00 
   11   22   11     -5.77      0.00 
   13   22   11     -7.01      0.00 
   15   22   11     -7.96      0.00 
   17   22   11    -19.24      0.00 
    2   23   11     10.61      0.00 
    4   23   11     10.54      0.00 
    6   23   11      7.06      0.00 
    8   23   11    -14.49      0.00 
   10   23   11      7.22      0.00 
   12   23   11      2.76      0.00 
   14   23   11     -3.08      0.00 
   16   23   11      7.06      0.00 
    1   24   11      1.31      0.00 
    3   24   11      2.97      0.00 
    5   24   11     10.61      0.00 
    7   24   11      8.33      0.00 
    9   24   11     -1.34      0.00 
   11   24   11      5.89      0.00 
   13   24   11    -13.65      0.00 
   15   24   11    -13.43      0.00 
    2   25   11     -2.75      0.00 
    4   25   11     -3.50      0.00 
    6   25   11     -2.62      0.00 
    8   25   11      8.25      0.00 
   10   25   11     -8.01      0.00 
   12   25   11      9.00      0.00 
   14   25   11     23.57      0.00 
   16   25   11      2.28      0.00 
    1   26   11     -5.94      0.00 
    3   26   11      0.17      0.00 
    5   26   11      6.60      0.00 
    7   26   11      6.81      0.00 
    9   26   11      2.89      0.00 
   11   26   11     11.55      0.00 
   13   26   11    -19.06      0.00 
   15   26   11      3.11      0.00 
    2   27   11      3.07      0.00 
    4   27   11      6.12      0.00 
    6   27   11      0.65      0.00 
    8   27   11     16.49      0.00 
   10   27   11      8.84      0.00 
   12   27   11      9.95      0.00 
   14   27   11      0.15      0.00 
    1   28   11      8.37      0.00 
    3   28   11      4.94      0.00 
    5   28   11      9.57      0.00 
    7   28   11      7.62      0.00 
    9   28   11     -5.35      0.00 
   11   28   11      3.63      0.00 
   13   28   11      6.15      0.00 
    2   29   11     -0.48      0.00 
    4   29   11      0.25      0.00 
    6   29   11     -6.14      0.00 
    8   29   11      6.06      0.00 
   10   29   11     -7.39      0.00 
   12   29   11      7.19      0.00 
    1   30   11     -0.74      0.00 
    3   30   11      8.36      0.00 
    5   30   11     -0.22      0.00 
    7   30   11      2.09      0.00 
    9   30   11    -20.90      0.00 
   11   30   11     -1.30      0.00 
   13   30   11    -24.64      0.00 
    2   31   11     -9.89      0.00 
    4   31   11     -7.00      0.00 
    6   31   11     -3.38      0.00 
    8   31   11      3.91      0.00 
   10   31   11     -7.87      0.00 
   12   31   11      4.90      0.00 
    1   32   11     -1.48      0.00 
    3   32   11     10.25      0.00 
    5   32   11     -0.19      0.00 
    7   32   11      4.42      0.00 
    9   32   11     14.57      0.00 
   11   32   11      9.33      0.00 
    2   33   11     -4.32      0.00 
    4   33   11      3.92      0.00 
    6   33   11     -1.70      0.00 
    8   33   11     -4.02      0.00 
   10   33   11     -9.32      0.00 
    1   34   11      3.66      0.00 
    3   34   11      0.84      0.00 
    5   34   11      6.12      0.00 
    7   34   11     -3.13      0.00 
    9   34   11     10.22      0.00 
    2   35   11     -7.53      0.00 
    4   35   11     -3.43      0.00 
    6   35   11     -0.78      0.00 
    8   35   11     -5.19      0.00 
    1   36   11      8.71      0.00 
    3   36   11      4.10      0.00 
    5   36   11      1.00      0.00 
    2   37   11     -1.82      0.00 
    4   37   11      7.83      0.00 
    0    0   12    100.61      0.00 
    2    0   12    -25.47      0.00 
    4    0   12     24.40      0.00 
    6    0   12    -10.36      0.00 
    8    0   12     -0.72      0.00 
   10    0   12      4.09      0.00 
   12    0   12    -14.34      0.00 
   14    0   12      2.72      0.00 
   16    0   12    -16.51      0.00 
   18    0   12     14.16      0.00 
   20    0   12      3.13      0.00 
    1    1   12     30.31      0.00 
    3    1   12      1.79      0.00 
    5    1   12     -3.69      0.00 
    7    1   12     -7.60      0.00 
    9    1   12     -0.72      0.00 
   11    1   12      5.99      0.00 
   13    1   12     -7.27      0.00 
   15    1   12      9.62      0.00 
   17    1   12     -3.23      0.00 
   19    1   12     -7.13      0.00 
   21    1   12      2.80      0.00 
    0    2   12     43.02      0.00 
    2    2   12     15.64      0.00 
    4    2   12     -4.31      0.00 
    6    2   12     -2.01      0.00 
    8    2   12    -12.31      0.00 
   10    2   12     -6.81      0.00 
   12    2   12    -14.66      0.00 
   14    2   12     15.24      0.00 
   16    2   12     -4.26      0.00 
   18    2   12      1.75      0.00 
   20    2   12      4.22      0.00 
    1    3   12     -3.64      0.00 
    3    3   12     30.09      0.00 
    5    3   12     -8.99      0.00 
    7    3   12     -4.25      0.00 
    9    3   12     -2.95      0.00 
   11    3   12     12.76      0.00 
   13    3   12    -11.85      0.00 
   15    3   12     -3.62      0.00 
   17    3   12     -0.93      0.00 
   19    3   12     -1.78      0.00 
   21    3   12      0.90      0.00 
    0    4   12      5.59      0.00 
    2    4   12     25.53      0.00 
    4    4   12    -28.21      0.00 
    6    4   12     20.98      0.00 
    8    4   12     -2.38      0.00 
   10    4   12    -16.72      0.00 
   12    4   12      1.79      0.00 
   14    4   12      9.23      0.00 
   16    4   12      4.51      0.00 
   18    4   12      2.41      0.00 
   20    4   12    -20.36      0.00 
    1    5   12     25.96      0.00 
    3    5   12     14.47      0.00 
    5    5   12      2.73      0.00 
    7    5   12    -10.86      0.00 
    9    5   12     13.45      0.00 
   11    5   12     10.82      0.00 
   13    5   12      0.67      0.00 
   15    5   12      8.43      0.00 
   17    5   12      6.13      0.00 
   19    5   12     12.14      0.00 
    0    6   12      0.64      0.00 
    2    6   12     -0.10      0.00 
    4    6   12    -24.97      0.00 
    6    6   12      0.80      0.00 
    8    6   12    -15.27      0.00 
   10    6   12     -3.49      0.00 
   12    6   12      8.57      0.00 
   14    6   12     15.81      0.00 
   16    6   12     -4.70      0.00 
   18    6   12      1.13      0.00 
   20    6   12      9.09      0.00 
    1    7   12      5.72      0.00 
    3    7   12      4.88      0.00 
    5    7   12    -19.87      0.00 
    7    7   12     -9.04      0.00 
    9    7   12     11.21      0.00 
   11    7   12      5.81      0.00 
   13    7   12      8.01      0.00 
   15    7   12      4.21      0.00 
   17    7   12     -8.82      0.00 
   19    7   12     -1.14      0.00 
    0    8   12     63.48      0.00 
    2    8   12     16.06      0.00 
    4    8   12     21.70      0.00 
    6    8   12     -2.41      0.00 
    8    8   12     -9.23      0.00 
   10    8   12     10.03      0.00 
   12    8   12     -0.38      0.00 
   14    8   12      5.59      0.00 
   16    8   12      1.22      0.00 
   18    8   12     12.47      0.00 
   20    8   12     -4.54      0.00 
    1    9   12     18.39      0.00 
    3    9   12     15.34      0.00 
    5    9   12    -19.95      0.00 
    7    9   12     -4.64      0.00 
    9    9   12     -3.40      0.00 
   11    9   12     -8.04      0.00 
   13    9   12     -8.07      0.00 
   15    9   12      5.61      0.00 
   17    9   12      9.81      0.00 
   19    9   12     -7.30      0.00 
    0   10   12     35.27      0.00 
    2   10   12     21.02      0.00 
    4   10   12     13.51      0.00 
    6   10   12    -19.68      0.00 
    8   10   12     -0.95      0.00 
   10   10   12     -8.67      0.00 
   12   10   12      5.10      0.00 
   14   10   12      4.84      0.00 
   16   10   12     -6.73      0.00 
   18   10   12     10.44      0.00 
   20   10   12     12.66      0.00 
    1   11   12     26.33      0.00 
    3   11   12     32.15      0.00 
    5   11   12     -0.19      0.00 
    7   11   12      2.24      0.00 
    9   11   12     -7.24      0.00 
   11   11   12      6.90      0.00 
   13   11   12     -0.91      0.00 
   15   11   12      0.97      0.00 
   17   11   12     -8.00      0.00 
   19   11   12     -7.51      0.00 
    0   12   12     -6.10      0.00 
    2   12   12     21.81      0.00 
    4   12   12     11.08      0.00 
    6   12   12     -5.44      0.00 
    8   12   12      7.73      0.00 
   10   12   12      6.71      0.00 
   12   12   12      2.33      0.00 
   14   12   12     -2.99      0.00 
   16   12   12      2.55      0.00 
   18   12   12     10.99      0.00 
   20   12   12    -10.35      0.00 
    1   13   12     23.50      0.00 
    3   13   12     18.49      0.00 
    5   13   12     -3.90      0.00 
    7   13   12      0.19      0.00 
    9   13   12     -8.88      0.00 
   11   13   12      0.29      0.00 
   13   13   12     -0.25      0.00 
   15   13   12     -0.30      0.00 
   17   13   12     -3.80      0.00 
   19   13   12     13.69      0.00 
    0   14   12      1.61      0.00 
    2   14   12     23.61      0.00 
    4   14   12     -2.08      0.00 
    6   14   12    -17.38      0.00 
    8   14   12    -12.32      0.00 
   10   14   12     -2.20      0.00 
   12   14   12      9.33      0.00 
   14   14   12      1.59      0.00 
   16   14   12      5.77      0.00 
   18   14   12     -8.11      0.00 
    1   15   12    -11.17      0.00 
    3   15   12      3.52      0.00 
    5   15   12    -15.83      0.00 
    7   15   12    -19.61      0.00 
    9   15   12     -3.25      0.00 
   11   15   12      3.13      0.00 
   13   15   12     -7.06      0.00 
   15   15   12     -0.75      0.00 
   17   15   12    -10.98      0.00 
   19   15   12      5.92      0.00 
    0   16   12     -7.83      0.00 
    2   16   12     -5.32      0.00 
    4   16   12     -4.46      0.00 
    6   16   12     -4.70      0.00 
    8   16   12      2.33      0.00 
   10   16   12      7.70      0.00 
   12   16   12      7.38      0.00 
   14   16   12      5.99      0.00 
   16   16   12      4.48      0.00 
   18   16   12      1.73      0.00 
    1   17   12      8.39      0.00 
    3   17   12      9.13      0.00 
    5   17   12     -5.25      0.00 
    7   17   12      1.36      0.00 
    9   17   12     10.84      0.00 
   11   17   12      9.17      0.00 
   13   17   12     -0.94      0.00 
   15   17   12      0.38      0.00 
   17   17   12      5.98      0.00 
    0   18   12     10.51      0.00 
    2   18   12     10.01      0.00 
    4   18   12     -4.59      0.00 
    6   18   12      9.32      0.00 
    8   18   12     -1.12      0.00 
   10   18   12      5.12      0.00 
   12   18   12     -0.16      0.00 
   14   18   12      5.98      0.00 
   16   18   12    -15.73      0.00 
   18   18   12     -2.88      0.00 
    1   19   12      7.06      0.00 
    3   19   12     16.61      0.00 
    5   19   12     -4.34      0.00 
    7   19   12     -0.02      0.00 
    9   19   12      0.71      0.00 
   11   19   12      9.26      0.00 
   13   19   12     -8.45      0.00 
   15   19   12     -2.82      0.00 
   17   19   12     10.39      0.00 
    0   20   12     18.27      0.00 
    2   20   12     14.74      0.00 
    4   20   12      5.91      0.00 
    6   20   12      4.88      0.00 
    8   20   12     -4.03      0.00 
   10   20   12      1.68      0.00 
   12   20   12     -6.46      0.00 
   14   20   12      0.95      0.00 
   16   20   12    -18.35      0.00 
    1   21   12     29.70      0.00 
    3   21   12     13.21      0.00 
    5   21   12     -4.52      0.00 
    7   21   12     -1.74      0.00 
    9   21   12     -2.87      0.00 
   11   21   12      4.72      0.00 
   13   21   12     11.06      0.00 
   15   21   12      4.80      0.00 
   17   21   12     10.22      0.00 
    0   22   12     12.47      0.00 
    2   22   12     15.32      0.00 
    4   22   12      1.89      0.00 
    6   22   12     -3.25      0.00 
    8   22   12     -4.03      0.00 
   10   22   12     -4.33      0.00 
   12   22   12    -16.06      0.00 
   14   22   12      0.83      0.00 
   16   22   12     -6.43      0.00 
    1   23   12      8.54      0.00 
    3   23   12      6.05      0.00 
    5   23   12     -0.84      0.00 
    7   23   12      3.87      0.00 
    9   23   12     -7.44      0.00 
   11   23   12     11.90      0.00 
   13   23   12      8.53      0.00 
   15   23   12     -3.52      0.00 
    0   24   12      6.97      0.00 
    2   24   12     -1.58      0.00 
    4   24   12     11.78      0.00 
    6   24   12     -1.15      0.00 
    8   24   12      6.19      0.00 
   10   24   12      8.65      0.00 
   12   24   12      8.39      0.00 
   14   24   12     20.68      0.00 
   16   24   12     14.37      0.00 
    1   25   12     -9.46      0.00 
    3   25   12      2.37      0.00 
    5   25   12      4.66      0.00 
    7   25   12      3.91      0.00 
    9   25   12      4.08      0.00 
   11   25   12      8.97      0.00 
   13   25   12     15.99      0.00 
   15   25   12    -14.26      0.00 
    0   26   12     21.86      0.00 
    2   26   12     -1.14      0.00 
    4   26   12      5.88      0.00 
    6   26   12    -17.54      0.00 
    8   26   12      7.45      0.00 
   10   26   12     11.09      0.00 
   12   26   12     -1.90      0.00 
   14   26   12    -15.60      0.00 
    1   27   12      3.44      0.00 
    3   27   12      4.93      0.00 
    5   27   12      1.23      0.00 
    7   27   12      3.03      0.00 
    9   27   12    -20.31      0.00 
   11   27   12      4.53      0.00 
   13   27   12      1.30      0.00 
    0   28   12     -7.07      0.00 
    2   28   12    -22.40      0.00 
    4   28   12     -0.58      0.00 
    6   28   12     -3.13      0.00 
    8   28   12     -3.76      0.00 
   10   28   12     10.79      0.00 
   12   28   12      1.24      0.00 
   14   28   12     -6.94      0.00 
    1   29   12      1.17      0.00 
    3   29   12      6.02      0.00 
    5   29   12     -8.77      0.00 
    7   29   12      1.57      0.00 
    9   29   12     14.70      0.00 
   11   29   12     -2.10      0.00 
   13   29   12    -21.35      0.00 
    0   30   12     10.72      0.00 
    2   30   12      1.77      0.00 
    4   30   12     -2.81      0.00 
    6   30   12     -2.73      0.00 
    8   30   12     -0.35      0.00 
   10   30   12     -5.70      0.00 
   12   30   12     10.74      0.00 
    1   31   12      4.62      0.00 
    3   31   12      3.57      0.00 
    5   31   12      8.30      0.00 
    7   31   12    -14.48      0.00 
    9   31   12      5.63      0.00 
   11   31   12     -5.04      0.00 
    0   32   12      4.12      0.00 
    2   32   12      5.86      0.00 
    4   32   12      4.60      0.00 
    6   32   12      1.92      0.00 
    8   32   12     -4.29      0.00 
   10   32   12     -3.50      0.00 
    1   33   12      4.02      0.00 
    3   33   12      7.16      0.00 
    5   33   12     -0.66      0.00 
    7   33   12      6.25      0.00 
    9   33   12     -0.60      0.00 
    0   34   12      8.81      0.00 
    2   34   12      0.97      0.00 
    4   34   12     15.56      0.00 
    6   34   12      5.77      0.00 
    8   34   12    -13.93      0.00 
    1   35   12     -8.94      0.00 
    3   35   12      3.43      0.00 
    5   35   12      1.23      0.00 
    7   35   12     10.23      0.00 
    0   36   12      4.89      0.00 
    2   36   12     -7.48      0.00 
    4   36   12     -5.63      0.00 
    1   37   12     -0.01      0.00 
    3   37   12      1.36      0.00 
    2    1   13      5.62      0.00 
    4    1   13     37.94      0.00 
    6    1   13    -11.99      0.00 
    8    1   13     23.97      0.00 
   10    1   13     -3.98      0.00 
   12    1   13     -3.94      0.00 
   14    1   13     -6.94      0.00 
   16    1   13     -0.67      0.00 
   18    1   13      4.66      0.00 
   20    1   13      2.13      0.00 
    1    2   13     -6.84      0.00 
    3    2   13     33.07      0.00 
    5    2   13     47.94      0.00 
    7    2   13     21.19      0.00 
    9    2   13      7.71      0.00 
   11    2   13      2.42      0.00 
   13    2   13     14.19      0.00 
   15    2   13     -0.51      0.00 
   17    2   13     -8.60      0.00 
   19    2   13    -11.76      0.00 
    2    3   13     -4.27      0.00 
    4    3   13     46.00      0.00 
    6    3   13     12.35      0.00 
    8    3   13     31.85      0.00 
   10    3   13      1.29      0.00 
   12    3   13     10.36      0.00 
   14    3   13     -6.26      0.00 
   16    3   13     10.11      0.00 
   18    3   13    -19.05      0.00 
   20    3   13     -0.15      0.00 
    1    4   13      8.08      0.00 
    3    4   13     -9.05      0.00 
    5    4   13      4.31      0.00 
    7    4   13      5.45      0.00 
    9    4   13     10.17      0.00 
   11    4   13     13.72      0.00 
   13    4   13      7.66      0.00 
   15    4   13      0.22      0.00 
   17    4   13     -1.56      0.00 
   19    4   13     -1.96      0.00 
    2    5   13    -15.05      0.00 
    4    5   13    -21.85      0.00 
    6    5   13     -8.42      0.00 
    8    5   13     -1.11      0.00 
   10    5   13      7.63      0.00 
   12    5   13      0.74      0.00 
   14    5   13      8.27      0.00 
   16    5   13     23.02      0.00 
   18    5   13    -16.57      0.00 
   20    5   13     -2.32      0.00 
    1    6   13    -19.21      0.00 
    3    6   13    -11.16      0.00 
    5    6   13     -2.13      0.00 
    7    6   13      3.17      0.00 
    9    6   13      1.09      0.00 
   11    6   13      8.42      0.00 
   13    6   13      0.76      0.00 
   15    6   13     -3.90      0.00 
   17    6   13      0.97      0.00 
   19    6   13     20.31      0.00 
    2    7   13     -5.05      0.00 
    4    7   13    -10.77      0.00 
    6    7   13    -14.01      0.00 
    8    7   13      1.61      0.00 
   10    7   13     -9.38      0.00 
   12    7   13      0.89      0.00 
   14    7   13      0.64      0.00 
   16    7   13      3.41      0.00 
   18    7   13    -10.43      0.00 
   20    7   13    -25.66      0.00 
    1    8   13    -29.56      0.00 
    3    8   13    -13.82      0.00 
    5    8   13    -16.28      0.00 
    7    8   13    -17.40      0.00 
    9    8   13    -25.16      0.00 
   11    8   13    -15.12      0.00 
   13    8   13     -4.52      0.00 
   15    8   13      0.49      0.00 
   17    8   13     -1.39      0.00 
   19    8   13      0.96      0.00 
    2    9   13    -10.31      0.00 
    4    9   13    -11.12      0.00 
    6    9   13    -21.84      0.00 
    8    9   13    -16.90      0.00 
   10    9   13    -21.87      0.00 
   12    9   13    -12.67      0.00 
   14    9   13    -11.86      0.00 
   16    9   13     -8.50      0.00 
   18    9   13      2.75      0.00 
   20    9   13      5.57      0.00 
    1   10   13    -33.78      0.00 
    3   10   13      4.58      0.00 
    5   10   13     -8.80      0.00 
    7   10   13    -11.45      0.00 
    9   10   13     -9.94      0.00 
   11   10   13     -3.13      0.00 
   13   10   13     -5.42      0.00 
   15   10   13      1.64      0.00 
   17   10   13     -8.31      0.00 
   19   10   13      0.81      0.00 
    2   11   13      9.83      0.00 
    4   11   13      7.11      0.00 
    6   11   13     -0.15      0.00 
    8   11   13      2.02      0.00 
   10   11   13      4.67      0.00 
   12   11   13      9.93      0.00 
   14   11   13      5.13      0.00 
   16   11   13     21.68      0.00 
   18   11   13    -11.57      0.00 
    1   12   13    -15.65      0.00 
    3   12   13      1.48      0.00 
    5   12   13     -8.53      0.00 
    7   12   13     11.92      0.00 
    9   12   13      2.14      0.00 
   11   12   13     13.20      0.00 
   13   12   13      9.63      0.00 
   15   12   13      2.58      0.00 
   17   12   13      4.45      0.00 
   19   12   13      6.44      0.00 
    2   13   13    -13.32      0.00 
    4   13   13    -10.62      0.00 
    6   13   13      4.96      0.00 
    8   13   13     16.80      0.00 
   10   13   13     21.42      0.00 
   12   13   13     13.69      0.00 
   14   13   13      7.85      0.00 
   16   13   13     -2.92      0.00 
   18   13   13    -19.95      0.00 
    1   14   13     11.71      0.00 
    3   14   13      8.70      0.00 
    5   14   13     16.11      0.00 
    7   14   13     23.51      0.00 
    9   14   13     24.35      0.00 
   11   14   13     24.71      0.00 
   13   14   13     -3.10      0.00 
   15   14   13      2.89      0.00 
   17   14   13      1.19      0.00 
   19   14   13     -2.25      0.00 
    2   15   13     12.73      0.00 
    4   15   13      1.61      0.00 
    6   15   13      8.10      0.00 
    8   15   13     22.64      0.00 
   10   15   13      8.71      0.00 
   12   15   13      5.28      0.00 
   14   15   13      1.99      0.00 
   16   15   13     -3.79      0.00 
   18   15   13    -16.87      0.00 
    1   16   13     -3.82      0.00 
    3   16   13    -22.18      0.00 
    5   16   13     -3.76      0.00 
    7   16   13     -2.14      0.00 
    9   16   13    -12.49      0.00 
   11   16   13     -5.18      0.00 
   13   16   13    -17.00      0.00 
   15   16   13      6.41      0.00 
   17   16   13     11.82      0.00 
    2   17   13    -11.30      0.00 
    4   17   13    -26.86      0.00 
    6   17   13    -30.27      0.00 
    8   17   13    -10.52      0.00 
   10   17   13    -13.35      0.00 
   12   17   13     -2.79      0.00 
   14   17   13      4.76      0.00 
   16   17   13     12.73      0.00 
   18   17   13    -12.89      0.00 
    1   18   13     -9.82      0.00 
    3   18   13    -18.11      0.00 
    5   18   13    -15.48      0.00 
    7   18   13    -17.76      0.00 
    9   18   13    -18.50      0.00 
   11   18   13    -12.11      0.00 
   13   18   13    -12.30      0.00 
   15   18   13     11.24      0.00 
   17   18   13    -23.00      0.00 
    2   19   13      5.58      0.00 
    4   19   13    -15.75      0.00 
    6   19   13    -15.94      0.00 
    8   19   13     -2.92      0.00 
   10   19   13      4.79      0.00 
   12   19   13     -0.51      0.00 
   14   19   13      2.21      0.00 
   16   19   13     -0.90      0.00 
    1   20   13     -6.75      0.00 
    3   20   13     -8.36      0.00 
    5   20   13     -5.59      0.00 
    7   20   13     -1.50      0.00 
    9   20   13    -10.59      0.00 
   11   20   13     -8.56      0.00 
   13   20   13      1.56      0.00 
   15   20   13      7.26      0.00 
   17   20   13     11.09      0.00 
    2   21   13     -9.86      0.00 
    4   21   13     -9.98      0.00 
    6   21   13     -4.96      0.00 
    8   21   13     -0.47      0.00 
   10   21   13      8.73      0.00 
   12   21   13      1.67      0.00 
   14   21   13      6.58      0.00 
   16   21   13     -2.40      0.00 
    1   22   13      7.43      0.00 
    3   22   13     -2.18      0.00 
    5   22   13     -6.51      0.00 
    7   22   13     16.77      0.00 
    9   22   13     26.10      0.00 
   11   22   13      6.72      0.00 
   13   22   13      9.01      0.00 
   15   22   13     10.84      0.00 
    2   23   13     -0.36      0.00 
    4   23   13     -3.35      0.00 
    6   23   13      9.02      0.00 
    8   23   13      9.46      0.00 
   10   23   13     15.91      0.00 
   12   23   13      2.87      0.00 
   14   23   13      6.54      0.00 
   16   23   13      7.43      0.00 
    1   24   13      5.18      0.00 
    3   24   13     -7.90      0.00 
    5   24   13     13.23      0.00 
    7   24   13     11.93      0.00 
    9   24   13     21.89      0.00 
   11   24   13      9.31      0.00 
   13   24   13      8.18      0.00 
   15   24   13    -13.32      0.00 
    2   25   13     -6.12      0.00 
    4   25   13     -3.86      0.00 
    6   25   13     -5.48      0.00 
    8   25   13     -3.16      0.00 
   10   25   13    -14.97      0.00 
   12   25   13      2.03      0.00 
   14   25   13      6.06      0.00 
    1   26   13      0.01      0.00 
    3   26   13    -13.10      0.00 
    5   26   13     -9.56      0.00 
    7   26   13    -10.70      0.00 
    9   26   13      1.79      0.00 
   11   26   13    -12.04      0.00 
   13   26   13     -9.74      0.00 
    2   27   13     -7.96      0.00 
    4   27   13     -1.41      0.00 
    6   27   13    -12.07      0.00 
    8   27   13     -5.27      0.00 
   10   27   13     -5.36      0.00 
   12   27   13      8.44      0.00 
   14   27   13    -15.63      0.00 
    1   28   13      2.12      0.00 
    3   28   13    -10.14      0.00 
    5   28   13      0.45      0.00 
    7   28   13     -2.41      0.00 
    9   28   13      5.63      0.00 
   11   28   13    -18.38      0.00 
   13   28   13     -9.15      0.00 
    2   29   13     -7.38      0.00 
    4   29   13     -9.27      0.00 
    6   29   13     -7.30      0.00 
    8   29   13     -1.33      0.00 
   10   29   13      3.37      0.00 
   12   29   13     17.04      0.00 
    1   30   13     -5.35      0.00 
    3   30   13    -11.91      0.00 
    5   30   13    -23.26      0.00 
    7   30   13     -7.22      0.00 
    9   30   13      3.64      0.00 
   11   30   13      4.65      0.00 
    2   31   13     -6.97      0.00 
    4   31   13     -3.02      0.00 
    6   31   13      3.24      0.00 
    8   31   13     -6.54      0.00 
   10   31   13      6.20      0.00 
    1   32   13      3.52      0.00 
    3   32   13     -4.71      0.00 
    5   32   13      9.00      0.00 
    7   32   13      8.92      0.00 
    9   32   13      5.47      0.00 
    2   33   13      5.22      0.00 
    4   33   13     -5.93      0.00 
    6   33   13     -5.26      0.00 
    8   33   13      4.30      0.00 
    1   34   13     -1.91      0.00 
    3   34   13     -6.96      0.00 
    5   34   13     14.07      0.00 
    7   34   13     -2.70      0.00 
    2   35   13     -6.74      0.00 
    4   35   13    -11.31      0.00 
    6   35   13      7.52      0.00 
    1   36   13     -8.93      0.00 
    3   36   13     -1.97      0.00 
    5   36   13    -10.21      0.00 
    0    0   14     94.07      0.00 
    2    0   14     -3.54      0.00 
    4    0   14     36.74      0.00 
    6    0   14    -11.83      0.00 
    8    0   14      4.34      0.00 
   10    0   14    -10.47      0.00 
   12    0   14     -7.09      0.00 
   14    0   14     -6.34      0.00 
   16    0   14      6.00      0.00 
   18    0   14     -3.14      0.00 
   20    0   14     -7.27      0.00 
    1    1   14     11.01      0.00 
    3    1   14     18.87      0.00 
    5    1   14     -0.84      0.00 
    7    1   14     -9.26      0.00 
    9    1   14     -6.39      0.00 
   11    1   14      5.16      0.00 
   13    1   14     -0.14      0.00 
   15    1   14     -9.31      0.00 
   17    1   14     16.94      0.00 
   19    1   14    -11.89      0.00 
    0    2   14     18.87      0.00 
    2    2   14    -23.98      0.00 
    4    2   14      7.14      0.00 
    6    2   14    -21.72      0.00 
    8    2   14      0.06      0.00 
   10    2   14    -16.78      0.00 
   12    2   14      8.59      0.00 
   14    2   14      6.81      0.00 
   16    2   14      0.49      0.00 
   18    2   14      2.56      0.00 
   20    2   14     21.44      0.00 
    1    3   14      4.15      0.00 
    3    3   14     11.02      0.00 
    5    3   14    -22.48      0.00 
    7    3   14     -7.54      0.00 
    9    3   14      0.76      0.00 
   11    3   14      5.38      0.00 
   13    3   14     -5.67      0.00 
   15    3   14    -11.10      0.00 
   17    3   14     20.81      0.00 
   19    3   14     -2.88      0.00 
    0    4   14     -9.78      0.00 
    2    4   14     -3.95      0.00 
    4    4   14    -25.12      0.00 
    6    4   14     -8.16      0.00 
    8    4   14      4.48      0.00 
   10    4   14    -17.41      0.00 
   12    4   14     16.00      0.00 
   14    4   14      0.39      0.00 
   16    4   14      0.67      0.00 
   18    4   14     -0.30      0.00 
   20    4   14    -12.03      0.00 
    1    5   14      5.11      0.00 
    3    5   14    -10.82      0.00 
    5    5   14     -5.02      0.00 
    7    5   14    -21.47      0.00 
    9    5   14     -0.57      0.00 
   11    5   14     -4.59      0.00 
   13    5   14     -7.28      0.00 
   15    5   14      4.45      0.00 
   17    5   14      7.51      0.00 
   19    5   14      2.20      0.00 
    0    6   14    -14.42      0.00 
    2    6   14     15.62      0.00 
    4    6   14     -7.52      0.00 
    6    6   14     -6.32      0.00 
    8    6   14     -3.45      0.00 
   10    6   14     -2.37      0.00 
   12    6   14      1.04      0.00 
   14    6   14      2.39      0.00 
   16    6   14      4.33      0.00 
   18    6   14     -4.59      0.00 
   20    6   14      3.49      0.00 
    1    7   14     10.79      0.00 
    3    7   14     -8.14      0.00 
    5    7   14     11.11      0.00 
    7    7   14    -13.70      0.00 
    9    7   14     -5.36      0.00 
   11    7   14      0.04      0.00 
   13    7   14      3.09      0.00 
   15    7   14      2.76      0.00 
   17    7   14      7.17      0.00 
   19    7   14     14.09      0.00 
    0    8   14     20.14      0.00 
    2    8   14     11.25      0.00 
    4    8   14      7.35      0.00 
    6    8   14      3.55      0.00 
    8    8   14     -1.90      0.00 
   10    8   14      1.82      0.00 
   12    8   14     -6.87      0.00 
   14    8   14     -2.80      0.00 
   16    8   14      8.33      0.00 
   18    8   14    -11.21      0.00 
   20    8   14     -1.39      0.00 
    1    9   14     30.31      0.00 
    3    9   14      3.07      0.00 
    5    9   14      3.82      0.00 
    7    9   14     10.55      0.00 
    9    9   14     -3.21      0.00 
   11    9   14     -6.70      0.00 
   13    9   14    -12.80      0.00 
   15    9   14     -7.51      0.00 
   17    9   14      6.23      0.00 
   19    9   14      9.09      0.00 
    0   10   14     13.21      0.00 
    2   10   14     -6.90      0.00 
    4   10   14     -9.07      0.00 
    6   10   14     -5.57      0.00 
    8   10   14    -19.31      0.00 
   10   10   14     -7.90      0.00 
   12   10   14     13.07      0.00 
   14   10   14     11.26      0.00 
   16   10   14     -2.53      0.00 
   18   10   14    -17.20      0.00 
    1   11   14     -2.24      0.00 
    3   11   14     -7.80      0.00 
    5   11   14    -20.19      0.00 
    7   11   14      2.96      0.00 
    9   11   14    -13.87      0.00 
   11   11   14      2.37      0.00 
   13   11   14    -13.83      0.00 
   15   11   14      4.43      0.00 
   17   11   14     -3.37      0.00 
   19   11   14      4.73      0.00 
    0   12   14     14.18      0.00 
    2   12   14      2.15      0.00 
    4   12   14     -4.92      0.00 
    6   12   14      4.32      0.00 
    8   12   14     -6.22      0.00 
   10   12   14     -4.85      0.00 
   12   12   14    -17.18      0.00 
   14   12   14     -4.35      0.00 
   16   12   14      1.80      0.00 
   18   12   14     -8.97      0.00 
    1   13   14     10.41      0.00 
    3   13   14     -0.17      0.00 
    5   13   14     -7.79      0.00 
    7   13   14     18.43      0.00 
    9   13   14    -14.06      0.00 
   11   13   14      0.17      0.00 
   13   13   14     -5.83      0.00 
   15   13   14      5.45      0.00 
   17   13   14      8.42      0.00 
   19   13   14     29.17      0.00 
    0   14   14     28.93      0.00 
    2   14   14     -2.06      0.00 
    4   14   14    -11.44      0.00 
    6   14   14      0.48      0.00 
    8   14   14     -5.57      0.00 
   10   14   14      0.39      0.00 
   12   14   14     -7.15      0.00 
   14   14   14      1.85      0.00 
   16   14   14      4.37      0.00 
   18   14   14      6.37      0.00 
    1   15   14     -3.60      0.00 
    3   15   14      1.20      0.00 
    5   15   14     -9.97      0.00 
    7   15   14     11.73      0.00 
    9   15   14    -10.35      0.00 
   11   15   14      3.82      0.00 
   13   15   14      0.67      0.00 
   15   15   14     12.06      0.00 
   17   15   14     -1.82      0.00 
    0   16   14     17.19      0.00 
    2   16   14     -6.15      0.00 
    4   16   14     -5.33      0.00 
    6   16   14      6.61      0.00 
    8   16   14     -6.19      0.00 
   10   16   14     -1.80      0.00 
   12   16   14     -8.65      0.00 
   14   16   14      3.24      0.00 
   16   16   14     -7.68      0.00 
   18   16   14     -5.44      0.00 
    1   17   14     21.59      0.00 
    3   17   14      3.37      0.00 
    5   17   14     -2.44      0.00 
    7   17   14      7.91      0.00 
    9   17   14     -3.13      0.00 
   11   17   14      2.23      0.00 
   13   17   14      1.78      0.00 
   15   17   14     14.09      0.00 
   17   17   14      2.45      0.00 
    0   18   14      9.62      0.00 
    2   18   14     12.05      0.00 
    4   18   14    -11.10      0.00 
    6   18   14      0.22      0.00 
    8   18   14    -25.95      0.00 
   10   18   14     -1.26      0.00 
   12   18   14    -10.26      0.00 
   14   18   14      3.14      0.00 
   16   18   14     -1.68      0.00 
    1   19   14     -7.58      0.00 
    3   19   14     -5.92      0.00 
    5   19   14    -11.28      0.00 
    7   19   14    -10.45      0.00 
    9   19   14     -1.86      0.00 
   11   19   14      3.63      0.00 
   13   19   14     -0.29      0.00 
   15   19   14     15.51      0.00 
   17   19   14     -5.49      0.00 
    0   20   14    -11.94      0.00 
    2   20   14     -1.73      0.00 
    4   20   14    -14.23      0.00 
    6   20   14     12.55      0.00 
    8   20   14      0.94      0.00 
   10   20   14     -5.05      0.00 
   12   20   14     -0.16      0.00 
   14   20   14     14.91      0.00 
   16   20   14     14.17      0.00 
    1   21   14     -3.87      0.00 
    3   21   14      3.50      0.00 
    5   21   14      1.07      0.00 
    7   21   14     -4.08      0.00 
    9   21   14     -1.89      0.00 
   11   21   14     -8.51      0.00 
   13   21   14     -1.99      0.00 
   15   21   14      4.56      0.00 
    0   22   14     -4.68      0.00 
    2   22   14     13.50      0.00 
    4   22   14     -5.09      0.00 
    6   22   14     22.27      0.00 
    8   22   14      4.58      0.00 
   10   22   14      3.47      0.00 
   12   22   14      0.19      0.00 
   14   22   14     -3.23      0.00 
   16   22   14     -5.11      0.00 
    1   23   14      8.52      0.00 
    3   23   14      1.69      0.00 
    5   23   14     -0.56      0.00 
    7   23   14     -0.69      0.00 
    9   23   14    -16.37      0.00 
   11   23   14     -3.09      0.00 
   13   23   14    -12.01      0.00 
   15   23   14     -1.45      0.00 
    0   24   14      6.21      0.00 
    2   24   14      5.72      0.00 
    4   24   14     -5.43      0.00 
    6   24   14     -2.29      0.00 
    8   24   14     -7.25      0.00 
   10   24   14      0.83      0.00 
   12   24   14    -26.30      0.00 
   14   24   14      1.94      0.00 
    1   25   14      2.91      0.00 
    3   25   14      0.61      0.00 
    5   25   14     -2.03      0.00 
    7   25   14     -1.69      0.00 
    9   25   14    -10.40      0.00 
   11   25   14     -2.18      0.00 
   13   25   14      7.71      0.00 
   15   25   14      0.01      0.00 
    0   26   14      4.94      0.00 
    2   26   14     -4.93      0.00 
    4   26   14     -7.76      0.00 
    6   26   14     -6.38      0.00 
    8   26   14      6.74      0.00 
   10   26   14      4.94      0.00 
   12   26   14    -20.71      0.00 
   14   26   14     -3.00      0.00 
    1   27   14     -9.32      0.00 
    3   27   14      0.73      0.00 
    5   27   14     -6.71      0.00 
    7   27   14     -1.52      0.00 
    9   27   14    -29.31      0.00 
   11   27   14      3.64      0.00 
   13   27   14     13.53      0.00 
    0   28   14      1.48      0.00 
    2   28   14     -5.09      0.00 
    4   28   14     -5.90      0.00 
    6   28   14      2.43      0.00 
    8   28   14      5.07      0.00 
   10   28   14     -3.64      0.00 
   12   28   14    -17.72      0.00 
    1   29   14     -3.96      0.00 
    3   29   14      8.04      0.00 
    5   29   14      5.21      0.00 
    7   29   14     18.40      0.00 
    9   29   14      4.84      0.00 
   11   29   14     16.39      0.00 
    0   30   14      6.55      0.00 
    2   30   14     11.74      0.00 
    4   30   14     -6.11      0.00 
    6   30   14     -5.42      0.00 
    8   30   14     -8.17      0.00 
   10   30   14     -8.32      0.00 
    1   31   14      2.30      0.00 
    3   31   14      8.87      0.00 
    5   31   14     16.60      0.00 
    7   31   14      7.68      0.00 
    9   31   14     -4.21      0.00 
    0   32   14      1.31      0.00 
    2   32   14     -2.10      0.00 
    4   32   14     -2.92      0.00 
    6   32   14      6.16      0.00 
    8   32   14     -2.38      0.00 
   10   32   14     22.60      0.00 
    1   33   14      2.46      0.00 
    3   33   14     -2.02      0.00 
    5   33   14    -13.63      0.00 
    7   33   14      8.28      0.00 
    0   34   14     21.62      0.00 
    2   34   14     -5.90      0.00 
    4   34   14      9.98      0.00 
    6   34   14      2.23      0.00 
    1   35   14     -9.30      0.00 
    3   35   14     10.82      0.00 
    5   35   14     -6.78      0.00 
    0   36   14     15.86      0.00 
    2   36   14    -13.01      0.00 
    2    1   15     -3.47      0.00 
    4    1   15     -2.84      0.00 
    6    1   15    -27.46      0.00 
    8    1   15      8.62      0.00 
   10    1   15     -9.74      0.00 
   12    1   15     -0.29      0.00 
   14    1   15      3.33      0.00 
   16    1   15     -2.49      0.00 
   18    1   15     16.89      0.00 
   20    1   15      3.97      0.00 
    1    2   15    -16.48      0.00 
    3    2   15    -32.28      0.00 
    5    2   15    -15.63      0.00 
    7    2   15    -24.41      0.00 
    9    2   15     -2.30      0.00 
   11    2   15     -4.46      0.00 
   13    2   15      4.41      0.00 
   15    2   15      0.12      0.00 
   17    2   15      7.61      0.00 
   19    2   15      6.56      0.00 
    2    3   15      2.85      0.00 
    4    3   15    -14.88      0.00 
    6    3   15    -25.53      0.00 
    8    3   15      7.66      0.00 
   10    3   15    -18.49      0.00 
   12    3   15      9.39      0.00 
   14    3   15     -4.87      0.00 
   16    3   15      4.87      0.00 
   18    3   15      6.82      0.00 
   20    3   15     18.95      0.00 
    1    4   15      1.38      0.00 
    3    4   15    -16.57      0.00 
    5    4   15    -13.43      0.00 
    7    4   15      0.17      0.00 
    9    4   15    -12.63      0.00 
   11    4   15      5.07      0.00 
   13    4   15    -11.81      0.00 
   15    4   15     -0.38      0.00 
   17    4   15     -5.14      0.00 
   19    4   15      6.46      0.00 
    2    5   15      8.31      0.00 
    4    5   15     -4.35      0.00 
    6    5   15      5.22      0.00 
    8    5   15    -20.87      0.00 
   10    5   15     -3.06      0.00 
   12    5   15      3.35      0.00 
   14    5   15    -11.81      0.00 
   16    5   15      6.95      0.00 
   18    5   15     -6.55      0.00 
   20    5   15     30.82      0.00 
    1    6   15      8.54      0.00 
    3    6   15     21.56      0.00 
    5    6   15    -10.65      0.00 
    7    6   15     15.66      0.00 
    9    6   15     -9.72      0.00 
   11    6   15      5.71      0.00 
   13    6   15     -6.69      0.00 
   15    6   15     14.16      0.00 
   17    6   15     -1.00      0.00 
   19    6   15      8.50      0.00 
    2    7   15      8.21      0.00 
    4    7   15     21.61      0.00 
    6    7   15     10.15      0.00 
    8    7   15    -12.16      0.00 
   10    7   15      4.57      0.00 
   12    7   15     14.17      0.00 
   14    7   15    -10.80      0.00 
   16    7   15     -9.28      0.00 
   18    7   15     -1.02      0.00 
    1    8   15     -1.77      0.00 
    3    8   15      0.54      0.00 
    5    8   15    -22.53      0.00 
    7    8   15     18.72      0.00 
    9    8   15     -0.92      0.00 
   11    8   15     12.96      0.00 
   13    8   15     -2.81      0.00 
   15    8   15     14.19      0.00 
   17    8   15     -2.20      0.00 
   19    8   15     -5.48      0.00 
    2    9   15     -5.64      0.00 
    4    9   15      1.97      0.00 
    6    9   15     -5.07      0.00 
    8    9   15     14.38      0.00 
   10    9   15      7.50      0.00 
   12    9   15      9.60      0.00 
   14    9   15      3.05      0.00 
   16    9   15     -7.14      0.00 
   18    9   15      7.28      0.00 
    1   10   15     -2.99      0.00 
    3   10   15     15.09      0.00 
    5   10   15     -5.54      0.00 
    7   10   15     30.10      0.00 
    9   10   15     -2.12      0.00 
   11   10   15     15.18      0.00 
   13   10   15      3.88      0.00 
   15   10   15     15.50      0.00 
   17   10   15    -11.91      0.00 
   19   10   15      2.71      0.00 
    2   11   15      6.29      0.00 
    4   11   15      7.01      0.00 
    6   11   15      0.77      0.00 
    8   11   15      6.40      0.00 
   10   11   15      2.57      0.00 
   12   11   15      4.09      0.00 
   14   11   15    -13.31      0.00 
   16   11   15      8.88      0.00 
   18   11   15     -3.66      0.00 
    1   12   15    -12.31      0.00 
    3   12   15     -3.77      0.00 
    5   12   15     -4.93      0.00 
    7   12   15     -5.99      0.00 
    9   12   15    -42.50      0.00 
   11   12   15     -2.60      0.00 
   13   12   15     -5.99      0.00 
   15   12   15     14.20      0.00 
   17   12   15      2.55      0.00 
   19   12   15     22.55      0.00 
    2   13   15    -11.87      0.00 
    4   13   15    -18.30      0.00 
    6   13   15    -19.29      0.00 
    8   13   15     -8.21      0.00 
   10   13   15      2.58      0.00 
   12   13   15     -1.73      0.00 
   14   13   15      1.15      0.00 
   16   13   15    -14.76      0.00 
   18   13   15     -6.13      0.00 
    1   14   15     -6.23      0.00 
    3   14   15     -6.24      0.00 
    5   14   15     11.25      0.00 
    7   14   15    -13.22      0.00 
    9   14   15    -23.80      0.00 
   11   14   15     -1.63      0.00 
   13   14   15    -12.21      0.00 
   15   14   15      9.55      0.00 
   17   14   15      3.71      0.00 
    2   15   15      1.09      0.00 
    4   15   15      0.34      0.00 
    6   15   15    -10.71      0.00 
    8   15   15     -6.03      0.00 
   10   15   15     -3.14      0.00 
   12   15   15      9.19      0.00 
   14   15   15      6.69      0.00 
   16   15   15     -3.45      0.00 
   18   15   15      3.35      0.00 
    1   16   15     -6.45      0.00 
    3   16   15     -5.93      0.00 
    5   16   15     11.03      0.00 
    7   16   15      4.92      0.00 
    9   16   15     -4.20      0.00 
   11   16   15      3.61      0.00 
   13   16   15      6.11      0.00 
   15   16   15     -1.75      0.00 
   17   16   15     -1.31      0.00 
    2   17   15     -9.13      0.00 
    4   17   15      7.27      0.00 
    6   17   15    -11.87      0.00 
    8   17   15      6.84      0.00 
   10   17   15      1.86      0.00 
   12   17   15      0.41      0.00 
   14   17   15    -12.20      0.00 
   16   17   15     -5.35      0.00 
    1   18   15      0.74      0.00 
    3   18   15      4.15      0.00 
    5   18   15     16.36      0.00 
    7   18   15     15.55      0.00 
    9   18   15     10.67      0.00 
   11   18   15     19.74      0.00 
   13   18   15     14.76      0.00 
   15   18   15     16.28      0.00 
   17   18   15      0.78      0.00 
    2   19   15     -3.90      0.00 
    4   19   15     18.84      0.00 
    6   19   15      9.92      0.00 
    8   19   15      7.75      0.00 
   10   19   15     14.15      0.00 
   12   19   15     -1.52      0.00 
   14   19   15      1.05      0.00 
   16   19   15    -30.18      0.00 
    1   20   15      3.06      0.00 
    3   20   15     -0.37      0.00 
    5   20   15      1.39      0.00 
    7   20   15      5.12      0.00 
    9   20   15    -11.26      0.00 
   11   20   15     -2.97      0.00 
   13   20   15      3.05      0.00 
   15   20   15      6.47      0.00 
    2   21   15     -9.81      0.00 
    4   21   15      2.92      0.00 
    6   21   15      1.31      0.00 
    8   21   15    -23.32      0.00 
   10   21   15     -4.92      0.00 
   12   21   15    -14.77      0.00 
   14   21   15      6.94      0.00 
   16   21   15    -11.80      0.00 
    1   22   15     -3.97      0.00 
    3   22   15     -4.34      0.00 
    5   22   15     -1.39      0.00 
    7   22   15     -7.43      0.00 
    9   22   15     -6.24      0.00 
   11   22   15      1.34      0.00 
   13   22   15     -5.79      0.00 
   15   22   15     -2.64      0.00 
    2   23   15      5.11      0.00 
    4   23   15     -7.84      0.00 
    6   23   15      3.20      0.00 
    8   23   15    -17.02      0.00 
   10   23   15     -0.72      0.00 
   12   23   15     -8.92      0.00 
   14   23   15      7.56      0.00 
    1   24   15      1.99      0.00 
    3   24   15     -1.45      0.00 
    5   24   15     10.55      0.00 
    7   24   15    -12.38      0.00 
    9   24   15    -13.19      0.00 
   11   24   15     -3.62      0.00 
   13   24   15     -9.95      0.00 
   15   24   15     -8.12      0.00 
    2   25   15     -1.76      0.00 
    4   25   15     -1.85      0.00 
    6   25   15     -5.08      0.00 
    8   25   15     -6.28      0.00 
   10   25   15     -4.66      0.00 
   12   25   15     -5.83      0.00 
   14   25   15     15.58      0.00 
    1   26   15      6.09      0.00 
    3   26   15     -6.79      0.00 
    5   26   15      1.39      0.00 
    7   26   15     -8.52      0.00 
    9   26   15     -0.28      0.00 
   11   26   15     -1.31      0.00 
   13   26   15     -2.69      0.00 
    2   27   15      0.46      0.00 
    4   27   15      4.95      0.00 
    6   27   15      0.95      0.00 
    8   27   15      4.52      0.00 
   10   27   15      8.10      0.00 
   12   27   15      6.87      0.00 
    1   28   15     15.08      0.00 
    3   28   15      3.47      0.00 
    5   28   15     22.63      0.00 
    7   28   15      0.41      0.00 
    9   28   15      4.58      0.00 
   11   28   15     -4.50      0.00 
    2   29   15      2.37      0.00 
    4   29   15      3.73      0.00 
    6   29   15      3.68      0.00 
    8   29   15     -6.23      0.00 
   10   29   15     -8.82      0.00 
   12   29   15     -7.25      0.00 
    1   30   15      8.02      0.00 
    3   30   15     -3.30      0.00 
    5   30   15      1.18      0.00 
    7   30   15     -1.11      0.00 
    9   30   15      2.00      0.00 
   11   30   15     -4.73      0.00 
    2   31   15     -2.54      0.00 
    4   31   15      5.66      0.00 
    6   31   15     16.71      0.00 
    8   31   15     -3.62      0.00 
   10   31   15      1.76      0.00 
    1   32   15     16.10      0.00 
    3   32   15     -5.81      0.00 
    5   32   15      7.05      0.00 
    7   32   15     -2.01      0.00 
    9   32   15      5.42      0.00 
    2   33   15      2.60      0.00 
    4   33   15      0.49      0.00 
    6   33   15    -12.53      0.00 
    8   33   15    -14.19      0.00 
    1   34   15      9.51      0.00 
    3   34   15     -7.88      0.00 
    5   34   15      2.25      0.00 
    2   35   15      0.06      0.00 
    4   35   15     -2.65      0.00 
    1   36   15     13.59      0.00 
    0    0   16    -21.93      0.00 
    2    0   16    -63.69      0.00 
    4    0   16     -6.65      0.00 
    6    0   16     -1.45      0.00 
    8    0   16     16.70      0.00 
   10    0   16      3.65      0.00 
   12    0   16      6.63      0.00 
   14    0   16     -5.55      0.00 
   16    0   16     -1.68      0.00 
   18    0   16    -45.67      0.00 
    1    1   16    -59.33      0.00 
    3    1   16    -16.83      0.00 
    5    1   16     15.50      0.00 
    7    1   16      8.70      0.00 
    9    1   16      5.48      0.00 
   11    1   16      0.79      0.00 
   13    1   16      4.37      0.00 
   15    1   16      4.96      0.00 
   17    1   16      3.63      0.00 
   19    1   16      6.83      0.00 
    0    2   16    -33.42      0.00 
    2    2   16    -45.75      0.00 
    4    2   16     18.68      0.00 
    6    2   16      3.82      0.00 
    8    2   16     18.72      0.00 
   10    2   16     -4.46      0.00 
   12    2   16     11.12      0.00 
   14    2   16     -6.61      0.00 
   16    2   16      4.98      0.00 
   18    2   16    -16.68      0.00 
    1    3   16    -15.43      0.00 
    3    3   16     24.86      0.00 
    5    3   16     14.71      0.00 
    7    3   16     16.04      0.00 
    9    3   16      9.47      0.00 
   11    3   16     -6.31      0.00 
   13    3   16     -1.80      0.00 
   15    3   16     -6.01      0.00 
   17    3   16      1.84      0.00 
   19    3   16    -10.01      0.00 
    0    4   16     10.90      0.00 
    2    4   16      9.52      0.00 
    4    4   16     30.17      0.00 
    6    4   16     19.96      0.00 
    8    4   16     18.26      0.00 
   10    4   16    -12.36      0.00 
   12    4   16     -2.71      0.00 
   14    4   16    -11.29      0.00 
   16    4   16     -0.90      0.00 
   18    4   16     -8.28      0.00 
    1    5   16    -18.69      0.00 
    3    5   16      4.57      0.00 
    5    5   16     18.85      0.00 
    7    5   16      9.25      0.00 
    9    5   16      4.20      0.00 
   11    5   16     -2.55      0.00 
   13    5   16      4.84      0.00 
   15    5   16     -3.89      0.00 
   17    5   16    -10.50      0.00 
   19    5   16      0.88      0.00 
    0    6   16    -27.50      0.00 
    2    6   16    -21.13      0.00 
    4    6   16      7.12      0.00 
    6    6   16      2.53      0.00 
    8    6   16     11.23      0.00 
   10    6   16     -1.05      0.00 
   12    6   16    -12.85      0.00 
   14    6   16     -8.90      0.00 
   16    6   16      2.91      0.00 
   18    6   16     -7.68      0.00 
    1    7   16    -43.74      0.00 
    3    7   16    -14.68      0.00 
    5    7   16     12.06      0.00 
    7    7   16      0.03      0.00 
    9    7   16      2.89      0.00 
   11    7   16     -2.71      0.00 
   13    7   16     -0.43      0.00 
   15    7   16     -9.27      0.00 
   17    7   16     -8.14      0.00 
   19    7   16     -0.93      0.00 
    0    8   16    -37.07      0.00 
    2    8   16    -28.34      0.00 
    4    8   16      7.55      0.00 
    6    8   16     -6.46      0.00 
    8    8   16     12.23      0.00 
   10    8   16      0.88      0.00 
   12    8   16      3.86      0.00 
   14    8   16     -2.50      0.00 
   16    8   16     -4.91      0.00 
   18    8   16    -20.11      0.00 
    1    9   16    -31.54      0.00 
    3    9   16      2.14      0.00 
    5    9   16      6.93      0.00 
    7    9   16     11.17      0.00 
    9    9   16      4.40      0.00 
   11    9   16     -6.16      0.00 
   13    9   16     -8.03      0.00 
   15    9   16     -1.73      0.00 
   17    9   16     19.51      0.00 
   19    9   16     -5.08      0.00 
    0   10   16    -22.41      0.00 
    2   10   16    -17.10      0.00 
    4   10   16      7.88      0.00 
    6   10   16      3.37      0.00 
    8   10   16     -1.06      0.00 
   10   10   16     -3.59      0.00 
   12   10   16     15.21      0.00 
   14   10   16      2.65      0.00 
   16   10   16     -3.83      0.00 
   18   10   16     -5.92      0.00 
    1   11   16    -45.28      0.00 
    3   11   16      5.46      0.00 
    5   11   16     -4.94      0.00 
    7   11   16     19.92      0.00 
    9   11   16      8.90      0.00 
   11   11   16     13.57      0.00 
   13   11   16      3.28      0.00 
   15   11   16      4.38      0.00 
   17   11   16      7.17      0.00 
   19   11   16     11.57      0.00 
    0   12   16    -42.41      0.00 
    2   12   16     -5.77      0.00 
    4   12   16      4.72      0.00 
    6   12   16     17.36      0.00 
    8   12   16      7.99      0.00 
   10   12   16      9.27      0.00 
   12   12   16     -5.43      0.00 
   14   12   16     -3.88      0.00 
   16   12   16      6.19      0.00 
   18   12   16    -23.55      0.00 
    1   13   16     -8.68      0.00 
    3   13   16      7.44      0.00 
    5   13   16     21.70      0.00 
    7   13   16      9.27      0.00 
    9   13   16     -1.66      0.00 
   11   13   16     17.35      0.00 
   13   13   16     -1.21      0.00 
   15   13   16     -3.11      0.00 
   17   13   16     -5.32      0.00 
    0   14   16    -36.87      0.00 
    2   14   16     -3.84      0.00 
    4   14   16      2.20      0.00 
    6   14   16    -13.09      0.00 
    8   14   16     -8.79      0.00 
   10   14   16      3.32      0.00 
   12   14   16     -3.98      0.00 
   14   14   16      2.42      0.00 
   16   14   16     -0.48      0.00 
   18   14   16    -17.08      0.00 
    1   15   16    -17.60      0.00 
    3   15   16     -0.19      0.00 
    5   15   16     -9.60      0.00 
    7   15   16    -10.25      0.00 
    9   15   16     -4.07      0.00 
   11   15   16     -2.27      0.00 
   13   15   16    -13.82      0.00 
   15   15   16      6.08      0.00 
   17   15   16    -13.49      0.00 
    0   16   16    -26.51      0.00 
    2   16   16    -11.91      0.00 
    4   16   16      9.59      0.00 
    6   16   16     11.03      0.00 
    8   16   16      4.67      0.00 
   10   16   16      3.21      0.00 
   12   16   16     -0.52      0.00 
   14   16   16     -1.81      0.00 
   16   16   16      0.55      0.00 
    1   17   16    -14.34      0.00 
    3   17   16     11.67      0.00 
    5   17   16     -0.54      0.00 
    7   17   16     13.83      0.00 
    9   17   16     -6.43      0.00 
   11   17   16      1.60      0.00 
   13   17   16     -7.15      0.00 
   15   17   16      1.95      0.00 
   17   17   16     -2.34      0.00 
    0   18   16    -12.19      0.00 
    2   18   16     -0.24      0.00 
    4   18   16      1.12      0.00 
    6   18   16     18.63      0.00 
    8   18   16      1.35      0.00 
   10   18   16     12.44      0.00 
   12   18   16    -12.56      0.00 
   14   18   16      9.07      0.00 
   16   18   16     -0.25      0.00 
    1   19   16    -18.85      0.00 
    3   19   16     10.97      0.00 
    5   19   16     -0.28      0.00 
    7   19   16      7.01      0.00 
    9   19   16     -8.59      0.00 
   11   19   16     24.75      0.00 
   13   19   16    -18.44      0.00 
   15   19   16    -12.64      0.00 
    0   20   16     12.13      0.00 
    2   20   16      2.04      0.00 
    4   20   16     -8.92      0.00 
    6   20   16      5.16      0.00 
    8   20   16     -1.72      0.00 
   10   20   16     -1.59      0.00 
   12   20   16    -10.30      0.00 
   14   20   16     -0.16      0.00 
   16   20   16     -9.75      0.00 
    1   21   16    -14.31      0.00 
    3   21   16      8.55      0.00 
    5   21   16     -9.18      0.00 
    7   21   16     -3.24      0.00 
    9   21   16     -2.41      0.00 
   11   21   16      3.61      0.00 
   13   21   16     -7.40      0.00 
   15   21   16     -5.64      0.00 
    0   22   16     -6.14      0.00 
    2   22   16     -1.30      0.00 
    4   22   16    -12.14      0.00 
    6   22   16      2.43      0.00 
    8   22   16     -1.56      0.00 
   10   22   16     13.99      0.00 
   12   22   16     11.54      0.00 
   14   22   16    -10.91      0.00 
    1   23   16    -21.37      0.00 
    3   23   16    -13.22      0.00 
    5   23   16     -6.97      0.00 
    7   23   16      6.32      0.00 
    9   23   16     -0.68      0.00 
   11   23   16      5.19      0.00 
   13   23   16     13.59      0.00 
   15   23   16     23.60      0.00 
    0   24   16    -21.53      0.00 
    2   24   16    -12.17      0.00 
    4   24   16     -4.62      0.00 
    6   24   16     -5.12      0.00 
    8   24   16      0.27      0.00 
   10   24   16     -1.48      0.00 
   12   24   16    -12.69      0.00 
   14   24   16     -1.04      0.00 
    1   25   16     -6.98      0.00 
    3   25   16      1.99      0.00 
    5   25   16     -2.65      0.00 
    7   25   16      5.18      0.00 
    9   25   16      5.47      0.00 
   11   25   16      8.06      0.00 
   13   25   16      0.27      0.00 
    0   26   16      6.24      0.00 
    2   26   16      9.24      0.00 
    4   26   16     10.28      0.00 
    6   26   16      3.50      0.00 
    8   26   16      2.08      0.00 
   10   26   16     -4.44      0.00 
   12   26   16     14.27      0.00 
    1   27   16      6.41      0.00 
    3   27   16      0.52      0.00 
    5   27   16     -5.37      0.00 
    7   27   16      0.62      0.00 
    9   27   16     -7.79      0.00 
   11   27   16      2.85      0.00 
   13   27   16    -22.03      0.00 
    0   28   16      9.40      0.00 
    2   28   16     13.68      0.00 
    4   28   16      7.50      0.00 
    6   28   16     13.52      0.00 
    8   28   16     10.20      0.00 
   10   28   16     -8.86      0.00 
   12   28   16     -2.02      0.00 
    1   29   16      5.10      0.00 
    3   29   16      4.23      0.00 
    5   29   16     -1.55      0.00 
    7   29   16     -2.72      0.00 
    9   29   16     17.02      0.00 
   11   29   16     12.60      0.00 
    0   30   16    -18.54      0.00 
    2   30   16     -9.39      0.00 
    4   30   16     -7.65      0.00 
    6   30   16     -0.80      0.00 
    8   30   16      0.32      0.00 
   10   30   16    -14.99      0.00 
    1   31   16     -6.53      0.00 
    3   31   16     -6.44      0.00 
    5   31   16     -4.77      0.00 
    7   31   16    -15.30      0.00 
    9   31   16     12.31      0.00 
    0   32   16     -3.27      0.00 
    2   32   16    -10.34      0.00 
    4   32   16     -8.91      0.00 
    6   32   16    -11.41      0.00 
    8   32   16     -3.67      0.00 
    1   33   16     -3.48      0.00 
    3   33   16    -10.98      0.00 
    5   33   16     18.26      0.00 
    7   33   16      0.05      0.00 
    0   34   16      5.04      0.00 
    2   34   16     -8.02      0.00 
    4   34   16    -15.07      0.00 
    1   35   16     -3.62      0.00 
    3   35   16      2.65      0.00 
    2    1   17     -5.07      0.00 
    4    1   17     14.28      0.00 
    6    1   17    -11.71      0.00 
    8    1   17     -2.45      0.00 
   10    1   17    -12.96      0.00 
   12    1   17    -13.42      0.00 
   14    1   17      9.56      0.00 
   16    1   17     -7.98      0.00 
   18    1   17     -0.67      0.00 
    1    2   17      6.29      0.00 
    3    2   17      5.06      0.00 
    5    2   17     20.88      0.00 
    7    2   17    -17.70      0.00 
    9    2   17     -0.71      0.00 
   11    2   17     -7.22      0.00 
   13    2   17    -13.23      0.00 
   15    2   17     -1.02      0.00 
   17    2   17     -7.62      0.00 
   19    2   17    -10.67      0.00 
    2    3   17     -6.44      0.00 
    4    3   17     12.61      0.00 
    6    3   17    -12.26      0.00 
    8    3   17      2.92      0.00 
   10    3   17     -8.77      0.00 
   12    3   17     -2.64      0.00 
   14    3   17     -5.46      0.00 
   16    3   17      4.50      0.00 
   18    3   17     -3.60      0.00 
    1    4   17      4.79      0.00 
    3    4   17      1.71      0.00 
    5    4   17     -1.60      0.00 
    7    4   17      1.90      0.00 
    9    4   17     -8.14      0.00 
   11    4   17      1.88      0.00 
   13    4   17     -6.24      0.00 
   15    4   17      8.16      0.00 
   17    4   17    -16.02      0.00 
   19    4   17    -13.08      0.00 
    2    5   17     -5.81      0.00 
    4    5   17      5.72      0.00 
    6    5   17     -0.68      0.00 
    8    5   17      3.10      0.00 
   10    5   17     -1.18      0.00 
   12    5   17     -0.32      0.00 
   14    5   17    -16.35      0.00 
   16    5   17      7.36      0.00 
   18    5   17    -11.52      0.00 
    1    6   17     -9.23      0.00 
    3    6   17     20.67      0.00 
    5    6   17     -4.40      0.00 
    7    6   17     26.87      0.00 
    9    6   17      8.77      0.00 
   11    6   17     -0.11      0.00 
   13    6   17      8.03      0.00 
   15    6   17     16.25      0.00 
   17    6   17      9.13      0.00 
   19    6   17     14.31      0.00 
    2    7   17      8.20      0.00 
    4    7   17     15.98      0.00 
    6    7   17      6.10      0.00 
    8    7   17      6.80      0.00 
   10    7   17     -7.48      0.00 
   12    7   17      5.08      0.00 
   14    7   17    -14.63      0.00 
   16    7   17     -2.63      0.00 
   18    7   17      6.65      0.00 
    1    8   17    -15.04      0.00 
    3    8   17     24.50      0.00 
    5    8   17      4.88      0.00 
    7    8   17      7.84      0.00 
    9    8   17      7.98      0.00 
   11    8   17      6.28      0.00 
   13    8   17     -3.50      0.00 
   15    8   17      7.39      0.00 
   17    8   17     -8.11      0.00 
   19    8   17     -4.97      0.00 
    2    9   17      2.71      0.00 
    4    9   17     11.15      0.00 
    6    9   17     -0.67      0.00 
    8    9   17      7.35      0.00 
   10    9   17     -8.12      0.00 
   12    9   17     -3.69      0.00 
   14    9   17     -2.14      0.00 
   16    9   17     -1.26      0.00 
   18    9   17      3.50      0.00 
    1   10   17     -8.34      0.00 
    3   10   17     29.69      0.00 
    5   10   17     -0.52      0.00 
    7   10   17     10.14      0.00 
    9   10   17     -6.76      0.00 
   11   10   17     -6.57      0.00 
   13   10   17     -8.83      0.00 
   15   10   17      1.57      0.00 
   17   10   17      1.51      0.00 
    2   11   17     14.53      0.00 
    4   11   17     14.16      0.00 
    6   11   17      2.54      0.00 
    8   11   17     -2.22      0.00 
   10   11   17     -4.26      0.00 
   12   11   17     -4.44      0.00 
   14   11   17    -28.11      0.00 
   16   11   17     12.10      0.00 
   18   11   17    -13.82      0.00 
    1   12   17     -0.85      0.00 
    3   12   17     12.79      0.00 
    5   12   17    -14.73      0.00 
    7   12   17      6.92      0.00 
    9   12   17     -4.42      0.00 
   11   12   17     -4.56      0.00 
   13   12   17    -12.44      0.00 
   15   12   17     -5.51      0.00 
   17   12   17     -6.04      0.00 
    2   13   17      6.37      0.00 
    4   13   17     -4.45      0.00 
    6   13   17     -6.46      0.00 
    8   13   17     -4.84      0.00 
   10   13   17     -6.25      0.00 
   12   13   17      0.56      0.00 
   14   13   17      0.75      0.00 
   16   13   17     -9.74      0.00 
   18   13   17    -11.33      0.00 
    1   14   17     11.36      0.00 
    3   14   17     13.77      0.00 
    5   14   17     -2.82      0.00 
    7   14   17      3.20      0.00 
    9   14   17      0.45      0.00 
   11   14   17     -5.06      0.00 
   13   14   17    -16.46      0.00 
   15   14   17      2.85      0.00 
   17   14   17      5.14      0.00 
    2   15   17     13.11      0.00 
    4   15   17      5.67      0.00 
    6   15   17     -0.15      0.00 
    8   15   17      6.48      0.00 
   10   15   17     -4.46      0.00 
   12   15   17     -2.90      0.00 
   14   15   17     -3.22      0.00 
   16   15   17      9.55      0.00 
    1   16   17     15.42      0.00 
    3   16   17     23.84      0.00 
    5   16   17      3.26      0.00 
    7   16   17      8.72      0.00 
    9   16   17     -1.29      0.00 
   11   16   17      2.73      0.00 
   13   16   17      2.47      0.00 
   15   16   17      6.27      0.00 
   17   16   17     -3.62      0.00 
    2   17   17     17.93      0.00 
    4   17   17      1.59      0.00 
    6   17   17     -6.10      0.00 
    8   17   17      3.94      0.00 
   10   17   17    -14.14      0.00 
   12   17   17      4.99      0.00 
   14   17   17    -13.95      0.00 
   16   17   17      5.89      0.00 
    1   18   17      8.35      0.00 
    3   18   17     13.29      0.00 
    5   18   17      5.65      0.00 
    7   18   17      4.06      0.00 
    9   18   17     -2.61      0.00 
   11   18   17     -1.15      0.00 
   13   18   17    -17.56      0.00 
   15   18   17     13.12      0.00 
    2   19   17     24.24      0.00 
    4   19   17      5.95      0.00 
    6   19   17      1.70      0.00 
    8   19   17      5.25      0.00 
   10   19   17     -0.02      0.00 
   12   19   17      7.48      0.00 
   14   19   17      3.71      0.00 
   16   19   17    -14.32      0.00 
    1   20   17     14.62      0.00 
    3   20   17     14.41      0.00 
    5   20   17      4.40      0.00 
    7   20   17      7.65      0.00 
    9   20   17      3.95      0.00 
   11   20   17      0.22      0.00 
   13   20   17    -13.27      0.00 
   15   20   17    -17.94      0.00 
    2   21   17      6.54      0.00 
    4   21   17      3.19      0.00 
    6   21   17      0.19      0.00 
    8   21   17     -6.43      0.00 
   10   21   17      2.37      0.00 
   12   21   17     -9.20      0.00 
   14   21   17     10.13      0.00 
    1   22   17     11.57      0.00 
    3   22   17     10.10      0.00 
    5   22   17      2.47      0.00 
    7   22   17     -0.80      0.00 
    9   22   17     18.89      0.00 
   11   22   17     -2.58      0.00 
   13   22   17      4.50      0.00 
   15   22   17     -8.46      0.00 
    2   23   17     13.87      0.00 
    4   23   17     -1.03      0.00 
    6   23   17      6.08      0.00 
    8   23   17     -7.30      0.00 
   10   23   17     -1.45      0.00 
   12   23   17     -3.71      0.00 
   14   23   17      2.53      0.00 
    1   24   17      8.68      0.00 
    3   24   17     -1.06      0.00 
    5   24   17     10.51      0.00 
    7   24   17     -5.77      0.00 
    9   24   17     10.31      0.00 
   11   24   17     -5.22      0.00 
   13   24   17      6.08      0.00 
    2   25   17      4.48      0.00 
    4   25   17     -0.81      0.00 
    6   25   17     -6.07      0.00 
    8   25   17     -2.07      0.00 
   10   25   17      0.60      0.00 
   12   25   17     -5.65      0.00 
    1   26   17      5.16      0.00 
    3   26   17     -6.63      0.00 
    5   26   17      3.49      0.00 
    7   26   17     -3.90      0.00 
    9   26   17      9.45      0.00 
   11   26   17      5.38      0.00 
   13   26   17     16.86      0.00 
    2   27   17      5.85      0.00 
    4   27   17      6.66      0.00 
    6   27   17      8.98      0.00 
    8   27   17      4.55      0.00 
   10   27   17      3.31      0.00 
   12   27   17     -8.10      0.00 
    1   28   17     11.60      0.00 
    3   28   17      6.60      0.00 
    5   28   17     12.61      0.00 
    7   28   17      0.72      0.00 
    9   28   17      8.23      0.00 
   11   28   17      6.18      0.00 
    2   29   17     11.01      0.00 
    4   29   17      1.67      0.00 
    6   29   17      1.35      0.00 
    8   29   17      7.87      0.00 
   10   29   17      3.42      0.00 
    1   30   17     -2.23      0.00 
    3   30   17     -9.02      0.00 
    5   30   17      7.23      0.00 
    7   30   17    -11.51      0.00 
    9   30   17      3.53      0.00 
    2   31   17     10.11      0.00 
    4   31   17    -11.93      0.00 
    6   31   17     -5.67      0.00 
    8   31   17     -3.51      0.00 
    1   32   17      9.91      0.00 
    3   32   17     -0.97      0.00 
    5   32   17     11.46      0.00 
    7   32   17    -18.97      0.00 
    2   33   17      5.50      0.00 
    4   33   17     10.97      0.00 
    6   33   17      8.56      0.00 
    1   34   17     -5.49      0.00 
    3   34   17     -3.50      0.00 
    0    0   18     75.77      0.00 
    2    0   18     18.62      0.00 
    4    0   18      8.31      0.00 
    6    0   18    -17.78      0.00 
    8    0   18      6.82      0.00 
   10    0   18      0.94      0.00 
   12    0   18      0.95      0.00 
   14    0   18    -11.36      0.00 
   16    0   18     25.19      0.00 
   18    0   18      2.85      0.00 
    1    1   18     42.82      0.00 
    3    1   18      3.73      0.00 
    5    1   18     -0.36      0.00 
    7    1   18     -1.41      0.00 
    9    1   18     -7.59      0.00 
   11    1   18     -2.82      0.00 
   13    1   18     10.11      0.00 
   15    1   18     -6.24      0.00 
   17    1   18     -2.77      0.00 
   19    1   18      8.00      0.00 
    0    2   18     11.49      0.00 
    2    2   18     -9.62      0.00 
    4    2   18     -1.45      0.00 
    6    2   18    -21.03      0.00 
    8    2   18     10.32      0.00 
   10    2   18     -7.84      0.00 
   12    2   18      7.46      0.00 
   14    2   18     -9.67      0.00 
   16    2   18      7.59      0.00 
   18    2   18     14.75      0.00 
    1    3   18      2.94      0.00 
    3    3   18    -21.54      0.00 
    5    3   18    -24.52      0.00 
    7    3   18     -9.86      0.00 
    9    3   18      3.66      0.00 
   11    3   18     -5.13      0.00 
   13    3   18      2.06      0.00 
   15    3   18    -17.05      0.00 
   17    3   18     -0.58      0.00 
   19    3   18     -2.79      0.00 
    0    4   18     16.74      0.00 
    2    4   18      4.71      0.00 
    4    4   18    -17.07      0.00 
    6    4   18     -5.62      0.00 
    8    4   18      4.29      0.00 
   10    4   18     -5.51      0.00 
   12    4   18      9.26      0.00 
   14    4   18      4.89      0.00 
   16    4   18    -25.43      0.00 
   18    4   18     -3.57      0.00 
    1    5   18     24.94      0.00 
    3    5   18      4.66      0.00 
    5    5   18     -0.46      0.00 
    7    5   18    -11.15      0.00 
    9    5   18      6.27      0.00 
   11    5   18     -1.92      0.00 
   13    5   18     14.06      0.00 
   15    5   18      7.60      0.00 
   17    5   18     15.03      0.00 
   19    5   18     10.87      0.00 
    0    6   18     20.11      0.00 
    2    6   18     12.59      0.00 
    4    6   18     -6.57      0.00 
    6    6   18      2.30      0.00 
    8    6   18     -1.13      0.00 
   10    6   18     11.29      0.00 
   12    6   18      7.36      0.00 
   14    6   18     10.86      0.00 
   16    6   18      7.08      0.00 
   18    6   18      2.21      0.00 
    1    7   18     44.95      0.00 
    3    7   18      5.20      0.00 
    5    7   18     10.60      0.00 
    7    7   18      4.08      0.00 
    9    7   18      7.80      0.00 
   11    7   18     -3.88      0.00 
   13    7   18      3.85      0.00 
   15    7   18     -8.98      0.00 
   17    7   18     -1.28      0.00 
    0    8   18     25.04      0.00 
    2    8   18     21.58      0.00 
    4    8   18      2.34      0.00 
    6    8   18      5.46      0.00 
    8    8   18     10.70      0.00 
   10    8   18      7.44      0.00 
   12    8   18     15.66      0.00 
   14    8   18     -1.80      0.00 
   16    8   18      1.55      0.00 
   18    8   18     -1.39      0.00 
    1    9   18     21.78      0.00 
    3    9   18    -13.30      0.00 
    5    9   18     -5.62      0.00 
    7    9   18    -11.35      0.00 
    9    9   18     -5.93      0.00 
   11    9   18     -8.19      0.00 
   13    9   18     -3.80      0.00 
   15    9   18      6.95      0.00 
   17    9   18     14.85      0.00 
    0   10   18     13.36      0.00 
    2   10   18     -7.83      0.00 
    4   10   18    -12.92      0.00 
    6   10   18     -1.00      0.00 
    8   10   18      4.46      0.00 
   10   10   18     -4.77      0.00 
   12   10   18      8.83      0.00 
   14   10   18     -6.62      0.00 
   16   10   18    -13.69      0.00 
   18   10   18     -9.07      0.00 
    1   11   18     -0.71      0.00 
    3   11   18    -14.27      0.00 
    5   11   18    -37.97      0.00 
    7   11   18    -11.69      0.00 
    9   11   18     -6.67      0.00 
   11   11   18      2.97      0.00 
   13   11   18      4.45      0.00 
   15   11   18     -1.80      0.00 
   17   11   18     -7.52      0.00 
    0   12   18      4.48      0.00 
    2   12   18     -8.31      0.00 
    4   12   18    -14.74      0.00 
    6   12   18      2.03      0.00 
    8   12   18      3.43      0.00 
   10   12   18      2.46      0.00 
   12   12   18    -11.75      0.00 
   14   12   18     -5.80      0.00 
   16   12   18      8.67      0.00 
   18   12   18     -8.46      0.00 
    1   13   18     19.92      0.00 
    3   13   18      7.20      0.00 
    5   13   18     -2.34      0.00 
    7   13   18      2.62      0.00 
    9   13   18     -4.63      0.00 
   11   13   18     18.48      0.00 
   13   13   18      2.00      0.00 
   15   13   18     -2.45      0.00 
   17   13   18     -6.60      0.00 
    0   14   18     35.67      0.00 
    2   14   18     11.15      0.00 
    4   14   18      2.03      0.00 
    6   14   18     18.08      0.00 
    8   14   18      6.74      0.00 
   10   14   18     -7.47      0.00 
   12   14   18     -0.55      0.00 
   14   14   18      3.90      0.00 
   16   14   18    -10.27      0.00 
    1   15   18      4.08      0.00 
    3   15   18      3.01      0.00 
    5   15   18     -2.74      0.00 
    7   15   18     12.25      0.00 
    9   15   18     16.98      0.00 
   11   15   18     18.38      0.00 
   13   15   18      5.30      0.00 
   15   15   18      9.75      0.00 
   17   15   18      2.93      0.00 
    0   16   18     28.62      0.00 
    2   16   18      7.32      0.00 
    4   16   18     -0.58      0.00 
    6   16   18     13.07      0.00 
    8   16   18     -6.97      0.00 
   10   16   18     -1.06      0.00 
   12   16   18      5.91      0.00 
   14   16   18    -15.19      0.00 
   16   16   18     -7.61      0.00 
    1   17   18      6.01      0.00 
    3   17   18      5.87      0.00 
    5   17   18      4.18      0.00 
    7   17   18      8.56      0.00 
    9   17   18      5.06      0.00 
   11   17   18      1.10      0.00 
   13   17   18     -3.20      0.00 
   15   17   18    -15.85      0.00 
    0   18   18      5.67      0.00 
    2   18   18      6.32      0.00 
    4   18   18    -12.97      0.00 
    6   18   18      5.93      0.00 
    8   18   18    -15.77      0.00 
   10   18   18      0.17      0.00 
   12   18   18    -10.77      0.00 
   14   18   18     12.03      0.00 
   16   18   18     12.82      0.00 
    1   19   18     -5.39      0.00 
    3   19   18    -12.92      0.00 
    5   19   18     -2.01      0.00 
    7   19   18     -9.33      0.00 
    9   19   18      6.61      0.00 
   11   19   18     26.53      0.00 
   13   19   18      1.12      0.00 
   15   19   18     19.40      0.00 
    0   20   18    -22.61      0.00 
    2   20   18     -2.83      0.00 
    4   20   18     -8.99      0.00 
    6   20   18      9.91      0.00 
    8   20   18      4.70      0.00 
   10   20   18     -8.26      0.00 
   12   20   18    -11.72      0.00 
   14   20   18     -4.49      0.00 
    1   21   18     -9.78      0.00 
    3   21   18    -13.23      0.00 
    5   21   18     -3.39      0.00 
    7   21   18     -9.34      0.00 
    9   21   18    -10.51      0.00 
   11   21   18     -9.82      0.00 
   13   21   18      8.68      0.00 
   15   21   18     24.37      0.00 
    0   22   18     -9.18      0.00 
    2   22   18      7.12      0.00 
    4   22   18     -3.45      0.00 
    6   22   18     18.70      0.00 
    8   22   18     -1.41      0.00 
   10   22   18     12.68      0.00 
   12   22   18      6.98      0.00 
   14   22   18     -7.35      0.00 
    1   23   18     18.00      0.00 
    3   23   18      6.23      0.00 
    5   23   18      6.65      0.00 
    7   23   18     -8.15      0.00 
    9   23   18     -4.34      0.00 
   11   23   18      5.54      0.00 
   13   23   18     -3.74      0.00 
    0   24   18      4.98      0.00 
    2   24   18      2.47      0.00 
    4   24   18      9.97      0.00 
    6   24   18     18.43      0.00 
    8   24   18     17.29      0.00 
   10   24   18     24.20      0.00 
   12   24   18    -12.77      0.00 
    1   25   18      6.48      0.00 
    3   25   18      7.58      0.00 
    5   25   18      7.67      0.00 
    7   25   18    -11.11      0.00 
    9   25   18     -4.16      0.00 
   11   25   18     14.46      0.00 
   13   25   18     -8.12      0.00 
    0   26   18      3.67      0.00 
    2   26   18     -2.53      0.00 
    4   26   18      7.47      0.00 
    6   26   18     -1.75      0.00 
    8   26   18      8.78      0.00 
   10   26   18     14.06      0.00 
   12   26   18     11.99      0.00 
    1   27   18    -11.69      0.00 
    3   27   18     -0.92      0.00 
    5   27   18      7.36      0.00 
    7   27   18      1.16      0.00 
    9   27   18    -13.09      0.00 
   11   27   18     -4.98      0.00 
    0   28   18     -4.46      0.00 
    2   28   18    -12.86      0.00 
    4   28   18    -12.88      0.00 
    6   28   18    -16.15      0.00 
    8   28   18     -6.81      0.00 
   10   28   18     -0.06      0.00 
    1   29   18     -1.46      0.00 
    3   29   18      1.19      0.00 
    5   29   18      4.48      0.00 
    7   29   18     -3.34      0.00 
    9   29   18      1.19      0.00 
    0   30   18     -9.33      0.00 
    2   30   18     -7.70      0.00 
    4   30   18      0.25      0.00 
    6   30   18     -8.13      0.00 
    8   30   18     -3.99      0.00 
    1   31   18      3.65      0.00 
    3   31   18     -8.11      0.00 
    5   31   18     -2.47      0.00 
    7   31   18     -5.94      0.00 
    0   32   18      1.61      0.00 
    2   32   18     11.31      0.00 
    4   32   18     26.89      0.00 
    6   32   18      8.70      0.00 
    1   33   18     14.28      0.00 
    3   33   18    -13.05      0.00 
    5   33   18      3.08      0.00 
    0   34   18    -13.93      0.00 
    2   34   18      6.89      0.00 
    2    1   19      4.26      0.00 
    4    1   19      3.42      0.00 
    6    1   19      0.97      0.00 
    8    1   19      7.67      0.00 
   10    1   19     -0.14      0.00 
   12    1   19      2.70      0.00 
   14    1   19     12.31      0.00 
   16    1   19    -15.49      0.00 
   18    1   19     13.62      0.00 
    1    2   19      0.17      0.00 
    3    2   19      0.94      0.00 
    5    2   19     17.28      0.00 
    7    2   19     12.34      0.00 
    9    2   19     19.80      0.00 
   11    2   19     15.24      0.00 
   13    2   19      3.45      0.00 
   15    2   19     -0.70      0.00 
   17    2   19      3.13      0.00 
    2    3   19      4.90      0.00 
    4    3   19      0.30      0.00 
    6    3   19      9.99      0.00 
    8    3   19     18.17      0.00 
   10    3   19     11.85      0.00 
   12    3   19     12.98      0.00 
   14    3   19      3.70      0.00 
   16    3   19      6.01      0.00 
   18    3   19     15.85      0.00 
    1    4   19      2.45      0.00 
    3    4   19     -7.61      0.00 
    5    4   19     -7.34      0.00 
    7    4   19     13.96      0.00 
    9    4   19      3.72      0.00 
   11    4   19      7.64      0.00 
   13    4   19      1.67      0.00 
   15    4   19      2.12      0.00 
   17    4   19    -14.28      0.00 
    2    5   19      3.85      0.00 
    4    5   19     -0.10      0.00 
    6    5   19      4.08      0.00 
    8    5   19     -1.69      0.00 
   10    5   19      3.45      0.00 
   12    5   19     13.18      0.00 
   14    5   19     -2.55      0.00 
   16    5   19      9.81      0.00 
   18    5   19    -11.59      0.00 
    1    6   19      1.96      0.00 
    3    6   19      5.85      0.00 
    5    6   19     -4.39      0.00 
    7    6   19      0.80      0.00 
    9    6   19     -7.80      0.00 
   11    6   19    -12.23      0.00 
   13    6   19     -7.11      0.00 
   15    6   19     -3.65      0.00 
   17    6   19      7.40      0.00 
    2    7   19     -6.94      0.00 
    4    7   19    -17.06      0.00 
    6    7   19     -9.00      0.00 
    8    7   19    -14.81      0.00 
   10    7   19    -11.97      0.00 
   12    7   19      5.09      0.00 
   14    7   19     -7.19      0.00 
   16    7   19     -0.31      0.00 
   18    7   19     -7.43      0.00 
    1    8   19     -6.09      0.00 
    3    8   19    -11.44      0.00 
    5    8   19    -21.34      0.00 
    7    8   19    -10.54      0.00 
    9    8   19    -13.81      0.00 
   11    8   19     -1.44      0.00 
   13    8   19    -11.67      0.00 
   15    8   19    -15.78      0.00 
   17    8   19    -24.39      0.00 
    2    9   19     -9.90      0.00 
    4    9   19    -17.68      0.00 
    6    9   19     -6.61      0.00 
    8    9   19     -0.15      0.00 
   10    9   19      1.43      0.00 
   12    9   19      2.40      0.00 
   14    9   19     12.92      0.00 
   16    9   19      2.74      0.00 
   18    9   19      9.98      0.00 
    1   10   19     -9.74      0.00 
    3   10   19    -12.00      0.00 
    5   10   19    -25.65      0.00 
    7   10   19      8.18      0.00 
    9   10   19    -10.06      0.00 
   11   10   19      5.93      0.00 
   13   10   19      9.39      0.00 
   15   10   19      7.53      0.00 
   17   10   19     -3.97      0.00 
    2   11   19     -5.32      0.00 
    4   11   19      0.68      0.00 
    6   11   19      6.85      0.00 
    8   11   19      1.45      0.00 
   10   11   19     11.76      0.00 
   12   11   19     10.67      0.00 
   14   11   19     -5.09      0.00 
   16   11   19     24.77      0.00 
    1   12   19     -3.37      0.00 
    3   12   19     -3.99      0.00 
    5   12   19     -6.60      0.00 
    7   12   19     15.53      0.00 
    9   12   19     10.84      0.00 
   11   12   19     20.90      0.00 
   13   12   19      2.34      0.00 
   15   12   19      0.38      0.00 
   17   12   19    -15.15      0.00 
    2   13   19     -9.07      0.00 
    4   13   19      5.65      0.00 
    6   13   19     18.66      0.00 
    8   13   19     -1.53      0.00 
   10   13   19     -7.74      0.00 
   12   13   19      4.77      0.00 
   14   13   19      9.10      0.00 
   16   13   19      0.67      0.00 
    1   14   19    -10.05      0.00 
    3   14   19     -1.10      0.00 
    5   14   19     14.44      0.00 
    7   14   19      5.22      0.00 
    9   14   19     15.88      0.00 
   11   14   19     16.44      0.00 
   13   14   19     -5.79      0.00 
   15   14   19      8.07      0.00 
   17   14   19     -3.14      0.00 
    2   15   19     -3.01      0.00 
    4   15   19     -1.00      0.00 
    6   15   19      5.14      0.00 
    8   15   19      1.97      0.00 
   10   15   19      0.16      0.00 
   12   15   19     -7.64      0.00 
   14   15   19      1.79      0.00 
   16   15   19      4.53      0.00 
    1   16   19    -14.88      0.00 
    3   16   19    -21.37      0.00 
    5   16   19     -7.86      0.00 
    7   16   19     -5.99      0.00 
    9   16   19     -1.88      0.00 
   11   16   19      2.54      0.00 
   13   16   19      9.74      0.00 
   15   16   19    -10.18      0.00 
    2   17   19    -20.34      0.00 
    4   17   19     -4.32      0.00 
    6   17   19     -5.17      0.00 
    8   17   19     -1.36      0.00 
   10   17   19     -0.76      0.00 
   12   17   19     -2.55      0.00 
   14   17   19     -7.99      0.00 
   16   17   19      7.24      0.00 
    1   18   19    -17.79      0.00 
    3   18   19    -23.47      0.00 
    5   18   19    -10.21      0.00 
    7   18   19     -0.89      0.00 
    9   18   19     11.18      0.00 
   11   18   19     -2.72      0.00 
   13   18   19     -0.74      0.00 
   15   18   19      3.37      0.00 
    2   19   19    -18.25      0.00 
    4   19   19     -2.39      0.00 
    6   19   19      0.66      0.00 
    8   19   19    -13.67      0.00 
   10   19   19    -10.50      0.00 
   12   19   19      1.38      0.00 
   14   19   19      9.15      0.00 
    1   20   19     -6.83      0.00 
    3   20   19     -8.22      0.00 
    5   20   19    -11.62      0.00 
    7   20   19      4.70      0.00 
    9   20   19     -0.07      0.00 
   11   20   19      2.54      0.00 
   13   20   19      6.67      0.00 
   15   20   19      5.83      0.00 
    2   21   19    -32.81      0.00 
    4   21   19     -3.19      0.00 
    6   21   19     -5.04      0.00 
    8   21   19    -16.67      0.00 
   10   21   19      9.82      0.00 
   12   21   19     -8.06      0.00 
   14   21   19     -6.56      0.00 
    1   22   19      6.41      0.00 
    3   22   19     -5.56      0.00 
    5   22   19    -14.75      0.00 
    7   22   19     18.23      0.00 
    9   22   19      7.37      0.00 
   11   22   19     -0.13      0.00 
   13   22   19      8.38      0.00 
    2   23   19     -6.16      0.00 
    4   23   19      9.76      0.00 
    6   23   19     20.59      0.00 
    8   23   19      3.20      0.00 
   10   23   19     13.67      0.00 
   12   23   19      6.17      0.00 
    1   24   19     -4.16      0.00 
    3   24   19     -7.52      0.00 
    5   24   19      1.10      0.00 
    7   24   19      6.78      0.00 
    9   24   19      0.54      0.00 
   11   24   19     -4.05      0.00 
   13   24   19     -6.66      0.00 
    2   25   19     -6.54      0.00 
    4   25   19     -0.45      0.00 
    6   25   19     -3.47      0.00 
    8   25   19      2.95      0.00 
   10   25   19     -0.34      0.00 
   12   25   19     -2.79      0.00 
    1   26   19     -6.85      0.00 
    3   26   19     -5.41      0.00 
    5   26   19     -6.77      0.00 
    7   26   19      3.50      0.00 
    9   26   19      4.30      0.00 
   11   26   19     -4.39      0.00 
    2   27   19    -10.36      0.00 
    4   27   19      4.49      0.00 
    6   27   19     -5.43      0.00 
    8   27   19     -8.86      0.00 
   10   27   19     -4.78      0.00 
    1   28   19     -6.09      0.00 
    3   28   19     -7.21      0.00 
    5   28   19    -18.14      0.00 
    7   28   19     -0.75      0.00 
    9   28   19     -6.51      0.00 
    2   29   19     -7.40      0.00 
    4   29   19     -3.05      0.00 
    6   29   19     -4.27      0.00 
    8   29   19     -1.61      0.00 
    1   30   19    -12.39      0.00 
    3   30   19     -9.54      0.00 
    5   30   19      4.09      0.00 
    7   30   19      0.87      0.00 
    2   31   19      2.40      0.00 
    4   31   19     -8.75      0.00 
    6   31   19      3.89      0.00 
    1   32   19      7.60      0.00 
    3   32   19     -1.60      0.00 
    5   32   19      6.52      0.00 
    2   33   19    -11.28      0.00 
    0    0   20     28.12      0.00 
    2    0   20     -2.35      0.00 
    4    0   20     17.19      0.00 
    6    0   20    -16.77      0.00 
    8    0   20     -9.97      0.00 
   10    0   20      7.45      0.00 
   12    0   20     -7.60      0.00 
   14    0   20    -15.58      0.00 
   16    0   20     -6.69      0.00 
   18    0   20    -16.03      0.00 
    1    1   20      0.22      0.00 
    3    1   20      6.71      0.00 
    5    1   20      3.38      0.00 
    7    1   20     -4.97      0.00 
    9    1   20     -4.65      0.00 
   11    1   20      5.06      0.00 
   13    1   20     -0.22      0.00 
   15    1   20     13.87      0.00 
   17    1   20      3.64      0.00 
    0    2   20      7.78      0.00 
    2    2   20     -0.02      0.00 
    4    2   20     18.42      0.00 
    6    2   20     -7.11      0.00 
    8    2   20      2.76      0.00 
   10    2   20     -2.91      0.00 
   12    2   20      3.75      0.00 
   14    2   20    -10.11      0.00 
   16    2   20      2.03      0.00 
   18    2   20     -7.93      0.00 
    1    3   20      7.42      0.00 
    3    3   20     22.02      0.00 
    5    3   20      8.09      0.00 
    7    3   20     -9.19      0.00 
    9    3   20      8.86      0.00 
   11    3   20      5.22      0.00 
   13    3   20     -3.99      0.00 
   15    3   20     13.83      0.00 
   17    3   20     16.42      0.00 
    0    4   20      9.31      0.00 
    2    4   20     16.57      0.00 
    4    4   20      0.25      0.00 
    6    4   20     -5.91      0.00 
    8    4   20     -5.56      0.00 
   10    4   20     -4.98      0.00 
   12    4   20      2.40      0.00 
   14    4   20      3.46      0.00 
   16    4   20     13.01      0.00 
   18    4   20      0.00      0.00 
    1    5   20     -1.25      0.00 
    3    5   20     -0.90      0.00 
    5    5   20     -4.55      0.00 
    7    5   20    -21.32      0.00 
    9    5   20     -3.61      0.00 
   11    5   20     -2.45      0.00 
   13    5   20     -2.27      0.00 
   15    5   20      4.54      0.00 
   17    5   20      3.46      0.00 
    0    6   20    -39.14      0.00 
    2    6   20    -21.33      0.00 
    4    6   20     -7.40      0.00 
    6    6   20    -19.93      0.00 
    8    6   20     -5.28      0.00 
   10    6   20      5.31      0.00 
   12    6   20     -2.53      0.00 
   14    6   20      0.15      0.00 
   16    6   20     11.21      0.00 
   18    6   20     -4.87      0.00 
    1    7   20    -28.78      0.00 
    3    7   20    -18.85      0.00 
    5    7   20    -14.32      0.00 
    7    7   20     -8.04      0.00 
    9    7   20     -1.64      0.00 
   11    7   20      1.85      0.00 
   13    7   20     -1.84      0.00 
   15    7   20     -6.63      0.00 
   17    7   20     -5.80      0.00 
    0    8   20     -7.76      0.00 
    2    8   20     -1.00      0.00 
    4    8   20      2.35      0.00 
    6    8   20    -17.11      0.00 
    8    8   20     -7.38      0.00 
   10    8   20     -9.28      0.00 
   12    8   20    -10.96      0.00 
   14    8   20    -12.93      0.00 
   16    8   20      6.67      0.00 
    1    9   20     19.55      0.00 
    3    9   20     24.54      0.00 
    5    9   20      1.42      0.00 
    7    9   20    -12.00      0.00 
    9    9   20     -2.19      0.00 
   11    9   20      6.16      0.00 
   13    9   20      8.33      0.00 
   15    9   20      8.45      0.00 
   17    9   20     -0.64      0.00 
    0   10   20     26.56      0.00 
    2   10   20     28.26      0.00 
    4   10   20     17.96      0.00 
    6   10   20     10.98      0.00 
    8   10   20     -2.03      0.00 
   10   10   20    -12.88      0.00 
   12   10   20     -3.86      0.00 
   14   10   20     -1.96      0.00 
   16   10   20      2.15      0.00 
    1   11   20     27.26      0.00 
    3   11   20     31.85      0.00 
    5   11   20     13.27      0.00 
    7   11   20     -2.31      0.00 
    9   11   20      1.00      0.00 
   11   11   20     -0.62      0.00 
   13   11   20      8.67      0.00 
   15   11   20      5.55      0.00 
   17   11   20      4.78      0.00 
    0   12   20     10.96      0.00 
    2   12   20     22.11      0.00 
    4   12   20     15.05      0.00 
    6   12   20      2.90      0.00 
    8   12   20     -3.74      0.00 
   10   12   20      7.13      0.00 
   12   12   20     -1.41      0.00 
   14   12   20     -0.50      0.00 
   16   12   20     14.70      0.00 
    1   13   20     13.82      0.00 
    3   13   20      8.08      0.00 
    5   13   20      6.81      0.00 
    7   13   20    -12.67      0.00 
    9   13   20    -15.61      0.00 
   11   13   20     -8.02      0.00 
   13   13   20     -8.85      0.00 
   15   13   20      9.11      0.00 
    0   14   20    -20.20      0.00 
    2   14   20     -6.64      0.00 
    4   14   20     -9.46      0.00 
    6   14   20    -25.85      0.00 
    8   14   20     -0.68      0.00 
   10   14   20     -1.10      0.00 
   12   14   20     -6.45      0.00 
   14   14   20      1.67      0.00 
   16   14   20     -5.70      0.00 
    1   15   20      4.65      0.00 
    3   15   20    -14.60      0.00 
    5   15   20    -18.10      0.00 
    7   15   20    -20.87      0.00 
    9   15   20    -14.65      0.00 
   11   15   20     -5.29      0.00 
   13   15   20      0.73      0.00 
   15   15   20     20.50      0.00 
    0   16   20    -34.85      0.00 
    2   16   20     -8.01      0.00 
    4   16   20     -6.59      0.00 
    6   16   20    -29.02      0.00 
    8   16   20      6.02      0.00 
   10   16   20     -6.77      0.00 
   12   16   20     -6.40      0.00 
   14   16   20      1.93      0.00 
   16   16   20      6.79      0.00 
    1   17   20      3.20      0.00 
    3   17   20     -1.45      0.00 
    5   17   20     -4.86      0.00 
    7   17   20      1.12      0.00 
    9   17   20     -3.57      0.00 
   11   17   20     -7.49      0.00 
   13   17   20     10.31      0.00 
   15   17   20     -3.50      0.00 
    0   18   20      5.32      0.00 
    2   18   20      9.97      0.00 
    4   18   20      2.48      0.00 
    6   18   20     -7.47      0.00 
    8   18   20     -4.61      0.00 
   10   18   20      0.50      0.00 
   12   18   20      1.95      0.00 
   14   18   20     17.11      0.00 
    1   19   20     19.86      0.00 
    3   19   20      9.40      0.00 
    5   19   20     -5.23      0.00 
    7   19   20     -6.84      0.00 
    9   19   20      4.49      0.00 
   11   19   20     11.96      0.00 
   13   19   20      3.10      0.00 
   15   19   20    -13.63      0.00 
    0   20   20     21.60      0.00 
    2   20   20     22.18      0.00 
    4   20   20     11.88      0.00 
    6   20   20     -4.66      0.00 
    8   20   20      8.46      0.00 
   10   20   20      7.35      0.00 
   12   20   20      8.31      0.00 
   14   20   20    -12.71      0.00 
    1   21   20     24.30      0.00 
    3   21   20     12.39      0.00 
    5   21   20     -2.17      0.00 
    7   21   20      3.44      0.00 
    9   21   20     -8.86      0.00 
   11   21   20    -25.69      0.00 
   13   21   20      3.44      0.00 
    0   22   20     21.58      0.00 
    2   22   20     18.64      0.00 
    4   22   20     11.49      0.00 
    6   22   20     -3.87      0.00 
    8   22   20     -3.53      0.00 
   10   22   20     -1.72      0.00 
   12   22   20     11.83      0.00 
    1   23   20     14.08      0.00 
    3   23   20      9.68      0.00 
    5   23   20    -16.79      0.00 
    7   23   20      3.34      0.00 
    9   23   20     -6.75      0.00 
   11   23   20    -17.58      0.00 
   13   23   20      2.23      0.00 
    0   24   20     -5.95      0.00 
    2   24   20    -16.52      0.00 
    4   24   20      0.79      0.00 
    6   24   20    -12.70      0.00 
    8   24   20     -4.79      0.00 
   10   24   20    -11.68      0.00 
   12   24   20     -7.12      0.00 
    1   25   20     -2.57      0.00 
    3   25   20     -7.34      0.00 
    5   25   20    -22.34      0.00 
    7   25   20      0.55      0.00 
    9   25   20    -13.52      0.00 
   11   25   20     -9.80      0.00 
    0   26   20      2.45      0.00 
    2   26   20     -0.31      0.00 
    4   26   20     -5.54      0.00 
    6   26   20    -10.10      0.00 
    8   26   20    -12.90      0.00 
   10   26   20    -17.12      0.00 
    1   27   20      4.47      0.00 
    3   27   20     -1.55      0.00 
    5   27   20    -23.40      0.00 
    7   27   20     20.57      0.00 
    9   27   20      2.28      0.00 
    0   28   20      2.04      0.00 
    2   28   20      7.51      0.00 
    4   28   20      1.10      0.00 
    6   28   20     21.98      0.00 
    8   28   20      2.23      0.00 
    1   29   20      9.07      0.00 
    3   29   20     10.41      0.00 
    5   29   20    -22.14      0.00 
    7   29   20     11.83      0.00 
    0   30   20      5.44      0.00 
    2   30   20      7.51      0.00 
    4   30   20      7.34      0.00 
    6   30   20     14.96      0.00 
    1   31   20     -0.65      0.00 
    3   31   20     18.56      0.00 
    5   31   20      2.72      0.00 
    0   32   20     13.88      0.00 
    2   32   20     -0.03      0.00 
    4   32   20     -2.96      0.00 
    2    1   21      3.50      0.00 
    4    1   21      9.40      0.00 
    6    1   21     -2.72      0.00 
    8    1   21     -6.72      0.00 
   10    1   21     -7.73      0.00 
   12    1   21    -10.58      0.00 
   14    1   21      2.31      0.00 
   16    1   21    -15.05      0.00 
    1    2   21     -0.89      0.00 
    3    2   21    -10.48      0.00 
    5    2   21      5.67      0.00 
    7    2   21    -22.91      0.00 
    9    2   21     -3.31      0.00 
   11    2   21     -9.98      0.00 
   13    2   21     -5.54      0.00 
   15    2   21      3.70      0.00 
   17    2   21     18.10      0.00 
    2    3   21     -4.82      0.00 
    4    3   21     -2.90      0.00 
    6    3   21     -8.84      0.00 
    8    3   21     -9.69      0.00 
   10    3   21     -6.38      0.00 
   12    3   21     -7.24      0.00 
   14    3   21      0.58      0.00 
   16    3   21     -3.07      0.00 
    1    4   21     -9.94      0.00 
    3    4   21     -8.63      0.00 
    5    4   21     -8.03      0.00 
    7    4   21    -11.42      0.00 
    9    4   21     -2.45      0.00 
   11    4   21      0.43      0.00 
   13    4   21      4.00      0.00 
   15    4   21     -1.84      0.00 
   17    4   21     -8.47      0.00 
    2    5   21    -14.88      0.00 
    4    5   21     -0.63      0.00 
    6    5   21     -0.50      0.00 
    8    5   21     -8.43      0.00 
   10    5   21     -4.51      0.00 
   12    5   21     -1.98      0.00 
   14    5   21     -9.47      0.00 
   16    5   21      3.40      0.00 
    1    6   21     -3.26      0.00 
    3    6   21      4.54      0.00 
    5    6   21    -11.34      0.00 
    7    6   21     -1.75      0.00 
    9    6   21     16.21      0.00 
   11    6   21     -1.90      0.00 
   13    6   21      9.56      0.00 
   15    6   21     10.83      0.00 
   17    6   21     12.11      0.00 
    2    7   21    -20.04      0.00 
    4    7   21     -2.37      0.00 
    6    7   21      6.60      0.00 
    8    7   21     -2.97      0.00 
   10    7   21      2.78      0.00 
   12    7   21      9.27      0.00 
   14    7   21      5.44      0.00 
   16    7   21     -2.16      0.00 
    1    8   21    -14.45      0.00 
    3    8   21      1.40      0.00 
    5    8   21     -3.26      0.00 
    7    8   21      1.25      0.00 
    9    8   21      8.25      0.00 
   11    8   21     14.50      0.00 
   13    8   21     -5.09      0.00 
   15    8   21     21.44      0.00 
   17    8   21      8.29      0.00 
    2    9   21     -0.65      0.00 
    4    9   21      7.47      0.00 
    6    9   21      5.60      0.00 
    8    9   21     -4.56      0.00 
   10    9   21      1.69      0.00 
   12    9   21    -11.38      0.00 
   14    9   21     12.62      0.00 
   16    9   21    -14.35      0.00 
    1   10   21    -10.66      0.00 
    3   10   21      5.86      0.00 
    5   10   21     10.77      0.00 
    7   10   21      2.22      0.00 
    9   10   21     -2.93      0.00 
   11   10   21      4.19      0.00 
   13   10   21     -0.05      0.00 
   15   10   21      9.08      0.00 
   17   10   21      3.68      0.00 
    2   11   21      3.39      0.00 
    4   11   21      4.67      0.00 
    6   11   21     -0.97      0.00 
    8   11   21     -1.82      0.00 
   10   11   21      2.12      0.00 
   12   11   21     -5.46      0.00 
   14   11   21      6.25      0.00 
   16   11   21      5.18      0.00 
    1   12   21      0.05      0.00 
    3   12   21    -11.27      0.00 
    5   12   21     -7.75      0.00 
    7   12   21    -11.04      0.00 
    9   12   21     -0.94      0.00 
   11   12   21      8.52      0.00 
   13   12   21      2.28      0.00 
   15   12   21    -14.68      0.00 
    2   13   21    -10.74      0.00 
    4   13   21    -14.15      0.00 
    6   13   21    -13.79      0.00 
    8   13   21     -4.11      0.00 
   10   13   21    -16.11      0.00 
   12   13   21     -4.02      0.00 
   14   13   21     10.50      0.00 
   16   13   21    -13.77      0.00 
    1   14   21    -12.28      0.00 
    3   14   21     -8.43      0.00 
    5   14   21     -6.38      0.00 
    7   14   21     -0.98      0.00 
    9   14   21      8.76      0.00 
   11   14   21      6.86      0.00 
   13   14   21      1.03      0.00 
   15   14   21      7.21      0.00 
    2   15   21      2.46      0.00 
    4   15   21     -3.44      0.00 
    6   15   21     -5.21      0.00 
    8   15   21     -2.39      0.00 
   10   15   21      3.45      0.00 
   12   15   21      4.24      0.00 
   14   15   21      4.25      0.00 
    1   16   21      5.53      0.00 
    3   16   21     -3.62      0.00 
    5   16   21     -5.04      0.00 
    7   16   21      5.22      0.00 
    9   16   21     -7.33      0.00 
   11   16   21      3.55      0.00 
   13   16   21      6.28      0.00 
   15   16   21    -11.22      0.00 
    2   17   21     -0.30      0.00 
    4   17   21      4.77      0.00 
    6   17   21      2.28      0.00 
    8   17   21      8.22      0.00 
   10   17   21     -5.50      0.00 
   12   17   21     -6.21      0.00 
   14   17   21     -1.39      0.00 
    1   18   21     18.83      0.00 
    3   18   21      4.23      0.00 
    5   18   21     -6.01      0.00 
    7   18   21      1.33      0.00 
    9   18   21      3.82      0.00 
   11   18   21      4.80      0.00 
   13   18   21      8.97      0.00 
    2   19   21      5.00      0.00 
    4   19   21     -3.48      0.00 
    6   19   21      2.37      0.00 
    8   19   21      0.70      0.00 
   10   19   21     -1.89      0.00 
   12   19   21      4.79      0.00 
   14   19   21    -13.13      0.00 
    1   20   21     -1.77      0.00 
    3   20   21     -0.91      0.00 
    5   20   21     -8.11      0.00 
    7   20   21     -6.53      0.00 
    9   20   21     -5.56      0.00 
   11   20   21     -7.37      0.00 
   13   20   21      9.22      0.00 
    2   21   21     -6.14      0.00 
    4   21   21     -4.25      0.00 
    6   21   21    -10.04      0.00 
    8   21   21     -1.62      0.00 
   10   21   21     12.74      0.00 
   12   21   21      5.64      0.00 
    1   22   21     -0.79      0.00 
    3   22   21     -4.90      0.00 
    5   22   21     -6.29      0.00 
    7   22   21      0.34      0.00 
    9   22   21     -5.07      0.00 
   11   22   21    -14.75      0.00 
   13   22   21     13.22      0.00 
    2   23   21      8.34      0.00 
    4   23   21     -1.17      0.00 
    6   23   21     -0.82      0.00 
    8   23   21     -0.04      0.00 
   10   23   21      4.69      0.00 
   12   23   21      4.82      0.00 
    1   24   21     -7.55      0.00 
    3   24   21      0.38      0.00 
    5   24   21      9.77      0.00 
    7   24   21     -3.44      0.00 
    9   24   21    -11.49      0.00 
   11   24   21     -1.73      0.00 
    2   25   21      4.01      0.00 
    4   25   21    -20.27      0.00 
    6   25   21    -18.55      0.00 
    8   25   21      4.86      0.00 
   10   25   21      5.68      0.00 
    1   26   21     -4.01      0.00 
    3   26   21      5.89      0.00 
    5   26   21     10.74      0.00 
    7   26   21     -1.66      0.00 
    9   26   21    -12.90      0.00 
    2   27   21      6.14      0.00 
    4   27   21      3.12      0.00 
    6   27   21     -0.88      0.00 
    8   27   21     11.27      0.00 
    1   28   21      5.17      0.00 
    3   28   21      1.87      0.00 
    5   28   21     -3.19      0.00 
    7   28   21     15.49      0.00 
    2   29   21     -3.20      0.00 
    4   29   21     -0.14      0.00 
    6   29   21     -1.91      0.00 
    1   30   21      1.20      0.00 
    3   30   21      1.82      0.00 
    5   30   21      1.76      0.00 
    2   31   21     -1.54      0.00 
    4   31   21    -20.43      0.00 
    0    0   22     -7.47      0.00 
    2    0   22      7.10      0.00 
    4    0   22      7.58      0.00 
    6    0   22      8.37      0.00 
    8    0   22    -10.13      0.00 
   10    0   22     -0.96      0.00 
   12    0   22     -7.11      0.00 
   14    0   22      4.19      0.00 
   16    0   22     20.98      0.00 
    1    1   22      2.20      0.00 
    3    1   22    -13.90      0.00 
    5    1   22      2.31      0.00 
    7    1   22     10.99      0.00 
    9    1   22     -7.00      0.00 
   11    1   22     -9.42      0.00 
   13    1   22     21.02      0.00 
   15    1   22      7.57      0.00 
   17    1   22    -16.79      0.00 
    0    2   22    -31.17      0.00 
    2    2   22    -26.78      0.00 
    4    2   22    -11.61      0.00 
    6    2   22      6.01      0.00 
    8    2   22      7.52      0.00 
   10    2   22     -6.13      0.00 
   12    2   22      2.35      0.00 
   14    2   22    -21.41      0.00 
   16    2   22     -4.36      0.00 
    1    3   22    -20.72      0.00 
    3    3   22    -12.20      0.00 
    5    3   22     -0.08      0.00 
    7    3   22     10.72      0.00 
    9    3   22     -5.85      0.00 
   11    3   22     -5.88      0.00 
   13    3   22      8.23      0.00 
   15    3   22      1.67      0.00 
   17    3   22    -22.93      0.00 
    0    4   22     -9.65      0.00 
    2    4   22     -7.17      0.00 
    4    4   22     -8.00      0.00 
    6    4   22      9.31      0.00 
    8    4   22      0.68      0.00 
   10    4   22    -19.34      0.00 
   12    4   22     -8.84      0.00 
   14    4   22    -11.47      0.00 
   16    4   22     -0.67      0.00 
    1    5   22      6.55      0.00 
    3    5   22      0.56      0.00 
    5    5   22     10.24      0.00 
    7    5   22      9.26      0.00 
    9    5   22     -3.31      0.00 
   11    5   22     -9.13      0.00 
   13    5   22     -1.07      0.00 
   15    5   22     -1.07      0.00 
   17    5   22    -21.43      0.00 
    0    6   22     11.73      0.00 
    2    6   22      7.99      0.00 
    4    6   22      9.75      0.00 
    6    6   22     19.01      0.00 
    8    6   22      6.27      0.00 
   10    6   22     -6.13      0.00 
   12    6   22      5.55      0.00 
   14    6   22      6.09      0.00 
   16    6   22     -3.77      0.00 
    1    7   22      1.02      0.00 
    3    7   22     -2.55      0.00 
    5    7   22      7.58      0.00 
    7    7   22      8.52      0.00 
    9    7   22      1.35      0.00 
   11    7   22    -10.50      0.00 
   13    7   22     -2.87      0.00 
   15    7   22      1.80      0.00 
   17    7   22      4.17      0.00 
    0    8   22     20.92      0.00 
    2    8   22      8.52      0.00 
    4    8   22      4.98      0.00 
    6    8   22     15.41      0.00 
    8    8   22      3.18      0.00 
   10    8   22     -3.41      0.00 
   12    8   22     -0.44      0.00 
   14    8   22      0.08      0.00 
   16    8   22      0.29      0.00 
    1    9   22     -2.88      0.00 
    3    9   22     -0.66      0.00 
    5    9   22      9.66      0.00 
    7    9   22      0.51      0.00 
    9    9   22     -5.28      0.00 
   11    9   22     -2.70      0.00 
   13    9   22      2.43      0.00 
   15    9   22    -12.48      0.00 
    0   10   22    -28.13      0.00 
    2   10   22    -28.13      0.00 
    4   10   22    -24.02      0.00 
    6   10   22      6.11      0.00 
    8   10   22     13.29      0.00 
   10   10   22      0.39      0.00 
   12   10   22      4.38      0.00 
   14   10   22      4.69      0.00 
   16   10   22     -1.35      0.00 
    1   11   22    -36.50      0.00 
    3   11   22    -29.69      0.00 
    5   11   22    -10.99      0.00 
    7   11   22     -5.24      0.00 
    9   11   22      8.24      0.00 
   11   11   22     -3.97      0.00 
   13   11   22     -0.09      0.00 
   15   11   22     -3.56      0.00 
    0   12   22    -17.57      0.00 
    2   12   22    -25.88      0.00 
    4   12   22    -11.66      0.00 
    6   12   22     -3.09      0.00 
    8   12   22     12.56      0.00 
   10   12   22     -5.77      0.00 
   12   12   22     -1.53      0.00 
   14   12   22    -18.72      0.00 
   16   12   22     -9.35      0.00 
    1   13   22    -15.14      0.00 
    3   13   22     -8.85      0.00 
    5   13   22     11.45      0.00 
    7   13   22      8.67      0.00 
    9   13   22      2.16      0.00 
   11   13   22     -2.76      0.00 
   13   13   22      2.45      0.00 
   15   13   22      5.14      0.00 
    0   14   22      0.94      0.00 
    2   14   22     -7.04      0.00 
    4   14   22     10.12      0.00 
    6   14   22      8.94      0.00 
    8   14   22      8.58      0.00 
   10   14   22     -7.74      0.00 
   12   14   22      4.95      0.00 
   14   14   22     -6.58      0.00 
    1   15   22      6.15      0.00 
    3   15   22     -2.34      0.00 
    5   15   22     16.14      0.00 
    7   15   22      4.06      0.00 
    9   15   22      3.41      0.00 
   11   15   22      5.27      0.00 
   13   15   22      7.19      0.00 
   15   15   22     -0.66      0.00 
    0   16   22      9.07      0.00 
    2   16   22      5.18      0.00 
    4   16   22      8.57      0.00 
    6   16   22      7.96      0.00 
    8   16   22      4.92      0.00 
   10   16   22     -0.54      0.00 
   12   16   22      9.04      0.00 
   14   16   22    -17.95      0.00 
    1   17   22      0.23      0.00 
    3   17   22     -6.03      0.00 
    5   17   22      9.01      0.00 
    7   17   22     -1.56      0.00 
    9   17   22      0.39      0.00 
   11   17   22    -15.43      0.00 
   13   17   22     -3.49      0.00 
    0   18   22     -0.75      0.00 
    2   18   22     -6.75      0.00 
    4   18   22      1.66      0.00 
    6   18   22     15.84      0.00 
    8   18   22      0.04      0.00 
   10   18   22     -1.44      0.00 
   12   18   22     -4.62      0.00 
   14   18   22    -14.03      0.00 
    1   19   22    -15.36      0.00 
    3   19   22     -7.99      0.00 
    5   19   22      9.95      0.00 
    7   19   22      2.19      0.00 
    9   19   22      4.84      0.00 
   11   19   22    -12.71      0.00 
   13   19   22     -7.45      0.00 
    0   20   22    -23.87      0.00 
    2   20   22    -23.22      0.00 
    4   20   22     -7.95      0.00 
    6   20   22     -3.38      0.00 
    8   20   22     -5.39      0.00 
   10   20   22      8.30      0.00 
   12   20   22      7.21      0.00 
    1   21   22    -18.88      0.00 
    3   21   22    -14.87      0.00 
    5   21   22     12.06      0.00 
    7   21   22     13.89      0.00 
    9   21   22     -5.81      0.00 
   11   21   22    -13.90      0.00 
    0   22   22    -11.33      0.00 
    2   22   22    -11.28      0.00 
    4   22   22     -1.02      0.00 
    6   22   22     -4.11      0.00 
    8   22   22      0.10      0.00 
   10   22   22      7.45      0.00 
   12   22   22    -14.97      0.00 
    1   23   22     -3.96      0.00 
    3   23   22    -10.61      0.00 
    5   23   22      5.55      0.00 
    7   23   22      6.44      0.00 
    9   23   22     -1.68      0.00 
   11   23   22     15.81      0.00 
    0   24   22    -12.46      0.00 
    2   24   22    -17.67      0.00 
    4   24   22      8.27      0.00 
    6   24   22     -5.07      0.00 
    8   24   22     12.71      0.00 
   10   24   22     31.55      0.00 
    1   25   22      0.27      0.00 
    3   25   22      3.10      0.00 
    5   25   22     16.18      0.00 
    7   25   22      3.14      0.00 
    9   25   22      2.13      0.00 
    0   26   22      0.49      0.00 
    2   26   22     -2.72      0.00 
    4   26   22     13.89      0.00 
    6   26   22     -8.08      0.00 
    8   26   22    -11.48      0.00 
    1   27   22      4.23      0.00 
    3   27   22      8.78      0.00 
    5   27   22     12.54      0.00 
    7   27   22     11.98      0.00 
    0   28   22     -8.09      0.00 
    2   28   22     -8.58      0.00 
    4   28   22     15.14      0.00 
    6   28   22     -7.14      0.00 
    1   29   22      0.79      0.00 
    3   29   22    -11.08      0.00 
    5   29   22     -3.61      0.00 
    0   30   22    -11.21      0.00 
    2   30   22    -14.02      0.00 
    4   30   22      8.66      0.00 
    1   31   22     -2.14      0.00 
    2    1   23     -1.21      0.00 
    4    1   23      0.39      0.00 
    6    1   23     -1.81      0.00 
    8    1   23      0.68      0.00 
   10    1   23     -4.38      0.00 
   12    1   23      2.45      0.00 
   14    1   23      4.05      0.00 
   16    1   23     -2.88      0.00 
    1    2   23     10.75      0.00 
    3    2   23     -6.13      0.00 
    5    2   23      9.04      0.00 
    7    2   23     -4.42      0.00 
    9    2   23      7.32      0.00 
   11    2   23     -0.40      0.00 
   13    2   23     -5.85      0.00 
   15    2   23     -7.56      0.00 
    2    3   23      8.67      0.00 
    4    3   23     -8.38      0.00 
    6    3   23     -1.95      0.00 
    8    3   23      1.46      0.00 
   10    3   23     -5.44      0.00 
   12    3   23      6.23      0.00 
   14    3   23      7.77      0.00 
   16    3   23     -2.81      0.00 
    1    4   23      3.00      0.00 
    3    4   23     10.18      0.00 
    5    4   23      7.48      0.00 
    7    4   23      5.58      0.00 
    9    4   23     -0.13      0.00 
   11    4   23     -5.11      0.00 
   13    4   23     -4.59      0.00 
   15    4   23      0.42      0.00 
    2    5   23     20.54      0.00 
    4    5   23     11.68      0.00 
    6    5   23      9.15      0.00 
    8    5   23     -1.34      0.00 
   10    5   23     -4.83      0.00 
   12    5   23    -11.16      0.00 
   14    5   23     -3.24      0.00 
   16    5   23     20.59      0.00 
    1    6   23     17.84      0.00 
    3    6   23     17.51      0.00 
    5    6   23      4.04      0.00 
    7    6   23      5.73      0.00 
    9    6   23     18.09      0.00 
   11    6   23     -3.45      0.00 
   13    6   23     15.84      0.00 
   15    6   23    -19.73      0.00 
    2    7   23     24.97      0.00 
    4    7   23      8.08      0.00 
    6    7   23     15.24      0.00 
    8    7   23     -6.27      0.00 
   10    7   23     -8.34      0.00 
   12    7   23     -6.89      0.00 
   14    7   23    -17.17      0.00 
   16    7   23     -9.45      0.00 
    1    8   23     12.50      0.00 
    3    8   23     12.83      0.00 
    5    8   23      0.80      0.00 
    7    8   23      2.57      0.00 
    9    8   23     -1.68      0.00 
   11    8   23     -6.19      0.00 
   13    8   23      2.52      0.00 
   15    8   23     -7.01      0.00 
    2    9   23     24.86      0.00 
    4    9   23     -5.40      0.00 
    6    9   23      6.95      0.00 
    8    9   23      2.90      0.00 
   10    9   23      0.97      0.00 
   12    9   23     -8.40      0.00 
   14    9   23     -7.93      0.00 
   16    9   23    -15.05      0.00 
    1   10   23      5.75      0.00 
    3   10   23     11.78      0.00 
    5   10   23      9.24      0.00 
    7   10   23      3.36      0.00 
    9   10   23     -4.60      0.00 
   11   10   23    -11.34      0.00 
   13   10   23      6.46      0.00 
   15   10   23    -12.41      0.00 
    2   11   23     17.25      0.00 
    4   11   23     -1.13      0.00 
    6   11   23     -0.91      0.00 
    8   11   23     -1.11      0.00 
   10   11   23      5.46      0.00 
   12   11   23     -1.00      0.00 
   14   11   23      2.16      0.00 
    1   12   23     17.46      0.00 
    3   12   23      8.10      0.00 
    5   12   23      6.28      0.00 
    7   12   23     -3.11      0.00 
    9   12   23    -11.53      0.00 
   11   12   23    -14.34      0.00 
   13   12   23    -15.34      0.00 
   15   12   23    -21.03      0.00 
    2   13   23     15.87      0.00 
    4   13   23     13.96      0.00 
    6   13   23     -5.11      0.00 
    8   13   23    -14.02      0.00 
   10   13   23     -5.07      0.00 
   12   13   23    -10.19      0.00 
   14   13   23    -12.81      0.00 
    1   14   23      9.61      0.00 
    3   14   23     23.02      0.00 
    5   14   23     14.13      0.00 
    7   14   23     11.40      0.00 
    9   14   23     -0.49      0.00 
   11   14   23     -9.53      0.00 
   13   14   23     -5.59      0.00 
   15   14   23     26.99      0.00 
    2   15   23     13.97      0.00 
    4   15   23      5.33      0.00 
    6   15   23    -14.01      0.00 
    8   15   23    -18.49      0.00 
   10   15   23      3.25      0.00 
   12   15   23     10.05      0.00 
   14   15   23     -4.35      0.00 
    1   16   23      1.16      0.00 
    3   16   23      8.03      0.00 
    5   16   23      5.39      0.00 
    7   16   23     -7.57      0.00 
    9   16   23      0.49      0.00 
   11   16   23      3.67      0.00 
   13   16   23     -8.79      0.00 
    2   17   23      8.48      0.00 
    4   17   23     10.79      0.00 
    6   17   23     -4.05      0.00 
    8   17   23     -4.52      0.00 
   10   17   23    -18.46      0.00 
   12   17   23     -6.40      0.00 
   14   17   23      5.29      0.00 
    1   18   23      3.53      0.00 
    3   18   23     10.71      0.00 
    5   18   23     13.90      0.00 
    7   18   23      1.59      0.00 
    9   18   23      7.38      0.00 
   11   18   23      2.39      0.00 
   13   18   23      1.10      0.00 
    2   19   23     14.54      0.00 
    4   19   23     19.59      0.00 
    6   19   23      4.99      0.00 
    8   19   23     -3.90      0.00 
   10   19   23      7.21      0.00 
   12   19   23      4.49      0.00 
    1   20   23     -3.82      0.00 
    3   20   23     17.21      0.00 
    5   20   23     11.33      0.00 
    7   20   23      1.57      0.00 
    9   20   23     -9.96      0.00 
   11   20   23     -6.87      0.00 
    2   21   23     15.20      0.00 
    4   21   23     18.60      0.00 
    6   21   23      6.65      0.00 
    8   21   23      2.86      0.00 
   10   21   23      3.39      0.00 
   12   21   23     -3.26      0.00 
    1   22   23      5.60      0.00 
    3   22   23     22.97      0.00 
    5   22   23      9.11      0.00 
    7   22   23     -0.67      0.00 
    9   22   23     -5.64      0.00 
   11   22   23     -3.69      0.00 
    2   23   23     13.22      0.00 
    4   23   23      4.98      0.00 
    6   23   23      5.81      0.00 
    8   23   23     -0.74      0.00 
   10   23   23     -2.64      0.00 
    1   24   23     -5.24      0.00 
    3   24   23      0.93      0.00 
    5   24   23     -4.34      0.00 
    7   24   23     -8.42      0.00 
    9   24   23    -10.81      0.00 
    2   25   23     -1.79      0.00 
    4   25   23     -3.84      0.00 
    6   25   23    -13.48      0.00 
    8   25   23      0.48      0.00 
    1   26   23     -6.17      0.00 
    3   26   23      9.98      0.00 
    5   26   23     10.27      0.00 
    7   26   23     -9.39      0.00 
    2   27   23      8.11      0.00 
    4   27   23      4.96      0.00 
    6   27   23      1.39      0.00 
    1   28   23     -3.56      0.00 
    3   28   23     22.74      0.00 
    5   28   23     -1.08      0.00 
    2   29   23      1.92      0.00 
    4   29   23      9.85      0.00 
    1   30   23    -14.26      0.00 
    0    0   24    -12.75      0.00 
    2    0   24    -14.21      0.00 
    4    0   24     -4.57      0.00 
    6    0   24     -1.63      0.00 
    8    0   24     -8.12      0.00 
   10    0   24     20.36      0.00 
   12    0   24    -22.80      0.00 
   14    0   24      8.54      0.00 
   16    0   24      7.17      0.00 
    1    1   24    -14.65      0.00 
    3    1   24     -5.57      0.00 
    5    1   24      1.98      0.00 
    7    1   24     -1.66      0.00 
    9    1   24      7.94      0.00 
   11    1   24      3.60      0.00 
   13    1   24      5.07      0.00 
   15    1   24    -21.42      0.00 
    0    2   24     -2.62      0.00 
    2    2   24     -8.82      0.00 
    4    2   24      0.54      0.00 
    6    2   24      2.15      0.00 
    8    2   24     14.44      0.00 
   10    2   24     19.62      0.00 
   12    2   24     -7.98      0.00 
   14    2   24    -11.38      0.00 
   16    2   24      2.86      0.00 
    1    3   24     -0.71      0.00 
    3    3   24     13.68      0.00 
    5    3   24      4.64      0.00 
    7    3   24     -3.47      0.00 
    9    3   24      4.43      0.00 
   11    3   24      4.10      0.00 
   13    3   24      7.38      0.00 
   15    3   24     -1.38      0.00 
    0    4   24     19.51      0.00 
    2    4   24     23.92      0.00 
    4    4   24     13.95      0.00 
    6    4   24      3.67      0.00 
    8    4   24      7.14      0.00 
   10    4   24     11.35      0.00 
   12    4   24     -2.94      0.00 
   14    4   24     -7.62      0.00 
   16    4   24      3.26      0.00 
    1    5   24      8.00      0.00 
    3    5   24     17.34      0.00 
    5    5   24      6.83      0.00 
    7    5   24     -2.90      0.00 
    9    5   24     16.79      0.00 
   11    5   24      7.32      0.00 
   13    5   24      3.56      0.00 
   15    5   24     -0.28      0.00 
    0    6   24    -21.55      0.00 
    2    6   24     -4.98      0.00 
    4    6   24     -0.60      0.00 
    6    6   24     -3.42      0.00 
    8    6   24      2.13      0.00 
   10    6   24     13.34      0.00 
   12    6   24     12.08      0.00 
   14    6   24      5.02      0.00 
   16    6   24     -5.36      0.00 
    1    7   24    -17.74      0.00 
    3    7   24     -5.15      0.00 
    5    7   24      1.53      0.00 
    7    7   24      9.00      0.00 
    9    7   24     10.86      0.00 
   11    7   24      7.06      0.00 
   13    7   24      0.13      0.00 
   15    7   24      0.27      0.00 
    0    8   24    -24.63      0.00 
    2    8   24    -18.37      0.00 
    4    8   24      0.66      0.00 
    6    8   24     -5.96      0.00 
    8    8   24      3.87      0.00 
   10    8   24     10.31      0.00 
   12    8   24     -9.52      0.00 
   14    8   24     -4.67      0.00 
    1    9   24    -10.77      0.00 
    3    9   24      0.11      0.00 
    5    9   24     -3.85      0.00 
    7    9   24      9.74      0.00 
    9    9   24     -1.07      0.00 
   11    9   24     -0.04      0.00 
   13    9   24      8.58      0.00 
   15    9   24     -2.58      0.00 
    0   10   24     -8.22      0.00 
    2   10   24     -9.02      0.00 
    4   10   24      1.46      0.00 
    6   10   24     -3.29      0.00 
    8   10   24    -10.33      0.00 
   10   10   24      0.16      0.00 
   12   10   24     -4.89      0.00 
   14   10   24     -1.09      0.00 
    1   11   24     -8.10      0.00 
    3   11   24     11.38      0.00 
    5   11   24      0.74      0.00 
    7   11   24      1.27      0.00 
    9   11   24      6.55      0.00 
   11   11   24      2.02      0.00 
   13   11   24     11.42      0.00 
   15   11   24      3.51      0.00 
    0   12   24     15.78      0.00 
    2   12   24      7.03      0.00 
    4   12   24     13.59      0.00 
    6   12   24      2.44      0.00 
    8   12   24     -3.99      0.00 
   10   12   24      5.46      0.00 
   12   12   24     14.00      0.00 
   14   12   24    -11.10      0.00 
    1   13   24      7.08      0.00 
    3   13   24     14.49      0.00 
    5   13   24      3.73      0.00 
    7   13   24     -1.63      0.00 
    9   13   24     10.84      0.00 
   11   13   24      5.13      0.00 
   13   13   24      7.75      0.00 
    0   14   24     12.74      0.00 
    2   14   24     -2.24      0.00 
    4   14   24      4.45      0.00 
    6   14   24     -0.67      0.00 
    8   14   24      5.13      0.00 
   10   14   24     -1.85      0.00 
   12   14   24     -3.09      0.00 
   14   14   24     -5.38      0.00 
    1   15   24    -13.00      0.00 
    3   15   24      1.94      0.00 
    5   15   24      7.55      0.00 
    7   15   24      5.64      0.00 
    9   15   24      5.74      0.00 
   11   15   24     -0.67      0.00 
   13   15   24      4.47      0.00 
    0   16   24      8.01      0.00 
    2   16   24     -8.40      0.00 
    4   16   24      5.16      0.00 
    6   16   24     -3.58      0.00 
    8   16   24      8.73      0.00 
   10   16   24      4.15      0.00 
   12   16   24     -2.11      0.00 
    1   17   24    -12.91      0.00 
    3   17   24     16.06      0.00 
    5   17   24      4.14      0.00 
    7   17   24      3.40      0.00 
    9   17   24     -0.27      0.00 
   11   17   24     -4.35      0.00 
   13   17   24     10.84      0.00 
    0   18   24     -4.58      0.00 
    2   18   24     -2.25      0.00 
    4   18   24      1.14      0.00 
    6   18   24      7.20      0.00 
    8   18   24     -4.62      0.00 
   10   18   24      3.02      0.00 
   12   18   24     16.45      0.00 
    1   19   24      1.68      0.00 
    3   19   24      5.47      0.00 
    5   19   24     -0.53      0.00 
    7   19   24     -6.65      0.00 
    9   19   24     17.09      0.00 
   11   19   24     -0.45      0.00 
    0   20   24      1.50      0.00 
    2   20   24      1.30      0.00 
    4   20   24     -5.02      0.00 
    6   20   24     -5.09      0.00 
    8   20   24    -15.17      0.00 
   10   20   24      2.86      0.00 
    1   21   24     -4.71      0.00 
    3   21   24     -3.53      0.00 
    5   21   24     -9.54      0.00 
    7   21   24     -6.19      0.00 
    9   21   24      3.26      0.00 
   11   21   24    -13.57      0.00 
    0   22   24      3.16      0.00 
    2   22   24     -6.98      0.00 
    4   22   24      4.33      0.00 
    6   22   24      3.71      0.00 
    8   22   24      2.25      0.00 
   10   22   24    -10.82      0.00 
    1   23   24     -7.27      0.00 
    3   23   24     -1.86      0.00 
    5   23   24     -9.61      0.00 
    7   23   24      0.27      0.00 
    9   23   24      5.77      0.00 
    0   24   24     -2.76      0.00 
    2   24   24     -2.57      0.00 
    4   24   24      9.77      0.00 
    6   24   24     -4.26      0.00 
    8   24   24      3.23      0.00 
    1   25   24      0.95      0.00 
    3   25   24      1.28      0.00 
    5   25   24      1.45      0.00 
    7   25   24      7.35      0.00 
    0   26   24     15.51      0.00 
    2   26   24      7.69      0.00 
    4   26   24      3.58      0.00 
    6   26   24     12.68      0.00 
    1   27   24      1.02      0.00 
    3   27   24     -3.43      0.00 
    5   27   24    -23.56      0.00 
    0   28   24      9.95      0.00 
    2   28   24      7.64      0.00 
    4   28   24    -12.89      0.00 
    1   29   24     -8.85      0.00 
    2    1   25     -8.58      0.00 
    4    1   25      4.96      0.00 
    6    1   25     -3.60      0.00 
    8    1   25      6.85      0.00 
   10    1   25      0.68      0.00 
   12    1   25     -8.74      0.00 
   14    1   25     -5.06      0.00 
    1    2   25     17.44      0.00 
    3    2   25     -9.47      0.00 
    5    2   25     15.87      0.00 
    7    2   25     -6.05      0.00 
    9    2   25      4.26      0.00 
   11    2   25     -3.05      0.00 
   13    2   25      6.58      0.00 
   15    2   25    -11.25      0.00 
    2    3   25     -9.94      0.00 
    4    3   25     -5.66      0.00 
    6    3   25     -6.24      0.00 
    8    3   25      8.34      0.00 
   10    3   25     10.40      0.00 
   12    3   25      3.05      0.00 
   14    3   25     -1.56      0.00 
    1    4   25    -10.91      0.00 
    3    4   25    -10.23      0.00 
    5    4   25      7.32      0.00 
    7    4   25     -1.97      0.00 
    9    4   25      2.68      0.00 
   11    4   25     11.36      0.00 
   13    4   25     17.55      0.00 
   15    4   25     12.36      0.00 
    2    5   25    -19.03      0.00 
    4    5   25     -3.02      0.00 
    6    5   25     -4.99      0.00 
    8    5   25      4.34      0.00 
   10    5   25      1.53      0.00 
   12    5   25     -0.42      0.00 
   14    5   25    -12.99      0.00 
    1    6   25     -0.95      0.00 
    3    6   25    -11.36      0.00 
    5    6   25     -5.04      0.00 
    7    6   25     -9.84      0.00 
    9    6   25      7.98      0.00 
   11    6   25      2.50      0.00 
   13    6   25     13.46      0.00 
   15    6   25      2.59      0.00 
    2    7   25    -26.73      0.00 
    4    7   25      0.81      0.00 
    6    7   25     -7.68      0.00 
    8    7   25     -9.07      0.00 
   10    7   25      1.52      0.00 
   12    7   25      2.66      0.00 
   14    7   25      1.34      0.00 
    1    8   25     -4.11      0.00 
    3    8   25    -20.84      0.00 
    5    8   25     -4.34      0.00 
    7    8   25     -0.02      0.00 
    9    8   25     -6.94      0.00 
   11    8   25     -3.72      0.00 
   13    8   25    -14.72      0.00 
   15    8   25     21.30      0.00 
    2    9   25    -25.57      0.00 
    4    9   25     -4.76      0.00 
    6    9   25     -4.35      0.00 
    8    9   25     -5.95      0.00 
   10    9   25     12.10      0.00 
   12    9   25      2.96      0.00 
   14    9   25     14.07      0.00 
    1   10   25     -6.82      0.00 
    3   10   25      0.73      0.00 
    5   10   25      4.68      0.00 
    7   10   25     -5.68      0.00 
    9   10   25     11.45      0.00 
   11   10   25      8.20      0.00 
   13   10   25     -0.70      0.00 
    2   11   25    -22.79      0.00 
    4   11   25     -9.45      0.00 
    6   11   25      5.03      0.00 
    8   11   25      7.76      0.00 
   10   11   25     11.46      0.00 
   12   11   25      3.62      0.00 
   14   11   25     10.31      0.00 
    1   12   25      0.31      0.00 
    3   12   25    -17.18      0.00 
    5   12   25     -5.86      0.00 
    7   12   25      2.59      0.00 
    9   12   25      6.42      0.00 
   11   12   25      1.50      0.00 
   13   12   25     13.60      0.00 
    2   13   25    -19.08      0.00 
    4   13   25    -12.33      0.00 
    6   13   25      5.13      0.00 
    8   13   25      5.13      0.00 
   10   13   25      5.10      0.00 
   12   13   25    -15.63      0.00 
    1   14   25     -9.17      0.00 
    3   14   25    -13.71      0.00 
    5   14   25      1.47      0.00 
    7   14   25      8.10      0.00 
    9   14   25      2.50      0.00 
   11   14   25      0.64      0.00 
   13   14   25     16.08      0.00 
    2   15   25     -3.38      0.00 
    4   15   25     -3.66      0.00 
    6   15   25     16.36      0.00 
    8   15   25      9.60      0.00 
   10   15   25      3.42      0.00 
   12   15   25      1.68      0.00 
    1   16   25     -7.65      0.00 
    3   16   25     -5.65      0.00 
    5   16   25     -3.80      0.00 
    7   16   25      8.59      0.00 
    9   16   25      0.13      0.00 
   11   16   25     -2.44      0.00 
    2   17   25     -8.35      0.00 
    4   17   25    -11.36      0.00 
    6   17   25     12.94      0.00 
    8   17   25     22.21      0.00 
   10   17   25      7.19      0.00 
   12   17   25     -5.67      0.00 
    1   18   25     -5.90      0.00 
    3   18   25    -10.80      0.00 
    5   18   25    -16.34      0.00 
    7   18   25      5.80      0.00 
    9   18   25      0.42      0.00 
   11   18   25     -6.13      0.00 
    2   19   25     -1.96      0.00 
    4   19   25    -16.73      0.00 
    6   19   25      1.03      0.00 
    8   19   25      6.02      0.00 
   10   19   25     11.26      0.00 
    1   20   25    -15.96      0.00 
    3   20   25    -14.17      0.00 
    5   20   25    -14.45      0.00 
    7   20   25      0.77      0.00 
    9   20   25     -2.04      0.00 
   11   20   25      0.51      0.00 
    2   21   25    -13.90      0.00 
    4   21   25    -26.34      0.00 
    6   21   25     -9.35      0.00 
    8   21   25      5.74      0.00 
   10   21   25     -0.72      0.00 
    1   22   25    -20.41      0.00 
    3   22   25     -2.01      0.00 
    5   22   25     -3.97      0.00 
    7   22   25      3.48      0.00 
    9   22   25      8.72      0.00 
    2   23   25     -0.17      0.00 
    4   23   25    -28.23      0.00 
    6   23   25      8.65      0.00 
    8   23   25     10.32      0.00 
    1   24   25    -14.67      0.00 
    3   24   25     12.18      0.00 
    5   24   25      2.72      0.00 
    7   24   25     12.91      0.00 
    2   25   25      5.10      0.00 
    4   25   25      7.33      0.00 
    6   25   25      7.00      0.00 
    1   26   25     -6.14      0.00 
    3   26   25     -1.47      0.00 
    5   26   25     -0.93      0.00 
    2   27   25    -10.39      0.00 
    4   27   25    -23.10      0.00 
    0    0   26     39.58      0.00 
    2    0   26     47.54      0.00 
    4    0   26     12.64      0.00 
    6    0   26      2.61      0.00 
    8    0   26    -12.62      0.00 
   10    0   26     15.28      0.00 
   12    0   26     -2.26      0.00 
   14    0   26     15.65      0.00 
    1    1   26     32.52      0.00 
    3    1   26     17.22      0.00 
    5    1   26      0.20      0.00 
    7    1   26     -0.98      0.00 
    9    1   26    -10.05      0.00 
   11    1   26     -2.63      0.00 
   13    1   26     -2.76      0.00 
   15    1   26      2.98      0.00 
    0    2   26     11.54      0.00 
    2    2   26      3.02      0.00 
    4    2   26     -5.19      0.00 
    6    2   26     -3.54      0.00 
    8    2   26     -5.47      0.00 
   10    2   26     -2.04      0.00 
   12    2   26     16.70      0.00 
   14    2   26     15.82      0.00 
    1    3   26     -8.74      0.00 
    3    3   26    -16.99      0.00 
    5    3   26    -24.58      0.00 
    7    3   26     -5.69      0.00 
    9    3   26     -9.54      0.00 
   11    3   26      4.68      0.00 
   13    3   26    -16.31      0.00 
    0    4   26      0.41      0.00 
    2    4   26     -5.15      0.00 
    4    4   26     -0.51      0.00 
    6    4   26     -6.52      0.00 
    8    4   26    -10.52      0.00 
   10    4   26     -8.57      0.00 
   12    4   26     13.76      0.00 
   14    4   26     11.85      0.00 
    1    5   26     -0.05      0.00 
    3    5   26    -18.45      0.00 
    5    5   26    -18.98      0.00 
    7    5   26    -11.33      0.00 
    9    5   26     -8.49      0.00 
   11    5   26     -7.83      0.00 
   13    5   26    -16.55      0.00 
    0    6   26     -9.05      0.00 
    2    6   26     -2.78      0.00 
    4    6   26    -21.14      0.00 
    6    6   26    -19.86      0.00 
    8    6   26     -7.37      0.00 
   10    6   26     -4.09      0.00 
   12    6   26     10.15      0.00 
   14    6   26     12.96      0.00 
    1    7   26     18.30      0.00 
    3    7   26     -3.98      0.00 
    5    7   26      0.02      0.00 
    7    7   26     -8.69      0.00 
    9    7   26    -10.79      0.00 
   11    7   26      5.04      0.00 
   13    7   26    -10.53      0.00 
    0    8   26     35.28      0.00 
    2    8   26     25.54      0.00 
    4    8   26      2.83      0.00 
    6    8   26    -11.00      0.00 
    8    8   26     -4.62      0.00 
   10    8   26      0.98      0.00 
   12    8   26    -12.73      0.00 
   14    8   26    -14.51      0.00 
    1    9   26     29.96      0.00 
    3    9   26      7.57      0.00 
    5    9   26     -4.60      0.00 
    7    9   26     -3.04      0.00 
    9    9   26     -7.31      0.00 
   11    9   26     11.40      0.00 
   13    9   26     27.75      0.00 
    0   10   26     35.64      0.00 
    2   10   26     21.55      0.00 
    4   10   26      3.76      0.00 
    6   10   26     -4.35      0.00 
    8   10   26     -5.32      0.00 
   10   10   26     -1.44      0.00 
   12   10   26    -19.11      0.00 
    1   11   26     18.72      0.00 
    3   11   26      9.42      0.00 
    5   11   26     -0.59      0.00 
    7   11   26     -0.02      0.00 
    9   11   26    -12.59      0.00 
   11   11   26      3.77      0.00 
   13   11   26      4.41      0.00 
    0   12   26     10.35      0.00 
    2   12   26      3.40      0.00 
    4   12   26    -11.93      0.00 
    6   12   26     -9.50      0.00 
    8   12   26      5.23      0.00 
   10   12   26      3.60      0.00 
   12   12   26     -0.51      0.00 
    1   13   26     10.52      0.00 
    3   13   26     -0.82      0.00 
    5   13   26    -13.58      0.00 
    7   13   26     -5.66      0.00 
    9   13   26     -1.74      0.00 
   11   13   26    -11.29      0.00 
   13   13   26    -13.90      0.00 
    0   14   26     -2.46      0.00 
    2   14   26     -5.35      0.00 
    4   14   26     -5.53      0.00 
    6   14   26    -16.03      0.00 
    8   14   26     -9.41      0.00 
   10   14   26    -10.93      0.00 
   12   14   26      4.03      0.00 
    1   15   26     15.86      0.00 
    3   15   26     -7.76      0.00 
    5   15   26     -3.42      0.00 
    7   15   26    -19.50      0.00 
    9   15   26     -2.48      0.00 
   11   15   26      8.13      0.00 
    0   16   26     20.06      0.00 
    2   16   26    -14.37      0.00 
    4   16   26     -9.03      0.00 
    6   16   26    -16.24      0.00 
    8   16   26     15.94      0.00 
   10   16   26      8.87      0.00 
   12   16   26     -4.04      0.00 
    1   17   26     18.12      0.00 
    3   17   26      9.89      0.00 
    5   17   26    -22.08      0.00 
    7   17   26     -8.62      0.00 
    9   17   26     -2.18      0.00 
   11   17   26     -5.90      0.00 
    0   18   26     19.26      0.00 
    2   18   26      2.13      0.00 
    4   18   26     -5.00      0.00 
    6   18   26     -8.60      0.00 
    8   18   26     -8.97      0.00 
   10   18   26     -6.61      0.00 
    1   19   26      3.26      0.00 
    3   19   26     -5.37      0.00 
    5   19   26     -9.93      0.00 
    7   19   26      8.82      0.00 
    9   19   26     11.68      0.00 
    0   20   26     10.21      0.00 
    2   20   26      6.32      0.00 
    4   20   26     12.60      0.00 
    6   20   26    -10.39      0.00 
    8   20   26      8.44      0.00 
   10   20   26      2.57      0.00 
    1   21   26     26.63      0.00 
    3   21   26      3.23      0.00 
    5   21   26     -5.67      0.00 
    7   21   26     -4.07      0.00 
    9   21   26    -16.20      0.00 
    0   22   26     40.43      0.00 
    2   22   26      7.16      0.00 
    4   22   26     23.86      0.00 
    6   22   26     10.56      0.00 
    8   22   26     25.95      0.00 
    1   23   26     24.95      0.00 
    3   23   26     11.71      0.00 
    5   23   26     -6.11      0.00 
    7   23   26    -13.02      0.00 
    0   24   26     13.17      0.00 
    2   24   26      7.34      0.00 
    4   24   26     -2.01      0.00 
    6   24   26    -23.75      0.00 
    1   25   26      1.07      0.00 
    3   25   26     -3.09      0.00 
    5   25   26      5.56      0.00 
    0   26   26    -11.80      0.00 
    2   26   26    -14.82      0.00 
    2    1   27     -0.62      0.00 
    4    1   27      8.17      0.00 
    6    1   27     -0.80      0.00 
    8    1   27     11.00      0.00 
   10    1   27      6.90      0.00 
   12    1   27     13.45      0.00 
   14    1   27      6.96      0.00 
    1    2   27     16.13      0.00 
    3    2   27    -16.44      0.00 
    5    2   27      5.94      0.00 
    7    2   27     -7.10      0.00 
    9    2   27     -6.19      0.00 
   11    2   27      2.45      0.00 
   13    2   27    -14.98      0.00 
    2    3   27     12.22      0.00 
    4    3   27      4.62      0.00 
    6    3   27      2.37      0.00 
    8    3   27     -5.48      0.00 
   10    3   27    -10.63      0.00 
   12    3   27      1.45      0.00 
   14    3   27     14.82      0.00 
    1    4   27     -0.65      0.00 
    3    4   27      8.35      0.00 
    5    4   27     -5.03      0.00 
    7    4   27     -0.98      0.00 
    9    4   27     -0.62      0.00 
   11    4   27     -9.76      0.00 
   13    4   27    -30.68      0.00 
    2    5   27     -4.51      0.00 
    4    5   27     -2.87      0.00 
    6    5   27     10.49      0.00 
    8    5   27     -1.53      0.00 
   10    5   27     -9.66      0.00 
   12    5   27     10.03      0.00 
   14    5   27      6.02      0.00 
    1    6   27     17.78      0.00 
    3    6   27      7.89      0.00 
    5    6   27     -7.52      0.00 
    7    6   27     -4.15      0.00 
    9    6   27     11.20      0.00 
   11    6   27    -13.30      0.00 
   13    6   27     -6.85      0.00 
    2    7   27     -1.53      0.00 
    4    7   27     -8.95      0.00 
    6    7   27     -6.68      0.00 
    8    7   27     11.03      0.00 
   10    7   27      0.88      0.00 
   12    7   27      5.77      0.00 
    1    8   27     21.28      0.00 
    3    8   27     -0.60      0.00 
    5    8   27      6.72      0.00 
    7    8   27      3.48      0.00 
    9    8   27    -13.86      0.00 
   11    8   27     -2.54      0.00 
   13    8   27      2.32      0.00 
    2    9   27      6.36      0.00 
    4    9   27    -10.79      0.00 
    6    9   27      7.47      0.00 
    8    9   27      6.91      0.00 
   10    9   27     -6.07      0.00 
   12    9   27     -9.11      0.00 
    1   10   27      1.40      0.00 
    3   10   27      4.81      0.00 
    5   10   27     -4.20      0.00 
    7   10   27    -15.27      0.00 
    9   10   27     -2.17      0.00 
   11   10   27     -0.36      0.00 
   13   10   27     22.14      0.00 
    2   11   27     -1.44      0.00 
    4   11   27      2.98      0.00 
    6   11   27     15.14      0.00 
    8   11   27      0.75      0.00 
   10   11   27      2.62      0.00 
   12   11   27      4.05      0.00 
    1   12   27     11.78      0.00 
    3   12   27      6.78      0.00 
    5   12   27     -1.70      0.00 
    7   12   27     -1.26      0.00 
    9   12   27     -8.12      0.00 
   11   12   27    -12.34      0.00 
    2   13   27     10.72      0.00 
    4   13   27      6.01      0.00 
    6   13   27     -5.96      0.00 
    8   13   27     -2.21      0.00 
   10   13   27     18.82      0.00 
   12   13   27     -4.58      0.00 
    1   14   27      0.42      0.00 
    3   14   27    -11.67      0.00 
    5   14   27      3.99      0.00 
    7   14   27     -9.04      0.00 
    9   14   27     15.00      0.00 
   11   14   27     24.24      0.00 
    2   15   27      1.93      0.00 
    4   15   27     -1.78      0.00 
    6   15   27    -10.61      0.00 
    8   15   27     -4.15      0.00 
   10   15   27     -9.38      0.00 
    1   16   27      7.38      0.00 
    3   16   27     -3.76      0.00 
    5   16   27      8.52      0.00 
    7   16   27     -9.77      0.00 
    9   16   27     -3.16      0.00 
   11   16   27      6.52      0.00 
    2   17   27    -18.85      0.00 
    4   17   27      0.25      0.00 
    6   17   27    -21.99      0.00 
    8   17   27     -4.30      0.00 
   10   17   27     -9.37      0.00 
    1   18   27     11.25      0.00 
    3   18   27      3.08      0.00 
    5   18   27     12.74      0.00 
    7   18   27    -15.22      0.00 
    9   18   27    -10.94      0.00 
    2   19   27     -1.13      0.00 
    4   19   27     -1.90      0.00 
    6   19   27    -10.99      0.00 
    8   19   27     -3.96      0.00 
    1   20   27     -2.02      0.00 
    3   20   27    -11.03      0.00 
    5   20   27     14.57      0.00 
    7   20   27      2.26      0.00 
    2   21   27      3.44      0.00 
    4   21   27     19.82      0.00 
    6   21   27     -4.04      0.00 
    8   21   27     -4.54      0.00 
    1   22   27      6.58      0.00 
    3   22   27      5.79      0.00 
    5   22   27      2.27      0.00 
    7   22   27      4.89      0.00 
    2   23   27     -9.65      0.00 
    4   23   27      0.92      0.00 
    6   23   27      2.31      0.00 
    1   24   27      3.98      0.00 
    3   24   27      2.18      0.00 
    2   25   27    -23.65      0.00 
    0    0   28    -20.25      0.00 
    2    0   28    -30.06      0.00 
    4    0   28    -19.75      0.00 
    6    0   28    -10.69      0.00 
    8    0   28     -2.62      0.00 
   10    0   28      8.13      0.00 
   12    0   28     -8.40      0.00 
    1    1   28    -10.24      0.00 
    3    1   28     -8.47      0.00 
    5    1   28     -0.95      0.00 
    7    1   28     -1.15      0.00 
    9    1   28    -12.62      0.00 
   11    1   28     -6.11      0.00 
   13    1   28      5.99      0.00 
    0    2   28     -2.79      0.00 
    2    2   28    -19.96      0.00 
    4    2   28     -6.92      0.00 
    6    2   28      0.70      0.00 
    8    2   28      0.82      0.00 
   10    2   28    -18.25      0.00 
   12    2   28    -10.45      0.00 
    1    3   28     14.49      0.00 
    3    3   28      9.80      0.00 
    5    3   28      7.86      0.00 
    7    3   28      2.31      0.00 
    9    3   28      4.50      0.00 
   11    3   28      0.07      0.00 
   13    3   28      0.75      0.00 
    0    4   28      4.30      0.00 
    2    4   28     20.80      0.00 
    4    4   28     12.80      0.00 
    6    4   28     10.81      0.00 
    8    4   28      8.08      0.00 
   10    4   28     -4.18      0.00 
   12    4   28    -18.33      0.00 
    1    5   28     22.84      0.00 
    3    5   28      8.30      0.00 
    5    5   28     15.36      0.00 
    7    5   28     -4.90      0.00 
    9    5   28      3.03      0.00 
   11    5   28     -8.26      0.00 
   13    5   28     11.23      0.00 
    0    6   28    -28.08      0.00 
    2    6   28      2.62      0.00 
    4    6   28      0.23      0.00 
    6    6   28     12.67      0.00 
    8    6   28      7.51      0.00 
   10    6   28     -9.22      0.00 
   12    6   28      1.70      0.00 
    1    7   28     -0.61      0.00 
    3    7   28     -7.70      0.00 
    5    7   28      7.37      0.00 
    7    7   28      0.51      0.00 
    9    7   28     -5.99      0.00 
   11    7   28     -7.03      0.00 
    0    8   28      1.18      0.00 
    2    8   28     -5.28      0.00 
    4    8   28      6.06      0.00 
    6    8   28      7.89      0.00 
    8    8   28     19.09      0.00 
   10    8   28     -2.98      0.00 
   12    8   28     14.10      0.00 
    1    9   28    -24.16      0.00 
    3    9   28     -6.19      0.00 
    5    9   28     -0.96      0.00 
    7    9   28     -0.18      0.00 
    9    9   28     -6.86      0.00 
   11    9   28    -21.91      0.00 
    0   10   28    -11.59      0.00 
    2   10   28    -23.01      0.00 
    4   10   28     -9.44      0.00 
    6   10   28      0.61      0.00 
    8   10   28     13.86      0.00 
   10   10   28     -2.78      0.00 
   12   10   28     11.32      0.00 
    1   11   28    -10.15      0.00 
    3   11   28     11.07      0.00 
    5   11   28     14.47      0.00 
    7   11   28    -13.48      0.00 
    9   11   28     -6.48      0.00 
   11   11   28     -1.19      0.00 
    0   12   28     -7.65      0.00 
    2   12   28     -7.00      0.00 
    4   12   28     -7.65      0.00 
    6   12   28      5.21      0.00 
    8   12   28     20.55      0.00 
   10   12   28      5.23      0.00 
    1   13   28     -9.58      0.00 
    3   13   28      0.34      0.00 
    5   13   28      3.11      0.00 
    7   13   28     -0.70      0.00 
    9   13   28      4.66      0.00 
   11   13   28     -1.21      0.00 
    0   14   28     -5.01      0.00 
    2   14   28     -0.25      0.00 
    4   14   28     14.98      0.00 
    6   14   28     19.40      0.00 
    8   14   28     -0.91      0.00 
   10   14   28    -28.54      0.00 
    1   15   28     -3.64      0.00 
    3   15   28    -16.87      0.00 
    5   15   28      7.61      0.00 
    7   15   28    -10.77      0.00 
    9   15   28      1.85      0.00 
    0   16   28     -6.06      0.00 
    2   16   28    -11.84      0.00 
    4   16   28     12.10      0.00 
    6   16   28     10.95      0.00 
    8   16   28      7.27      0.00 
   10   16   28    -14.55      0.00 
    1   17   28     -4.95      0.00 
    3   17   28     -2.22      0.00 
    5   17   28      0.38      0.00 
    7   17   28     -4.48      0.00 
    9   17   28    -12.61      0.00 
    0   18   28    -27.43      0.00 
    2   18   28      2.92      0.00 
    4   18   28      8.73      0.00 
    6   18   28     18.72      0.00 
    8   18   28     -5.72      0.00 
    1   19   28     -3.19      0.00 
    3   19   28     -3.83      0.00 
    5   19   28     17.70      0.00 
    7   19   28      8.75      0.00 
    0   20   28    -30.67      0.00 
    2   20   28     -6.43      0.00 
    4   20   28     -2.94      0.00 
    6   20   28     -1.24      0.00 
    1   21   28      4.95      0.00 
    3   21   28     -4.49      0.00 
    5   21   28     14.87      0.00 
    0   22   28    -21.31      0.00 
    2   22   28    -28.14      0.00 
    4   22   28     -7.68      0.00 
    1   23   28    -34.53      0.00 
    3   23   28     -6.28      0.00 
    0   24   28    -20.49      0.00 
    2    1   29     -5.70      0.00 
    4    1   29     -1.20      0.00 
    6    1   29     -9.91      0.00 
    8    1   29     11.46      0.00 
   10    1   29     -5.31      0.00 
   12    1   29     -7.97      0.00 
    1    2   29     11.87      0.00 
    3    2   29    -11.62      0.00 
    5    2   29     10.50      0.00 
    7    2   29    -12.16      0.00 
    9    2   29    -10.63      0.00 
   11    2   29      6.73      0.00 
    2    3   29     -8.12      0.00 
    4    3   29     -5.69      0.00 
    6    3   29     -5.87      0.00 
    8    3   29      9.05      0.00 
   10    3   29      0.08      0.00 
   12    3   29     -4.45      0.00 
    1    4   29     -3.86      0.00 
    3    4   29     16.73      0.00 
    5    4   29      6.35      0.00 
    7    4   29     -5.12      0.00 
    9    4   29     -3.72      0.00 
   11    4   29      0.42      0.00 
    2    5   29     -8.21      0.00 
    4    5   29      9.69      0.00 
    6    5   29      7.63      0.00 
    8    5   29      5.04      0.00 
   10    5   29      9.25      0.00 
   12    5   29     28.81      0.00 
    1    6   29      1.11      0.00 
    3    6   29      2.65      0.00 
    5    6   29      8.06      0.00 
    7    6   29    -18.86      0.00 
    9    6   29      2.87      0.00 
   11    6   29    -11.88      0.00 
    2    7   29      0.18      0.00 
    4    7   29     17.18      0.00 
    6    7   29     -8.93      0.00 
    8    7   29     15.90      0.00 
   10    7   29     -0.24      0.00 
   12    7   29      0.78      0.00 
    1    8   29      4.10      0.00 
    3    8   29     -2.77      0.00 
    5    8   29      6.81      0.00 
    7    8   29    -10.60      0.00 
    9    8   29    -21.79      0.00 
   11    8   29      0.33      0.00 
    2    9   29     -2.55      0.00 
    4    9   29     11.89      0.00 
    6    9   29     -0.90      0.00 
    8    9   29      8.34      0.00 
   10    9   29     23.79      0.00 
    1   10   29      2.92      0.00 
    3   10   29     13.08      0.00 
    5   10   29      1.32      0.00 
    7   10   29      2.05      0.00 
    9   10   29     -3.45      0.00 
   11   10   29      1.26      0.00 
    2   11   29     -2.19      0.00 
    4   11   29     13.60      0.00 
    6   11   29     -2.20      0.00 
    8   11   29     -5.31      0.00 
   10   11   29      6.28      0.00 
    1   12   29      6.03      0.00 
    3   12   29      9.76      0.00 
    5   12   29    -11.60      0.00 
    7   12   29      0.37      0.00 
    9   12   29    -15.50      0.00 
    2   13   29      2.90      0.00 
    4   13   29     -4.80      0.00 
    6   13   29    -10.22      0.00 
    8   13   29     -9.83      0.00 
   10   13   29    -10.35      0.00 
    1   14   29     -6.12      0.00 
    3   14   29      1.92      0.00 
    5   14   29      8.47      0.00 
    7   14   29     -3.38      0.00 
    9   14   29    -16.80      0.00 
    2   15   29     14.59      0.00 
    4   15   29     -5.95      0.00 
    6   15   29      4.94      0.00 
    8   15   29     -0.20      0.00 
    1   16   29      3.45      0.00 
    3   16   29     16.25      0.00 
    5   16   29      0.42      0.00 
    7   16   29      5.09      0.00 
    2   17   29     -1.91      0.00 
    4   17   29      7.51      0.00 
    6   17   29      9.35      0.00 
    8   17   29      8.35      0.00 
    1   18   29      7.13      0.00 
    3   18   29     11.91      0.00 
    5   18   29    -12.91      0.00 
    7   18   29     -0.99      0.00 
    2   19   29     12.09      0.00 
    4   19   29      3.88      0.00 
    6   19   29      3.32      0.00 
    1   20   29      8.72      0.00 
    3   20   29      9.71      0.00 
    5   20   29      5.80      0.00 
    2   21   29     11.82      0.00 
    4   21   29     12.19      0.00 
    1   22   29      8.73      0.00 
    0    0   30      0.19      0.00 
    2    0   30     11.52      0.00 
    4    0   30     27.43      0.00 
    6    0   30     12.51      0.00 
    8    0   30      7.19      0.00 
   10    0   30     14.79      0.00 
    1    1   30     -8.14      0.00 
    3    1   30     13.51      0.00 
    5    1   30      7.98      0.00 
    7    1   30     11.18      0.00 
    9    1   30     10.82      0.00 
   11    1   30     -2.80      0.00 
    0    2   30    -16.91      0.00 
    2    2   30    -28.54      0.00 
    4    2   30      8.54      0.00 
    6    2   30     10.90      0.00 
    8    2   30      8.57      0.00 
   10    2   30      4.18      0.00 
    1    3   30    -20.39      0.00 
    3    3   30      4.30      0.00 
    5    3   30      4.17      0.00 
    7    3   30      7.34      0.00 
    9    3   30      3.36      0.00 
   11    3   30      7.56      0.00 
    0    4   30    -19.66      0.00 
    2    4   30    -11.43      0.00 
    4    4   30     -1.25      0.00 
    6    4   30      2.81      0.00 
    8    4   30      1.23      0.00 
   10    4   30     11.35      0.00 
    1    5   30    -16.72      0.00 
    3    5   30      0.70      0.00 
    5    5   30      6.69      0.00 
    7    5   30      3.11      0.00 
    9    5   30      6.25      0.00 
   11    5   30      0.93      0.00 
    0    6   30    -25.01      0.00 
    2    6   30      1.09      0.00 
    4    6   30     13.47      0.00 
    6    6   30      5.86      0.00 
    8    6   30     -7.47      0.00 
   10    6   30     -0.36      0.00 
    1    7   30      1.17      0.00 
    3    7   30      2.53      0.00 
    5    7   30      4.23      0.00 
    7    7   30     11.27      0.00 
    9    7   30     12.77      0.00 
    0    8   30    -18.78      0.00 
    2    8   30      1.48      0.00 
    4    8   30      6.14      0.00 
    6    8   30     -5.21      0.00 
    8    8   30      4.86      0.00 
   10    8   30      0.44      0.00 
    1    9   30     -8.21      0.00 
    3    9   30      3.50      0.00 
    5    9   30      8.49      0.00 
    7    9   30      2.72      0.00 
    9    9   30     -0.94      0.00 
    0   10   30    -17.47      0.00 
    2   10   30     -5.03      0.00 
    4   10   30     -4.83      0.00 
    6   10   30      8.27      0.00 
    8   10   30    -10.56      0.00 
   10   10   30    -11.24      0.00 
    1   11   30    -16.45      0.00 
    3   11   30    -10.61      0.00 
    5   11   30      3.07      0.00 
    7   11   30      8.41      0.00 
    9   11   30      3.55      0.00 
    0   12   30     -7.30      0.00 
    2   12   30      5.75      0.00 
    4   12   30      4.09      0.00 
    6   12   30     -3.28      0.00 
    8   12   30      7.96      0.00 
    1   13   30      0.82      0.00 
    3   13   30     13.30      0.00 
    5   13   30      0.03      0.00 
    7   13   30      6.20      0.00 
    9   13   30    -28.32      0.00 
    0   14   30     -0.48      0.00 
    2   14   30      4.45      0.00 
    4   14   30      7.97      0.00 
    6   14   30      0.11      0.00 
    8   14   30     14.99      0.00 
    1   15   30     -6.28      0.00 
    3   15   30     -5.47      0.00 
    5   15   30      4.03      0.00 
    7   15   30      5.80      0.00 
    0   16   30     -1.59      0.00 
    2   16   30      8.77      0.00 
    4   16   30     15.69      0.00 
    6   16   30     -0.57      0.00 
    1   17   30      9.99      0.00 
    3   17   30     -1.53      0.00 
    5   17   30     -0.76      0.00 
    0   18   30    -34.35      0.00 
    2   18   30     14.18      0.00 
    4   18   30      7.80      0.00 
    1   19   30     18.76      0.00 
    3   19   30     -3.23      0.00 
    0   20   30    -24.64      0.00 
    2   20   30     -9.99      0.00 
    2    1   31     -4.91      0.00 
    4    1   31      4.01      0.00 
    6    1   31     -2.29      0.00 
    8    1   31      8.02      0.00 
   10    1   31     -4.83      0.00 
    1    2   31     17.73      0.00 
    3    2   31    -17.06      0.00 
    5    2   31      5.73      0.00 
    7    2   31      3.96      0.00 
    9    2   31      2.62      0.00 
    2    3   31      5.06      0.00 
    4    3   31      6.07      0.00 
    6    3   31     -5.11      0.00 
    8    3   31     -8.21      0.00 
   10    3   31      0.14      0.00 
    1    4   31      4.32      0.00 
    3    4   31      2.07      0.00 
    5    4   31    -13.68      0.00 
    7    4   31     11.84      0.00 
    9    4   31     -2.72      0.00 
    2    5   31     -5.50      0.00 
    4    5   31     -7.53      0.00 
    6    5   31      7.78      0.00 
    8    5   31     -4.73      0.00 
   10    5   31      9.04      0.00 
    1    6   31     -3.16      0.00 
    3    6   31    -16.11      0.00 
    5    6   31    -17.80      0.00 
    7    6   31      4.13      0.00 
    9    6   31     13.91      0.00 
    2    7   31     16.08      0.00 
    4    7   31      7.22      0.00 
    6    7   31      4.97      0.00 
    8    7   31      6.51      0.00 
    1    8   31      7.11      0.00 
    3    8   31     -6.70      0.00 
    5    8   31     -4.35      0.00 
    7    8   31      4.67      0.00 
    9    8   31    -10.82      0.00 
    2    9   31      1.14      0.00 
    4    9   31    -11.57      0.00 
    6    9   31      3.41      0.00 
    8    9   31      5.52      0.00 
    1   10   31     -0.38      0.00 
    3   10   31    -21.17      0.00 
    5   10   31      9.31      0.00 
    7   10   31      4.65      0.00 
    2   11   31    -10.04      0.00 
    4   11   31     -0.47      0.00 
    6   11   31      6.10      0.00 
    8   11   31     15.57      0.00 
    1   12   31      2.75      0.00 
    3   12   31     -7.05      0.00 
    5   12   31    -13.97      0.00 
    7   12   31     -9.99      0.00 
    2   13   31     -5.85      0.00 
    4   13   31      2.03      0.00 
    6   13   31     11.68      0.00 
    1   14   31     -1.95      0.00 
    3   14   31      1.06      0.00 
    5   14   31      6.34      0.00 
    2   15   31      0.68      0.00 
    4   15   31     -1.24      0.00 
    6   15   31      5.94      0.00 
    1   16   31      9.03      0.00 
    3   16   31     -3.23      0.00 
    5   16   31      3.92      0.00 
    2   17   31     -9.04      0.00 
    4   17   31     10.87      0.00 
    1   18   31      4.05      0.00 
    0    0   32     14.78      0.00 
    2    0   32     11.24      0.00 
    4    0   32    -11.41      0.00 
    6    0   32    -16.69      0.00 
    8    0   32    -13.63      0.00 
    1    1   32     12.83      0.00 
    3    1   32    -12.45      0.00 
    5    1   32    -15.48      0.00 
    7    1   32     -4.90      0.00 
    9    1   32     -7.72      0.00 
    0    2   32     21.06      0.00 
    2    2   32      5.79      0.00 
    4    2   32     -5.23      0.00 
    6    2   32    -12.68      0.00 
    8    2   32     -2.01      0.00 
    1    3   32     24.09      0.00 
    3    3   32     -1.86      0.00 
    5    3   32     -9.72      0.00 
    7    3   32     -5.15      0.00 
    9    3   32     -9.00      0.00 
    0    4   32     16.89      0.00 
    2    4   32     25.77      0.00 
    4    4   32    -10.38      0.00 
    6    4   32    -15.31      0.00 
    8    4   32      2.44      0.00 
    1    5   32     -0.78      0.00 
    3    5   32    -21.12      0.00 
    5    5   32    -13.28      0.00 
    7    5   32    -11.28      0.00 
    0    6   32     12.46      0.00 
    2    6   32     -0.94      0.00 
    4    6   32    -16.51      0.00 
    6    6   32     -7.91      0.00 
    8    6   32     -8.25      0.00 
    1    7   32     17.71      0.00 
    3    7   32     -6.84      0.00 
    5    7   32    -21.69      0.00 
    7    7   32     -3.36      0.00 
    0    8   32     15.45      0.00 
    2    8   32     -7.06      0.00 
    4    8   32    -21.56      0.00 
    6    8   32     -3.73      0.00 
    8    8   32      8.11      0.00 
    1    9   32     16.31      0.00 
    3    9   32     10.09      0.00 
    5    9   32     -2.16      0.00 
    7    9   32    -15.79      0.00 
    0   10   32     26.27      0.00 
    2   10   32     15.40      0.00 
    4   10   32      0.43      0.00 
    6   10   32      5.62      0.00 
    1   11   32     21.58      0.00 
    3   11   32     -7.64      0.00 
    5   11   32     -8.65      0.00 
    0   12   32     16.21      0.00 
    2   12   32      6.27      0.00 
    4   12   32     -0.94      0.00 
    6   12   32    -24.15      0.00 
    1   13   32      3.61      0.00 
    3   13   32      2.47      0.00 
    5   13   32      4.73      0.00 
    0   14   32     14.84      0.00 
    2   14   32    -10.91      0.00 
    4   14   32    -20.73      0.00 
    1   15   32     -6.60      0.00 
    3   15   32    -16.09      0.00 
    0   16   32     30.57      0.00 
    2    1   33     -4.73      0.00 
    4    1   33      3.09      0.00 
    6    1   33     -6.32      0.00 
    1    2   33      6.38      0.00 
    3    2   33    -20.95      0.00 
    5    2   33      1.73      0.00 
    7    2   33     -7.97      0.00 
    2    3   33      0.97      0.00 
    4    3   33     18.56      0.00 
    6    3   33      3.48      0.00 
    1    4   33      3.21      0.00 
    3    4   33      0.25      0.00 
    5    4   33      6.69      0.00 
    7    4   33     -4.37      0.00 
    2    5   33    -15.11      0.00 
    4    5   33      9.81      0.00 
    6    5   33      5.87      0.00 
    1    6   33      1.16      0.00 
    3    6   33     -1.06      0.00 
    5    6   33      4.10      0.00 
    2    7   33    -12.46      0.00 
    4    7   33      6.12      0.00 
    6    7   33    -19.57      0.00 
    1    8   33      0.01      0.00 
    3    8   33      5.54      0.00 
    5    8   33      4.70      0.00 
    2    9   33     -3.73      0.00 
    4    9   33    -13.44      0.00 
    1   10   33     -5.23      0.00 
    3   10   33     -9.38      0.00 
    5   10   33     13.86      0.00 
    2   11   33     12.93      0.00 
    4   11   33     15.16      0.00 
    1   12   33      1.59      0.00 
    3   12   33      3.65      0.00 
    2   13   33     -2.27      0.00 
    0    0   34     15.77      0.00 
    2    0   34     -3.84      0.00 
    4    0   34      5.72      0.00 
    1    1   34      1.22      0.00 
    3    1   34     13.74      0.00 
    5    1   34    -13.74      0.00 
    0    2   34      4.81      0.00 
    2    2   34    -18.54      0.00 
    4    2   34     14.84      0.00 
    1    3   34     -9.96      0.00 
    3    3   34      2.51      0.00 
    5    3   34    -10.40      0.00 
    0    4   34     10.22      0.00 
    2    4   34      3.59      0.00 
    4    4   34      6.70      0.00 
    1    5   34     -6.13      0.00 
    3    5   34      9.36      0.00 
    0    6   34      3.17      0.00 
    2    6   34     -0.05      0.00 
    4    6   34     20.28      0.00 
    1    7   34     -2.09      0.00 
    3    7   34     24.95      0.00 
    0    8   34     10.52      0.00 
    2    8   34     12.28      0.00 
    1    9   34    -20.67      0.00 
    1    2   35     10.46      0.00 
    2    0    0    231.06      0.00 
    1    1    0   -275.96      0.00 
    0    2    0    268.41      0.00 
   21   15    0     -0.36      0.00 
   18   24    0     19.78      0.00 
   16   28    0     -8.75      0.00 
   12   34    0     -2.87      0.00 
   11   35    0    -22.96      0.00 
   10   36    0     -6.43      0.00 
    5   39    0     20.81      0.00 
    1    2    1    -85.62      0.00 
   22    9    1    -16.83      0.00 
   15   30    1    -10.46      0.00 
   14   31    1     -4.07      0.00 
    7   38    1     -5.62      0.00 
    0    0    2     42.00      0.00 
    1    1    2   -228.13      0.00 
    0    2    2   -564.09      0.00 
   22    8    2     -2.67      0.00 
   18   24    2      3.34      0.00 
   16   28    2     10.09      0.00 
   12   34    2    -16.26      0.00 
   11   35    2     16.07      0.00 
   10   36    2    -12.20      0.00 
    5   39    2      0.87      0.00 
   21   14    3     -6.05      0.00 
   17   26    3     -8.35      0.00 
   14   31    3    -12.46      0.00 
    7   38    3     -9.13      0.00 
   22    8    4      0.60      0.00 
   20   18    4    -13.74      0.00 
   19   21    4      1.61      0.00 
   16   28    4     -1.22      0.00 
   22    7    5      2.74      0.00 
   14   31    5     -4.68      0.00 
    8   37    5     17.39      0.00 
    4   39    5     -3.24      0.00 
   22    6    6     -0.69      0.00 
   21   13    6     -3.22      0.00 
   15   29    6      7.34      0.00 
    6   38    6      4.81      0.00 
    3   39    6      3.65      0.00 
   22    3    7      3.52      0.00 
   22    5    7     -6.90      0.00 
   21   12    7      3.16      0.00 
   20   17    7     -4.10      0.00 
   19   20    7     -2.84      0.00 
   18   23    7    -23.74      0.00 
   16   27    7     20.80      0.00 
   12   33    7      4.25      0.00 
   11   34    7     10.38      0.00 
   10   35    7     -5.92      0.00 
    9   36    7    -18.39      0.00 
    2   39    7     -2.06      0.00 
   22    0    8      6.01      0.00 
   22    2    8     13.68      0.00 
   21   11    8     11.73      0.00 
   20   16    8    -11.34      0.00 
   14   30    8     -7.13      0.00 
    7   37    8      0.00      0.00 
    1   39    8      7.53      0.00 
   21   10    9      6.46      0.00 
   15   28    9      1.52      0.00 
   21    9   10     -6.60      0.00 
   16   26   10     -2.16      0.00 
   12   32   10     -5.83      0.00 
   11   33   10      2.33      0.00 
   10   34   10     18.37      0.00 
    9   35   10    -13.48      0.00 
   21    8   11      5.91      0.00 
   14   29   11      8.69      0.00 
    7   36   11     15.00      0.00 
    1   38   11      1.29      0.00 
   21    5   12     13.65      0.00 
   19   17   12      7.85      0.00 
   18   20   12     -6.47      0.00 
    6   36   12     -7.33      0.00 
   21    2   13      0.18      0.00 
   20   11   13     -6.54      0.00 
   19   16   13     20.29      0.00 
   18   19   13     13.04      0.00 
   17   22   13     13.65      0.00 
   15   26   13      3.51      0.00 
    2   37   13     -2.50      0.00 
   20   10   14      8.40      0.00 
   18   18   14      5.44      0.00 
   17   21   14     -5.28      0.00 
   12   30   14     -3.72      0.00 
   11   31   14    -16.05      0.00 
    9   33   14      2.17      0.00 
    8   34   14     -5.02      0.00 
    4   36   14      2.33      0.00 
   20    7   15      2.49      0.00 
   18   17   15      4.10      0.00 
   17   20   15     16.86      0.00 
   13   28   15      0.62      0.00 
    7   34   15     -5.74      0.00 
    3   36   15     15.41      0.00 
   20    0   16     -1.94      0.00 
   20    2   16      8.61      0.00 
   20    4   16     -9.12      0.00 
   18   16   16     -7.11      0.00 
   17   19   16    -12.22      0.00 
    6   34   16    -16.93      0.00 
   19   10   17      5.43      0.00 
   17   18   17    -11.71      0.00 
   14   25   17     -0.12      0.00 
    5   34   17     11.68      0.00 
    2   35   17     -6.67      0.00 
   19    7   18      7.35      0.00 
   14   24   18      4.66      0.00 
   19    2   19     -1.72      0.00 
   18   11   19      6.45      0.00 
   14   23   19    -10.09      0.00 
    4   33   19     -4.52      0.00 
   18    8   20     -3.63      0.00 
   17   13   20      3.99      0.00 
   10   28   20      1.47      0.00 
    9   29   20      9.08      0.00 
    1   33   20      7.08      0.00 
   18    1   21     -0.25      0.00 
   18    3   21     -7.49      0.00 
   16   15   21     -1.07      0.00 
   15   18   21      3.12      0.00 
   10   27   21      5.80      0.00 
    9   28   21    -18.68      0.00 
    8   29   21      4.51      0.00 
    1   32   21     10.25      0.00 
   13   21   22      3.83      0.00 
   10   26   22     -2.58      0.00 
    9   27   22     -2.37      0.00 
    8   28   22     -4.76      0.00 
    3   31   22    -12.31      0.00 
   17    2   23      5.33      0.00 
   17    4   23     -5.68      0.00 
   16   11   23     15.01      0.00 
   13   20   23     -7.51      0.00 
    9   26   23      5.12      0.00 
    8   27   23     12.51      0.00 
    3   30   23     14.55      0.00 
   16    8   24     -2.05      0.00 
   12   20   24     21.79      0.00 
    3   29   24      2.97      0.00 
   16    1   25      5.29      0.00 
   14   13   25     -4.38      0.00 
   13   16   25      3.12      0.00 
    1   28   25     -7.00      0.00 
   15    3   26      2.31      0.00 
   15    5   26      5.50      0.00 
   14   10   26     -4.93      0.00 
   11   19   26      0.50      0.00 
    4   26   26     -6.25      0.00 
    1   27   26     -9.34      0.00 
   14    7   27      7.85      0.00 
    9   20   27     -6.91      0.00 
    5   24   27    -15.83      0.00 
   13    7   28    -13.58      0.00 
   12   12   28     12.04      0.00 
    8   20   28     -5.16      0.00 
    7   21   28     -3.79      0.00 
    6   22   28      3.50      0.00 
    2   24   28    -10.02      0.00 
   11   12   29    -14.24      0.00 
    9   16   29     -6.76      0.00 
    3   22   29     -1.12      0.00 
   11    7   30     20.71      0.00 
    7   17   30      9.84      0.00 
    6   18   30      1.03      0.00 
    5   19   30    -19.63      0.00 
    4   20   30     -4.34      0.00 
    1   21   30      8.14      0.00 
   10    7   31    -12.82      0.00 
    9   10   31     -9.91      0.00 
    8   13   31     19.14      0.00 
    7   14   31      4.46      0.00 
    3   18   31    -17.69      0.00 
    2   19   31     -8.19      0.00 
    9    5   32     -0.14      0.00 
    7   11   32    -17.06      0.00 
    2   16   32      6.79      0.00 
    1   17   32      3.28      0.00 
    8    1   33      7.54      0.00 
    7    6   33     -5.54      0.00 
    6    9   33    -12.25      0.00 
    1   14   33    -11.56      0.00 
    6    0   34     15.68      0.00 
    6    2   34     22.77      0.00 
    5    5   34      5.88      0.00 
    4    8   34      4.35      0.00 
    3    9   34      2.12      0.00 
    0   10   34    -12.78      0.00 
    2   10   34     -2.12      0.00 
    2    1   35     -1.31      0.00 
    3    2   35     -6.48      0.00 
    2    3   35      5.53      0.00 
    1    4   35      6.57      0.00 
    0    0    0      0.00      0.00 
# SQUEEZE RESULTS (Version =  21116) 
# Note: Data are Listed for all Voids in the P1 Unit Cell 
# i.e. Centre of Gravity, Solvent Accessible Volume, 
# Recovered number of Electrons in the Void and 
# Details about the Squeezed Material 
loop_ 
  _platon_squeeze_void_nr 
  _platon_squeeze_void_average_x 
  _platon_squeeze_void_average_y 
  _platon_squeeze_void_average_z 
  _platon_squeeze_void_volume 
  _platon_squeeze_void_count_electrons 
  _platon_squeeze_void_content 
   1  0.293 -0.032 -0.025      9164      2023 ' ' 
# Missing Reflections Below sin(th)/lambda = 0.25 
loop_ 
  _platon_missing_refln_index_h 
  _platon_missing_refln_index_k 
  _platon_missing_refln_index_l 
  _platon_missing_refln_theta 
    2    0    0     2.355 
    1    1    0     1.351 
    0    2    0     1.325 
    1    2    1     1.926 
    0    0    2     1.507 
    1    1    2     2.024 
    0    2    2     2.007 
_platon_squeeze_void_probe_radius                  1.20 
_platon_squeeze_details 
) 
TITL ncs212    I b a m      R = 0.15 
CELL   17.2986   30.7451   27.0210     90.00     90.00     90.00 
SPGR Ibam 
# Solvent Accessible Volume =      9105 
# Electrons Found in S.A.V. =      1984 
# Note: Atoms in Void as Cxxx and Qxxx all others 
Q101 0.773 0.977 0.066 !       8.55 eA-3 
Q102 0.419 0.506 0.148 !       8.32 eA-3 
Q103 0.972 0.095 0.157 !       5.18 eA-3 
C104 0.013 0.126 0.229 !       4.01 eA-3 
C105 0.984 0.896 0.198 !       3.36 eA-3 
C106 0.227 0.422-0.001 !       3.24 eA-3 
C107 0.465 0.273-0.001 !       2.86 eA-3 
C108 0.447 0.345 0.226 !       2.44 eA-3 
C109 0.219 0.117 0.002 !       2.42 eA-3 
C110 0.730 0.305 0.004 !       2.39 eA-3 
C111 0.940 0.870 0.266 !       2.33 eA-3 
Q112 0.500 0.500 0.164 !       2.30 eA-3 
C113 0.438 0.476 0.181 !       2.22 eA-3 
C114 0.707 0.336 0.000 !       2.08 eA-3 
C115 0.674 0.459 0.242 !       2.05 eA-3 
C116 0.517 0.258-0.002 !       2.01 eA-3 
C117 0.675 0.853 0.519 !       2.00 eA-3 
C118 0.175 0.353 0.019 !       2.00 eA-3 
Q119 0.498 0.406 0.001 !       1.97 eA-3 
C120 0.184 0.359 0.998 !       1.95 eA-3 
C121 0.044 0.249 0.457 !       1.95 eA-3 
C122 0.351 0.490 0.229 !       1.92 eA-3 
C123 0.293 0.883-0.001 !       1.90 eA-3 
Q124 0.523 0.422 0.000 !       1.90 eA-3 
C125 0.906 0.016 0.221 !       1.83 eA-3 
C126 0.378 0.266 0.002 !       1.78 eA-3 
C127 0.571 0.733 0.048 !       1.77 eA-3 
C128 0.143 0.501 0.073 !       1.76 eA-3 
C129 0.649 0.977 0.080 !       1.75 eA-3 
Q130 0.638 0.485 0.319 !       1.69 eA-3 
Q131 0.529 0.578 0.016 !       1.68 eA-3 
C132 0.703 0.172-0.002 !       1.57 eA-3 
C133 0.276 0.166 0.015 !       1.56 eA-3 
C134 0.192 0.242 0.001 !       1.52 eA-3 
C135 0.042 0.671 0.134 !       1.46 eA-3 
C136 0.458 0.829 0.366 !       1.46 eA-3 
Q137 0.110 0.987 0.935 !       1.43 eA-3 
Q138 0.610 0.487 0.435 !       1.43 eA-3 
C139 0.785 0.500 0.077 !       1.43 eA-3 
C140 0.329 0.918 0.291 !       1.43 eA-3 
C141 0.982 0.662 0.640 !       1.40 eA-3 
C142 0.669 0.195-0.001 !       1.40 eA-3 
Q143 0.115 0.055-0.001 !       1.37 eA-3 
C144 0.115 0.242 0.001 !       1.35 eA-3 
Q145 0.094 0.151 0.242 !       1.35 eA-3 
C146 0.726 0.271 0.012 !       1.35 eA-3 
C147 0.355 0.103 0.196 !       1.33 eA-3 
C148 0.650 0.966 0.304 !       1.33 eA-3 
C149 0.440 0.742-0.002 !       1.33 eA-3 
C150 0.293 0.937 0.294 !       1.33 eA-3 
C151 0.837 0.781-0.001 !       1.31 eA-3 
C152 0.689 0.827 0.053 !       1.30 eA-3 
Q153 0.380 0.453-0.002 !       1.28 eA-3 
C154 0.498 0.126 0.170 !       1.28 eA-3 
C155 0.531 0.635 0.203 !       1.27 eA-3 
C156 0.911 0.478 0.295 !       1.25 eA-3 
C157 0.269 0.258-0.002 !       1.19 eA-3 
C158 0.403 0.766 0.000 !       1.17 eA-3 
C159 0.414 0.225 0.064 !       1.15 eA-3 
C160 0.786 0.554 0.027 !       1.14 eA-3 
C161 0.976 0.673 0.132 !       1.13 eA-3 
Q162 0.990 0.156 0.327 !       1.13 eA-3 
C163 0.255 0.951 0.301 !       1.13 eA-3 
C164 0.631 0.156 0.054 !       1.13 eA-3 
Q165 0.512 0.526 0.054 !       1.12 eA-3 
Q166 0.417 0.469-0.003 !       1.12 eA-3 
C167 0.930 0.195 0.000 !       1.12 eA-3 
Q168 0.031 0.885 0.440 !       1.11 eA-3 
C169 0.752 0.359 0.001 !       1.10 eA-3 
C170 0.290 0.805 0.484 !       1.10 eA-3 
C171 0.855 0.681 0.042 !       1.09 eA-3 
C172 0.702 1.002 0.294 !       1.09 eA-3 
C173 0.579 0.025 0.070 !       1.08 eA-3 
C174 0.860 0.683 0.422 !       1.08 eA-3 
C175 0.545 0.788 0.074 !       1.08 eA-3 
C176 0.869 0.657 0.015 !       1.06 eA-3 
C177 0.047 0.612 0.148 !       1.06 eA-3 
C178 0.451 0.931 0.220 !       1.06 eA-3 
C179 0.021 0.705 0.438 !       1.05 eA-3 
C180 0.661 0.053 0.421 !       1.05 eA-3 
C181 0.916 0.556 0.193 !       1.05 eA-3 
C182 0.487 0.862 0.139 !       1.05 eA-3 
C183 0.453 0.809 0.406 !       1.05 eA-3 
C184 0.943 0.885 0.313 !       1.05 eA-3 
C185 0.406 0.186 0.062 !       1.05 eA-3 
C186 0.657 0.158 0.460 !       1.05 eA-3 
C187 0.840 0.490 0.179 !       1.05 eA-3 
C188 0.385 0.119 0.147 !       1.04 eA-3 
C189 0.065 0.673 0.157 !       1.04 eA-3 
C190 0.486 0.189 0.123 !       1.03 eA-3 
Q191 0.995 0.046 0.078 !       1.03 eA-3 
C192 0.943 0.914 0.304 !       1.02 eA-3 
Q193 0.578 0.383 0.350 !       1.01 eA-3 
C194 0.018 0.522 0.415 !       1.01 eA-3 
C195 0.156 0.412 0.032 !       1.00 eA-3 
C196 0.968 0.599 0.163 !       1.00 eA-3 
C197 0.831 0.460 0.195 !       1.00 eA-3 
C198 0.568 0.993 0.423 !       1.00 eA-3 
C199 0.099 0.608 0.180 !       1.00 eA-3 
) 
;
_shelx_fab_checksum              92017
loop_
_space_group_symop_operation_xyz
'x, y, z'
'-x, -y, z'
'-x+1/2, y+1/2, -z'
'x+1/2, -y+1/2, -z'
'x+1/2, y+1/2, z+1/2'
'-x+1/2, -y+1/2, z+1/2'
'-x+1, y+1, -z+1/2'
'x+1, -y+1, -z+1/2'
'-x, -y, -z'
'x, y, -z'
'x-1/2, -y-1/2, z'
'-x-1/2, y-1/2, z'
'-x+1/2, -y+1/2, -z+1/2'
'x+1/2, y+1/2, -z+1/2'
'x, -y, z+1/2'
'-x, y, z+1/2'
loop_
_atom_site_label
_atom_site_type_symbol
_atom_site_fract_x
_atom_site_fract_y
_atom_site_fract_z
_atom_site_U_iso_or_equiv
_atom_site_adp_type
_atom_site_occupancy
_atom_site_site_symmetry_order
_atom_site_calc_flag
_atom_site_refinement_flags_posn
_atom_site_refinement_flags_adp
_atom_site_refinement_flags_occupancy
_atom_site_disorder_assembly
_atom_site_disorder_group
Zr1 Zr 0.39936(3) 0.49146(2) 0.56573(2) 0.03146(16) Uani 1 1 d . . . . .
Zr2 Zr 0.52222(4) 0.42153(2) 0.500000 0.02581(17) Uani 1 2 d S T P . .
O1 O 0.250000 0.250000 0.750000 0.0654(18) Uani 1 2 d S . P . .
Si2 Si 0.31359(10) 0.23061(5) 0.71255(5) 0.0482(4) Uani 1 1 d . . . . .
C3 C 0.3432(3) 0.27762(16) 0.67248(19) 0.0457(13) Uani 1 1 d . . . . .
C4 C 0.3042(4) 0.3165(2) 0.6750(3) 0.075(2) Uani 1 1 d . . . . .
H4A H 0.260744 0.318882 0.696280 0.090 Uiso 1 1 calc R U . . .
C5 C 0.3266(4) 0.35224(19) 0.6473(2) 0.071(2) Uani 1 1 d . . . . .
H5A H 0.301324 0.379397 0.651626 0.085 Uiso 1 1 calc R U . . .
C6 C 0.3846(3) 0.34831(15) 0.61424(19) 0.0440(13) Uani 1 1 d . . . . .
C7 C 0.4242(4) 0.30982(18) 0.6103(2) 0.0633(18) Uani 1 1 d . . . . .
H7A H 0.466172 0.307178 0.587832 0.076 Uiso 1 1 calc R U . . .
C8 C 0.4025(4) 0.27471(18) 0.6396(2) 0.0661(19) Uani 1 1 d . . . . .
H8A H 0.429750 0.248015 0.636623 0.079 Uiso 1 1 calc R U . . .
C9 C 0.4082(3) 0.38630(15) 0.5831(2) 0.0424(13) Uani 1 1 d . . . . .
O10 O 0.3788(2) 0.42311(11) 0.59321(14) 0.0524(10) Uani 1 1 d . . . . .
O11 O 0.4565(2) 0.37884(9) 0.54894(11) 0.0379(8) Uani 1 1 d . . . . .
C12 C 0.2668(3) 0.18796(16) 0.67304(18) 0.0451(13) Uani 1 1 d . . . . .
C13 C 0.2123(4) 0.20012(17) 0.6385(2) 0.0623(18) Uani 1 1 d . . . . .
H13A H 0.200171 0.230063 0.634700 0.075 Uiso 1 1 calc R U . . .
C14 C 0.1747(4) 0.16956(17) 0.6092(2) 0.0588(17) Uani 1 1 d . . . . .
H14A H 0.137968 0.178871 0.585336 0.071 Uiso 1 1 calc R U . . .
C15 C 0.1903(3) 0.12584(16) 0.61459(19) 0.0448(13) Uani 1 1 d . . . . .
C16 C 0.2415(4) 0.11301(17) 0.6501(2) 0.070(2) Uani 1 1 d . . . . .
H16A H 0.250920 0.082905 0.655243 0.084 Uiso 1 1 calc R U . . .
C17 C 0.2808(4) 0.14414(18) 0.6793(2) 0.071(2) Uani 1 1 d . . . . .
H17A H 0.317148 0.134793 0.703391 0.085 Uiso 1 1 calc R U . . .
C18 C 0.1500(3) 0.09302(16) 0.58384(19) 0.0421(12) Uani 1 1 d . . . . .
O19 O 0.1076(2) 0.10829(10) 0.54895(12) 0.0371(8) Uani 1 1 d . . . . .
O20 O 0.1587(2) 0.05364(11) 0.59307(14) 0.0547(10) Uani 1 1 d . . . . .
C21 C 0.3953(4) 0.2080(2) 0.7465(3) 0.079(2) Uani 1 1 d . . . . .
H21A H 0.433317 0.196378 0.723098 0.118 Uiso 1 1 calc R U . . .
H21B H 0.419386 0.230869 0.766550 0.118 Uiso 1 1 calc R U . . .
H21C H 0.377204 0.184566 0.768226 0.118 Uiso 1 1 calc R U . . .
O30 O 0.2823(3) 0.48251(17) 0.56485(19) 0.0829(15) Uani 1 1 d . . . . .
O40 O 0.4111(4) 0.49285(17) 0.64120(16) 0.106(2) Uani 1 1 d . . . . .
O50 O 0.3873(4) 0.52935(17) 0.500000 0.074(2) Uani 1 2 d S T P . .
O60 O 0.4081(4) 0.4530(2) 0.500000 0.077(2) Uani 1 2 d S T P . .
O70 O 0.4890(2) 0.53848(13) 0.56561(18) 0.0735(15) Uani 1 1 d . . . . .
loop_
_atom_site_aniso_label
_atom_site_aniso_U_11
_atom_site_aniso_U_22
_atom_site_aniso_U_33
_atom_site_aniso_U_23
_atom_site_aniso_U_13
_atom_site_aniso_U_12
Zr1 0.0534(3) 0.0147(2) 0.0263(2) 0.00159(16) 0.0090(2) -0.00142(19)
Zr2 0.0496(4) 0.0095(2) 0.0183(3) 0.000 0.000 -0.0022(3)
O1 0.112(5) 0.042(3) 0.042(3) 0.001(2) 0.013(3) -0.038(3)
Si2 0.0790(11) 0.0323(7) 0.0333(8) 0.0091(6) -0.0086(7) -0.0272(8)
C3 0.069(4) 0.028(3) 0.040(3) 0.004(2) 0.003(3) -0.020(3)
C4 0.098(5) 0.049(4) 0.077(5) 0.022(3) 0.045(4) -0.004(4)
C5 0.099(5) 0.037(3) 0.078(5) 0.018(3) 0.048(4) 0.003(3)
C6 0.072(4) 0.021(2) 0.039(3) 0.004(2) 0.015(3) -0.009(2)
C7 0.084(4) 0.033(3) 0.073(4) 0.021(3) 0.035(3) 0.000(3)
C8 0.098(5) 0.025(3) 0.075(4) 0.015(3) 0.027(4) 0.000(3)
C9 0.067(4) 0.017(2) 0.043(3) 0.002(2) 0.012(3) -0.005(2)
O10 0.083(3) 0.0229(18) 0.052(2) 0.0112(16) 0.028(2) -0.0039(18)
O11 0.067(2) 0.0171(15) 0.0296(17) 0.0000(12) 0.0069(16) -0.0047(15)
C12 0.069(4) 0.029(2) 0.037(3) 0.009(2) -0.008(3) -0.014(2)
C13 0.109(5) 0.022(2) 0.056(4) 0.007(2) -0.028(3) -0.015(3)
C14 0.092(5) 0.031(3) 0.053(3) 0.002(2) -0.035(3) -0.011(3)
C15 0.069(4) 0.028(2) 0.038(3) 0.004(2) -0.015(3) -0.013(3)
C16 0.114(5) 0.024(3) 0.071(4) 0.004(3) -0.046(4) -0.004(3)
C17 0.100(5) 0.035(3) 0.078(5) 0.003(3) -0.052(4) -0.009(3)
C18 0.062(3) 0.026(2) 0.038(3) 0.004(2) -0.009(2) -0.007(2)
O19 0.061(2) 0.0203(16) 0.0302(17) 0.0017(13) -0.0051(15) -0.0068(15)
O20 0.085(3) 0.0227(18) 0.056(2) 0.0034(16) -0.030(2) -0.0065(18)
C21 0.105(6) 0.058(4) 0.074(5) 0.014(3) -0.034(4) -0.035(4)
O30 0.049(3) 0.081(4) 0.119(4) 0.001(3) 0.010(3) -0.026(2)
O40 0.216(7) 0.081(4) 0.022(2) 0.002(2) -0.019(3) 0.001(4)
O50 0.167(7) 0.032(3) 0.023(3) 0.000 0.000 -0.045(4)
O60 0.130(6) 0.078(5) 0.024(3) 0.000 0.000 0.067(4)
O70 0.059(3) 0.045(2) 0.117(4) 0.057(3) -0.015(2) -0.005(2)
loop_
_atom_type_symbol
_atom_type_description
_atom_type_scat_dispersion_real
_atom_type_scat_dispersion_imag
_atom_type_scat_source
C C 0.0033 0.0016 'International Tables Vol C Tables 4.2.6.8 and 6.1.1.4'
H H 0.0000 0.0000 'International Tables Vol C Tables 4.2.6.8 and 6.1.1.4'
N N 0.0061 0.0033 'International Tables Vol C Tables 4.2.6.8 and 6.1.1.4'
O O 0.0106 0.0060 'International Tables Vol C Tables 4.2.6.8 and 6.1.1.4'
Si Si 0.0817 0.0704 'International Tables Vol C Tables 4.2.6.8 and 6.1.1.4'
Zr Zr -2.9673 0.5597 'International Tables Vol C Tables 4.2.6.8 and 6.1.1.4'
loop_
_geom_angle_atom_site_label_1
_geom_angle_atom_site_label_2
_geom_angle_atom_site_label_3
_geom_angle
_geom_angle_site_symmetry_1
_geom_angle_site_symmetry_3
_geom_angle_publ_flag
O30 Zr1 O40 96.4(2) . . ?
O30 Zr1 O70 144.74(19) . . ?
O40 Zr1 O70 85.1(2) . . ?
O30 Zr1 O50 88.1(2) . . ?
O40 Zr1 O50 145.71(18) . . ?
O70 Zr1 O50 72.41(19) . . ?
O30 Zr1 O60 89.2(2) . . ?
O40 Zr1 O60 146.1(2) . . ?
O70 Zr1 O60 108.9(3) . . ?
O50 Zr1 O60 67.53(19) . . ?
O30 Zr1 O70 146.76(18) . 2_665 ?
O40 Zr1 O70 85.5(2) . 2_665 ?
O70 Zr1 O70 68.48(18) . 2_665 ?
O50 Zr1 O70 108.8(2) . 2_665 ?
O60 Zr1 O70 72.4(2) . 2_665 ?
O30 Zr1 O10 73.89(18) . . ?
O40 Zr1 O10 73.00(18) . . ?
O70 Zr1 O10 138.64(15) . . ?
O50 Zr1 O10 140.06(16) . . ?
O60 Zr1 O10 76.67(19) . . ?
O70 Zr1 O10 75.04(16) 2_665 . ?
O30 Zr1 O20 71.38(18) . 12_665 ?
O40 Zr1 O20 72.79(19) . 12_665 ?
O70 Zr1 O20 75.58(16) . 12_665 ?
O50 Zr1 O20 76.66(18) . 12_665 ?
O60 Zr1 O20 139.73(17) . 12_665 ?
O70 Zr1 O20 139.30(15) 2_665 12_665 ?
O10 Zr1 O20 127.17(13) . 12_665 ?
O30 Zr1 Zr2 118.89(15) . 9_666 ?
O40 Zr1 Zr2 116.90(16) . 9_666 ?
O70 Zr1 Zr2 36.02(11) . 9_666 ?
O50 Zr1 Zr2 36.40(16) . 9_666 ?
O60 Zr1 Zr2 88.50(18) . 9_666 ?
O70 Zr1 Zr2 88.75(13) 2_665 9_666 ?
O10 Zr1 Zr2 160.64(9) . 9_666 ?
O20 Zr1 Zr2 72.14(9) 12_665 9_666 ?
O30 Zr1 Zr2 120.80(15) . . ?
O40 Zr1 Zr2 117.18(18) . . ?
O70 Zr1 Zr2 88.51(14) . . ?
O50 Zr1 Zr2 88.41(17) . . ?
O60 Zr1 Zr2 36.63(16) . . ?
O70 Zr1 Zr2 35.73(11) 2_665 . ?
O10 Zr1 Zr2 72.01(9) . . ?
O20 Zr1 Zr2 160.78(9) 12_665 . ?
Zr2 Zr1 Zr2 88.659(16) 9_666 . ?
O30 Zr1 Zr1 178.94(16) . 2_665 ?
O40 Zr1 Zr1 84.2(2) . 2_665 ?
O70 Zr1 Zr1 34.42(11) . 2_665 ?
O50 Zr1 Zr1 90.9(2) . 2_665 ?
O60 Zr1 Zr1 90.7(2) . 2_665 ?
O70 Zr1 Zr1 34.06(11) 2_665 2_665 ?
O10 Zr1 Zr1 107.12(11) . 2_665 ?
O20 Zr1 Zr1 108.07(11) 12_665 2_665 ?
Zr2 Zr1 Zr1 60.050(14) 9_666 2_665 ?
Zr2 Zr1 Zr1 59.473(15) . 2_665 ?
O30 Zr1 Zr1 89.34(15) . 10_556 ?
O40 Zr1 Zr1 174.2(2) . 10_556 ?
O70 Zr1 Zr1 89.91(13) . 10_556 ?
O50 Zr1 Zr1 33.67(13) . 10_556 ?
O60 Zr1 Zr1 33.88(14) . 10_556 ?
O70 Zr1 Zr1 89.91(13) 2_665 10_556 ?
O10 Zr1 Zr1 109.21(10) . 10_556 ?
O20 Zr1 Zr1 108.89(10) 12_665 10_556 ?
Zr2 Zr1 Zr1 59.369(8) 9_666 10_556 ?
Zr2 Zr1 Zr1 59.566(9) . 10_556 ?
Zr1 Zr1 Zr1 90.0 2_665 10_556 ?
O70 Zr2 O70 109.9(3) 2_665 9_666 ?
O70 Zr2 O50 70.75(15) 2_665 9_666 ?
O70 Zr2 O50 70.75(15) 9_666 9_666 ?
O70 Zr2 O11 142.25(14) 2_665 10_556 ?
O70 Zr2 O11 78.40(15) 9_666 10_556 ?
O50 Zr2 O11 142.40(9) 9_666 10_556 ?
O70 Zr2 O11 78.40(15) 2_665 . ?
O70 Zr2 O11 142.25(14) 9_666 . ?
O50 Zr2 O11 142.40(9) 9_666 . ?
O11 Zr2 O11 74.59(17) 10_556 . ?
O70 Zr2 O19 78.64(15) 2_665 11_665 ?
O70 Zr2 O19 142.60(14) 9_666 11_665 ?
O50 Zr2 O19 78.76(18) 9_666 11_665 ?
O11 Zr2 O19 117.80(12) 10_556 11_665 ?
O11 Zr2 O19 74.48(13) . 11_665 ?
O70 Zr2 O19 142.60(14) 2_665 4_556 ?
O70 Zr2 O19 78.64(15) 9_666 4_556 ?
O50 Zr2 O19 78.76(18) 9_666 4_556 ?
O11 Zr2 O19 74.48(13) 10_556 4_556 ?
O11 Zr2 O19 117.80(12) . 4_556 ?
O19 Zr2 O19 74.55(17) 11_665 4_556 ?
O70 Zr2 O60 70.73(15) 2_665 . ?
O70 Zr2 O60 70.73(15) 9_666 . ?
O50 Zr2 O60 109.9(3) 9_666 . ?
O11 Zr2 O60 78.29(18) 10_556 . ?
O11 Zr2 O60 78.29(18) . . ?
O19 Zr2 O60 142.35(9) 11_665 . ?
O19 Zr2 O60 142.35(9) 4_556 . ?
O70 Zr2 Zr1 35.14(11) 2_665 2_665 ?
O70 Zr2 Zr1 90.93(13) 9_666 2_665 ?
O50 Zr2 Zr1 35.61(9) 9_666 2_665 ?
O11 Zr2 Zr1 166.64(9) 10_556 2_665 ?
O11 Zr2 Zr1 110.82(8) . 2_665 ?
O19 Zr2 Zr1 75.56(8) 11_665 2_665 ?
O19 Zr2 Zr1 111.57(9) 4_556 2_665 ?
O60 Zr2 Zr1 90.68(17) . 2_665 ?
O70 Zr2 Zr1 90.93(13) 2_665 9_666 ?
O70 Zr2 Zr1 35.14(11) 9_666 9_666 ?
O50 Zr2 Zr1 35.61(9) 9_666 9_666 ?
O11 Zr2 Zr1 110.82(8) 10_556 9_666 ?
O11 Zr2 Zr1 166.64(9) . 9_666 ?
O19 Zr2 Zr1 111.57(9) 11_665 9_666 ?
O19 Zr2 Zr1 75.56(8) 4_556 9_666 ?
O60 Zr2 Zr1 90.68(17) . 9_666 ?
Zr1 Zr2 Zr1 61.264(17) 2_665 9_666 ?
O70 Zr2 Zr1 90.71(13) 2_665 10_556 ?
O70 Zr2 Zr1 35.23(12) 9_666 10_556 ?
O50 Zr2 Zr1 90.59(17) 9_666 10_556 ?
O11 Zr2 Zr1 75.30(8) 10_556 10_556 ?
O11 Zr2 Zr1 111.11(10) . 10_556 ?
O19 Zr2 Zr1 166.90(8) 11_665 10_556 ?
O19 Zr2 Zr1 111.13(8) 4_556 10_556 ?
O60 Zr2 Zr1 35.50(10) . 10_556 ?
Zr1 Zr2 Zr1 91.343(16) 2_665 10_556 ?
Zr1 Zr2 Zr1 60.479(16) 9_666 10_556 ?
O70 Zr2 Zr1 35.23(12) 2_665 . ?
O70 Zr2 Zr1 90.71(13) 9_666 . ?
O50 Zr2 Zr1 90.59(17) 9_666 . ?
O11 Zr2 Zr1 111.11(10) 10_556 . ?
O11 Zr2 Zr1 75.31(8) . . ?
O19 Zr2 Zr1 111.13(8) 11_665 . ?
O19 Zr2 Zr1 166.90(8) 4_556 . ?
O60 Zr2 Zr1 35.50(10) . . ?
Zr1 Zr2 Zr1 60.478(16) 2_665 . ?
Zr1 Zr2 Zr1 91.343(16) 9_666 . ?
Zr1 Zr2 Zr1 60.867(17) 10_556 . ?
Si2 O1 Si2 180.0 . 13_556 ?
O1 Si2 C21 110.8(3) . . ?
O1 Si2 C12 108.8(2) . . ?
C21 Si2 C12 110.8(3) . . ?
O1 Si2 C3 105.31(19) . . ?
C21 Si2 C3 111.9(3) . . ?
C12 Si2 C3 109.1(2) . . ?
C8 C3 C4 117.4(5) . . ?
C8 C3 Si2 122.1(4) . . ?
C4 C3 Si2 120.5(4) . . ?
C3 C4 C5 121.8(6) . . ?
C6 C5 C4 119.6(6) . . ?
C5 C6 C7 120.0(5) . . ?
C5 C6 C9 120.4(5) . . ?
C7 C6 C9 119.5(5) . . ?
C6 C7 C8 119.4(5) . . ?
C3 C8 C7 121.7(6) . . ?
O11 C9 O10 125.7(4) . . ?
O11 C9 C6 116.7(4) . . ?
O10 C9 C6 117.6(4) . . ?
C9 O10 Zr1 134.0(3) . . ?
C9 O11 Zr2 132.5(3) . . ?
C13 C12 C17 117.9(5) . . ?
C13 C12 Si2 119.4(4) . . ?
C17 C12 Si2 122.6(4) . . ?
C12 C13 C14 121.5(5) . . ?
C15 C14 C13 120.5(5) . . ?
C16 C15 C14 118.9(5) . . ?
C16 C15 C18 120.2(5) . . ?
C14 C15 C18 120.8(5) . . ?
C15 C16 C17 120.6(5) . . ?
C12 C17 C16 120.6(5) . . ?
O20 C18 O19 124.9(5) . . ?
O20 C18 C15 119.5(5) . . ?
O19 C18 C15 115.6(4) . . ?
C18 O19 Zr2 132.6(3) . 11_565 ?
C18 O20 Zr1 134.1(3) . 12_655 ?
Zr1 O50 Zr1 112.7(3) . 10_556 ?
Zr1 O50 Zr2 108.0(2) . 9_666 ?
Zr1 O50 Zr2 108.0(2) 10_556 9_666 ?
Zr1 O60 Zr1 112.2(3) 10_556 . ?
Zr1 O60 Zr2 107.9(2) 10_556 . ?
Zr1 O60 Zr2 107.9(2) . . ?
Zr1 O70 Zr1 111.52(18) . 2_665 ?
Zr1 O70 Zr2 108.84(19) . 9_666 ?
Zr1 O70 Zr2 109.0(2) 2_665 9_666 ?
loop_
_geom_bond_atom_site_label_1
_geom_bond_atom_site_label_2
_geom_bond_distance
_geom_bond_site_symmetry_2
_geom_bond_publ_flag
Zr1 O30 2.043(4) . ?
Zr1 O40 2.050(4) . ?
Zr1 O70 2.120(4) . ?
Zr1 O50 2.134(3) . ?
Zr1 O60 2.139(4) . ?
Zr1 O70 2.140(4) 2_665 ?
Zr1 O10 2.257(3) . ?
Zr1 O20 2.282(3) 12_665 ?
Zr1 Zr2 3.4857(6) 9_666 ?
Zr1 Zr2 3.5061(7) . ?
Zr1 Zr1 3.5212(10) 2_665 ?
Zr1 Zr1 3.5520(9) 10_556 ?
Zr2 O70 2.166(4) 2_665 ?
Zr2 O70 2.166(4) 9_666 ?
Zr2 O50 2.175(6) 9_666 ?
Zr2 O11 2.183(3) 10_556 ?
Zr2 O11 2.183(3) . ?
Zr2 O19 2.184(3) 11_665 ?
Zr2 O19 2.184(3) 4_556 ?
Zr2 O60 2.198(6) . ?
O1 Si2 1.6092(18) . ?
O1 Si2 1.6092(18) 13_556 ?
Si2 C21 1.824(7) . ?
Si2 C12 1.875(5) . ?
Si2 C3 1.877(5) . ?
C3 C8 1.359(8) . ?
C3 C4 1.373(8) . ?
C4 C5 1.385(8) . ?
C5 C6 1.348(8) . ?
C6 C7 1.372(8) . ?
C6 C9 1.497(6) . ?
C7 C8 1.391(7) . ?
C9 O11 1.265(6) . ?
C9 O10 1.271(6) . ?
C12 C13 1.377(7) . ?
C12 C17 1.379(7) . ?
C13 C14 1.391(7) . ?
C14 C15 1.379(7) . ?
C15 C16 1.364(7) . ?
C15 C18 1.482(7) . ?
C16 C17 1.414(8) . ?
C18 O20 1.245(6) . ?
C18 O19 1.283(6) . ?
