#------------------------------------------------------------------------------
#$Date: 2020-08-06 16:01:58 +0300 (Thu, 06 Aug 2020) $
#$Revision: 254903 $
#$URL: file:///home/coder/svn-repositories/cod/cif/7/12/66/7126693.cif $
#------------------------------------------------------------------------------
#
# This file is available in the Crystallography Open Database (COD),
# http://www.crystallography.net/
#
# All data on this site have been placed in the public domain by the
# contributors.
#
data_7126693
loop_
_publ_author_name
'Sapianik, Aleksandr A.'
'Kovalenko, Konstantin A.'
'Samsonenko, Denis G.'
'Barsukova, Marina O.'
'Dybtsev, Danil N.'
'Fedin, Vladimir P.'
_publ_section_title
;
 Exceptionally effective benzene/cyclohexane separation using a
 nitro-decorated metal-organic framework.
;
_journal_issue                   59
_journal_name_full
'Chemical communications (Cambridge, England)'
_journal_page_first              8241
_journal_page_last               8244
_journal_paper_doi               10.1039/d0cc03227a
_journal_volume                  56
_journal_year                    2020
_chemical_formula_sum            'C40 H23 Li2 N5 O18 Zn2'
_chemical_formula_weight         1006.25
_space_group_crystal_system      monoclinic
_space_group_IT_number           15
_space_group_name_Hall           '-C 2yc'
_space_group_name_H-M_alt        'C 1 2/c 1'
_atom_sites_solution_hydrogens   geom
_atom_sites_solution_primary     dual
_atom_sites_solution_secondary   difmap
_audit_creation_method           SHELXL-2018/3
_audit_update_record
;
2020-03-26 deposited with the CCDC.	2020-06-12 downloaded from the CCDC.
;
_cell_angle_alpha                90
_cell_angle_beta                 117.21(2)
_cell_angle_gamma                90
_cell_formula_units_Z            4
_cell_length_a                   18.477(3)
_cell_length_b                   17.976(3)
_cell_length_c                   17.533(3)
_cell_measurement_reflns_used    14418
_cell_measurement_temperature    100(2)
_cell_measurement_theta_max      30.0
_cell_measurement_theta_min      2.7
_cell_volume                     5179.0(18)
_computing_cell_refinement       'XDS (Kabsch, 2010)'
_computing_data_collection       'Marccd (Doyle, 2011)'
_computing_data_reduction        'XDS (Kabsch, 2010)'
_computing_molecular_graphics    'ShelXle (H\"ubschle, 2011)'
_computing_publication_material  'CIFTAB (Sheldrick, 2015)'
_computing_structure_refinement  'SHELXL-2018 (Sheldrick, 2015)'
_computing_structure_solution    'SHELXT-2018 (Sheldrick, 2015)'
_diffrn_ambient_temperature      100(2)
_diffrn_detector_area_resol_mean 12.4
_diffrn_measured_fraction_theta_full 0.994
_diffrn_measured_fraction_theta_max 0.990
_diffrn_measurement_device_type  'Rayonix SX-165 CCD'
_diffrn_measurement_method       '\f scan'
_diffrn_radiation_monochromator  'Double Crystal Monochromator'
_diffrn_radiation_source         synchrotron
_diffrn_radiation_type           synchrotron
_diffrn_radiation_wavelength     0.79312
_diffrn_reflns_av_R_equivalents  0.0589
_diffrn_reflns_av_unetI/netI     0.0436
_diffrn_reflns_Laue_measured_fraction_full 0.994
_diffrn_reflns_Laue_measured_fraction_max 0.990
_diffrn_reflns_limit_h_max       23
_diffrn_reflns_limit_h_min       -23
_diffrn_reflns_limit_k_max       23
_diffrn_reflns_limit_k_min       -23
_diffrn_reflns_limit_l_max       19
_diffrn_reflns_limit_l_min       -22
_diffrn_reflns_number            32084
_diffrn_reflns_point_group_measured_fraction_full 0.994
_diffrn_reflns_point_group_measured_fraction_max 0.990
_diffrn_reflns_theta_full        28.500
_diffrn_reflns_theta_max         30.994
_diffrn_reflns_theta_min         1.874
_diffrn_source                   synchrotron
_exptl_absorpt_coefficient_mu    1.334
_exptl_absorpt_correction_T_max  1.000
_exptl_absorpt_correction_T_min  0.910
_exptl_absorpt_correction_type   multi-scan
_exptl_absorpt_process_details   'XDS (Kabsch, 2010)'
_exptl_crystal_colour            yellow
_exptl_crystal_density_diffrn    1.291
_exptl_crystal_description       block
_exptl_crystal_F_000             2032
_exptl_crystal_size_max          0.10
_exptl_crystal_size_mid          0.05
_exptl_crystal_size_min          0.05
_refine_diff_density_max         1.435
_refine_diff_density_min         -1.154
_refine_diff_density_rms         0.121
_refine_ls_extinction_method     none
_refine_ls_goodness_of_fit_ref   1.040
_refine_ls_hydrogen_treatment    constr
_refine_ls_matrix_type           full
_refine_ls_number_parameters     453
_refine_ls_number_reflns         5888
_refine_ls_number_restraints     245
_refine_ls_restrained_S_all      1.059
_refine_ls_R_factor_all          0.0958
_refine_ls_R_factor_gt           0.0870
_refine_ls_shift/su_max          0.000
_refine_ls_shift/su_mean         0.000
_refine_ls_structure_factor_coef Fsqd
_refine_ls_weighting_details
'w=1/[\s^2^(Fo^2^)+(0.1964P)^2^+9.4800P] where P=(Fo^2^+2Fc^2^)/3'
_refine_ls_weighting_scheme      calc
_refine_ls_wR_factor_gt          0.2617
_refine_ls_wR_factor_ref         0.2702
_reflns_Friedel_coverage         0.000
_reflns_number_gt                4915
_reflns_number_total             5888
_reflns_threshold_expression     'I > 2\s(I)'
_cod_data_source_file            d0cc03227a2.cif
_cod_data_source_block           ntf-01
_cod_depositor_comments          'Adding full bibliography for 7126693.cif.'
_cod_original_cell_volume        5178.8(17)
_cod_original_sg_symbol_H-M      'C 2/c'
_cod_database_code               7126693
_shelx_shelxl_version_number     2018/3
_shelx_space_group_comment
;
The symmetry employed for this shelxl refinement is uniquely defined
by the following loop, which should always be used as a source of
symmetry information in preference to the above space-group names.
They are only intended as comments.
;
_shelx_estimated_absorpt_t_min   0.878
_shelx_estimated_absorpt_t_max   0.936
_shelx_res_file
;
TITL ntf-01 in C2/c; 100K; Moscow
    ntf-01.res
    created by SHELXL-2018/3 at 16:31:32 on 10-Dec-2019
CELL 0.79312  18.477  17.976  17.533  90  117.214  90
ZERR   4.000   0.003   0.003   0.003   0    0.020   0
LATT 7
SYMM -X,+Y,0.5-Z
SFAC C   H  Li O  N  Zn
DISP C  0.00462  0.00217 14.32429
DISP H -0.00002  0.00000  0.66622
DISP Li  0.00004  0.00008  2.37464
DISP O  0.01466  0.00796 42.75312
DISP N  0.00868  0.00437 25.35228
DISP Zn  0.20788  1.73863 7889.07840
UNIT 160 92 8  72 20 8
 
LIST 4 ! automatically inserted. Change 6 to 4 for CHECKCIF!!
TEMP -173
 
L.S. 6
BOND $H
FMAP 2
PLAN 5
 
FREE O112 O211
FREE O111 O212
FREE O122 C5C
 
FLAT C14 N12 O121 O122
 
SIMU 0.001 0.003 2.0 C25 C26 C27 N22 O221 O222
 
SIMU 0.01 0.01 2.0 C22 C27 N21 O211 O212 O111 O112 N11 C13
 
SIMU 0.01 0.01 N12 O121 O122 C14
 
SADI 0.01 N11 O111 N11 O112 N12 O121 N12 O122
SADI 0.01 N21 O211 N21 O212 N22 O221 N22 O222
 
SIMU 0.005 0.007 C1B > C6B
SIMU 0.01 0.01 C1C > C6C
 
DFIX 1.38 0.01 C1B C2B  C2B C3B  C3B C4B  C4B C5B  C5B C6B  C6B C1B =
               C1C C2C  C2C C3C  C3C C4C  C4C C5C  C5C C6C  C6C C1C
DANG 2.80 0.01 C1B C4B  C2B C5B  C3B C6B  C1C C4C  C2C C5C  C3C C6C
SADI 0.01 C1B C3B  C4B C6B  C1B C5B  C2B C4B =
          C1C C3C  C4C C6C  C1C C5C  C2C C4C
 
FLAT C1B > C6B
FLAT C1C > C6C
 
OMIT 0
 
OMIT -4 0 2
OMIT -2 0 4
OMIT 0 2 0
OMIT -2 2 3
OMIT -3 1 1
OMIT -3 1 2
OMIT -8 0 4
OMIT -4 6 1
OMIT -4 2 1
OMIT -6 0 4
 
OMIT  0   2   1
OMIT  3   3   0
OMIT  3   1   0
OMIT -3   1   4
OMIT -4   2   2
 
ACTA 57
 
SIZE 0.10 0.05 0.05
 
WGHT    0.196400    9.480000
FVAR       0.14241   0.70371   0.45385
LI1   3    0.426002    0.607274    0.252211    11.00000    0.04595    0.04746 =
         0.03862    0.00002    0.01600   -0.00172
ZN1   6    0.262191    0.614305    0.074884    11.00000    0.04108    0.04443 =
         0.03403    0.00063    0.00907    0.00006
O11   4    0.538423    0.604437    0.340681    11.00000    0.04156    0.05290 =
         0.03147    0.00451    0.01085   -0.00063
O12   4    0.654278    0.587133    0.459257    11.00000    0.04496    0.10232 =
         0.03704    0.01599    0.00427   -0.02048
C11   1    0.578505    0.581254    0.414854    11.00000    0.04351    0.05829 =
         0.03362   -0.00014    0.01148   -0.01185
C12   1    0.536802    0.539195    0.458133    11.00000    0.04186    0.06293 =
         0.03287    0.00839    0.00846   -0.00897
C13   1    0.467599    0.566104    0.460169    11.00000    0.05743    0.06649 =
         0.06825    0.02440    0.02599    0.00652
C14   1    0.430774    0.527587    0.500725    11.00000    0.05381    0.06905 =
         0.06005    0.01145    0.02302   -0.00186
N11   5    0.442405    0.651313    0.446350    20.50000    0.08078    0.06750 =
         0.07493    0.02297    0.04419    0.00736
O111  4    0.492627    0.697965    0.447748    20.50000    0.09199    0.06080 =
         0.07414    0.00499    0.04653    0.00246
O112  4    0.370438    0.666292    0.426447    20.50000    0.08714    0.08227 =
         0.10205    0.02708    0.04712    0.02297
N12   5    0.355052    0.555264    0.487610   -20.50000    0.05689    0.07764 =
         0.06935    0.01586    0.03226    0.00626
O121  4    0.297359    0.568319    0.415965   -20.50000    0.05304    0.09717 =
         0.08255    0.01984    0.02655    0.00164
O122  4    0.345668    0.568650    0.552103   -20.50000    0.06420    0.08179 =
         0.08088    0.01532    0.03507    0.01357
O21   4    0.261611    0.710444    0.120970    11.00000    0.05693    0.05049 =
         0.04592   -0.00610    0.01744    0.00722
O22   4    0.370841    0.697377    0.248190    11.00000    0.05343    0.04843 =
         0.04957   -0.00373    0.01545    0.00791
O23   4    0.261779    1.028026    0.376442    11.00000    0.07571    0.07587 =
         0.07023   -0.03249   -0.00709    0.03008
O24   4    0.141366    1.025702    0.260804    11.00000    0.06698    0.05620 =
         0.05256   -0.00852    0.00725    0.02019
C21   1    0.309063    0.730025    0.198422    11.00000    0.04934    0.04323 =
         0.04457   -0.00208    0.01694    0.00496
C22   1    0.285010    0.800219    0.227569    11.00000    0.05807    0.05358 =
         0.05105   -0.00718    0.01264    0.01441
C23   1    0.224831    0.845966    0.167446    11.00000    0.07779    0.05212 =
         0.04767   -0.00354    0.01961    0.01429
AFIX  43
H23   2    0.200625    0.833738    0.108199    11.00000   -1.20000
AFIX   0
C24   1    0.200390    0.910020    0.195086    11.00000    0.07073    0.05659 =
         0.05236   -0.00287    0.01221    0.02136
AFIX  43
H24   2    0.158766    0.940553    0.154192    11.00000   -1.20000
AFIX   0
C25   1    0.235308    0.929260    0.279620    11.00000    0.10210    0.07532 =
         0.06118   -0.01842    0.00391    0.04222
C26   1    0.296602    0.884223    0.338692    11.00000    0.10478    0.07826 =
         0.06384   -0.01776    0.00221    0.04145
C27   1    0.322754    0.821180    0.310166    11.00000    0.10354    0.07723 =
         0.06308   -0.01785    0.00176    0.04194
C28   1    0.208390    0.999175    0.307153    11.00000    0.06757    0.05486 =
         0.05337   -0.01169    0.01271    0.01373
N21   5    0.366112    0.768542    0.383771    31.00000    0.10020    0.09163 =
         0.09740    0.00173    0.02932    0.02180
O211  4    0.339218    0.710712    0.402162    31.00000    0.11426    0.10456 =
         0.11393    0.01863    0.03908    0.01991
O212  4    0.437879    0.786526    0.434469    31.00000    0.11238    0.10636 =
         0.10859    0.00543    0.01674    0.01716
N22   5    0.352670    0.907561    0.422244   -31.00000    0.10782    0.08224 =
         0.06729   -0.01687    0.00234    0.03992
O221  4    0.308966    0.892323    0.458189   -31.00000    0.12197    0.09201 =
         0.07678   -0.00377    0.00767    0.02827
O222  4    0.422874    0.933571    0.446393   -31.00000    0.11775    0.09989 =
         0.08196   -0.02292   -0.00442    0.03565
N31   5    0.164518    0.618427   -0.041262    11.00000    0.04194    0.04977 =
         0.04092   -0.00023    0.01059   -0.00030
C31   1    0.117828    0.679111   -0.073139    11.00000    0.04266    0.05094 =
         0.03633   -0.00087    0.00906    0.00441
AFIX  43
H31   2    0.130442    0.722341   -0.038221    11.00000   -1.20000
AFIX   0
C32   1    0.052291    0.681861   -0.154253    11.00000    0.04131    0.04958 =
         0.03893    0.00105    0.00900    0.00377
AFIX  43
H32   2    0.020543    0.725796   -0.174190    11.00000   -1.20000
AFIX   0
C33   1    0.033927    0.619025   -0.205878    11.00000    0.04071    0.05045 =
         0.03758    0.00032    0.00314   -0.00003
C34   1    0.081684    0.555158   -0.172786    11.00000    0.06608    0.05195 =
         0.05024   -0.00478   -0.00379    0.00598
AFIX  43
H34   2    0.070026    0.511034   -0.206151    11.00000   -1.20000
AFIX   0
C35   1    0.145438    0.557187   -0.091643    11.00000    0.05797    0.05076 =
         0.04770   -0.00432   -0.00360    0.00919
AFIX  43
H35   2    0.177618    0.513713   -0.069842    11.00000   -1.20000
AFIX   0
PART -1  10.3
C1B   1    0.042602    0.610255    0.172826    10.30000    0.11000    0.10467 =
         0.12709   -0.00340    0.06397    0.00081
AFIX  43
H1B   2   -0.003162    0.602386    0.118657    10.30000   -1.20000
AFIX   0
C2B   1    0.121090    0.597455    0.182961    10.30000    0.10535    0.10474 =
         0.12362   -0.00221    0.07068   -0.00162
AFIX  43
H2B   2    0.128889    0.580749    0.135837    10.30000   -1.20000
AFIX   0
C3B   1    0.187794    0.609322    0.262510    10.30000    0.10801    0.10346 =
         0.12227   -0.00053    0.06717   -0.00310
AFIX  43
H3B   2    0.241043    0.598636    0.270133    10.30000   -1.20000
AFIX   0
C4B   1    0.177217    0.636623    0.330787    10.30000    0.10997    0.10206 =
         0.12130   -0.00188    0.06596   -0.00370
AFIX  43
H4B   2    0.223079    0.649501    0.383124    10.30000   -1.20000
AFIX   0
C5B   1    0.098900    0.644980    0.321964    10.30000    0.11252    0.10431 =
         0.12208   -0.00508    0.06465   -0.00035
AFIX  43
H5B   2    0.091332    0.657807    0.370399    10.30000   -1.20000
AFIX   0
C6B   1    0.031447    0.634617    0.242348    10.30000    0.11165    0.10555 =
         0.12547   -0.00364    0.06339   -0.00056
AFIX  43
H6B   2   -0.021792    0.644080    0.235457    10.30000   -1.20000
AFIX   0
PART -1  10.2
C1C   1    0.509145    0.646150    0.698262    10.20000    0.11060    0.08725 =
         0.16980    0.00050    0.06674    0.03388
AFIX  43
H1C   2    0.554122    0.622662    0.744004    10.20000   -1.20000
AFIX   0
C2C   1    0.522201    0.698756    0.647399    10.20000    0.10962    0.08546 =
         0.16860    0.00749    0.07144    0.02508
AFIX  43
H2C   2    0.576096    0.711912    0.659139    10.20000   -1.20000
AFIX   0
C3C   1    0.455980    0.732011    0.579266    10.20000    0.11630    0.08537 =
         0.16954    0.00994    0.06633    0.02218
AFIX  43
H3C   2    0.464760    0.769860    0.546588    10.20000   -1.20000
AFIX   0
C4C   1    0.377185    0.709930    0.559049    10.20000    0.11880    0.08817 =
         0.17297    0.00761    0.06036    0.02638
AFIX  43
H4C   2    0.332550    0.727444    0.508151    10.20000   -1.20000
AFIX   0
C5C   1    0.364068    0.661993    0.613839    10.20000    0.11816    0.09435 =
         0.17443    0.00618    0.06006    0.02523
AFIX  43
H5C   2    0.310226    0.652318    0.604958    10.20000   -1.20000
AFIX   0
C6C   1    0.430080    0.628110    0.681888    10.20000    0.11361    0.09315 =
         0.17041    0.00357    0.06440    0.02700
AFIX  43
H6C   2    0.421036    0.592805    0.716947    10.20000   -1.20000
PART 0
AFIX   0
HKLF 4
 
 
 
 
REM  ntf-01 in C2/c; 100K; Moscow
REM wR2 = 0.2702, GooF = S = 1.040, Restrained GooF = 1.059 for all data
REM R1 = 0.0870 for 4915 Fo > 4sig(Fo) and 0.0958 for all 5888 data
REM 453 parameters refined using 245 restraints
 
END
 
WGHT      0.1964      9.4800
 
REM Highest difference peak  1.435,  deepest hole -1.154,  1-sigma level  0.121
Q1    1   0.3709  0.8898  0.4813  11.00000  0.05    1.43
Q2    1   0.2374  0.8960  0.4460  11.00000  0.05    1.15
Q3    1   0.2894  0.6542  0.0578  11.00000  0.05    0.70
Q4    1   0.2304  0.6501  0.0956  11.00000  0.05    0.65
Q5    1   0.2692  1.0801  0.4026  11.00000  0.05    0.65
;
_shelx_res_checksum              20769
_shelx_hkl_file
;
   0   0  -1    0.70    0.12
   0   0  -2   24.48    1.37
   0   0  -2   23.44    1.32
   0   0  -3    0.86    0.36
   0   0  -3    1.03    0.36
   0   0  -4   12.58    0.83
   0   0  -4   12.37    0.82
   0   0  -5    1.73    0.39
   0   0  -5    1.60    0.39
   0   0  -6  706.30   37.88
   0   0  -6  669.70   35.91
   0   0  -7    1.63    0.43
   0   0  -7    1.85    0.46
   0   0  -8  878.20   47.08
   0   0  -8  929.70   49.84
   0   0  -9    0.32    0.41
   0   0  -9    0.56    0.41
   0   0 -10   97.76    5.34
   0   0 -10   94.59    5.18
   0   0 -11    0.12    0.47
   0   0 -11    0.43    0.45
   0   0 -12  134.20    7.29
   0   0 -12  138.60    7.53
   0   0 -13   -0.24    0.47
   0   0 -13   -0.05    0.43
   0   0 -14   21.96    1.39
   0   0 -14   23.02    1.44
   0   0 -16    4.28    0.61
   0   0 -16    3.95    0.62
   0   0 -17    0.27    0.52
   0   0 -17    0.81    0.45
   0   0 -18   23.23    3.15
   0   0 -19   -0.05    1.27
   0   0 -20   13.84    2.12
  -1  -1 -19    3.27    1.31
  -1  -1 -18   11.94    2.02
  -1  -1 -17    0.80    1.09
  -1  -1 -16   34.68    4.46
  -1  -1 -15   12.85    0.87
  -1  -1 -15   12.85    0.87
  -1  -1 -14    0.32    0.40
  -1  -1 -14    0.17    0.43
  -1  -1 -13   23.92    1.41
  -1  -1 -13   26.42    1.57
  -1  -1 -12   28.19    1.66
  -1  -1 -12   30.50    1.79
  -1  -1 -11   44.51    2.50
  -1  -1 -11   46.18    2.59
  -1  -1 -10  151.20    8.18
  -1  -1 -10  146.40    7.91
  -1  -1  -9   30.10    1.74
  -1  -1  -9   31.89    1.84
  -1  -1  -8   17.17    1.06
  -1  -1  -8   17.12    1.05
  -1  -1  -7  483.30   25.94
  -1  -1  -7  472.30   25.36
  -1  -1  -6   19.11    1.15
   1   1   5  737.20   39.53
  -1  -1  -5  737.40   39.53
  -1  -1  -3  548.60   29.41
  -1  -1  -1   79.26    9.58
   1   1   1   78.51    4.24
  -1  -1  -1   80.52    4.35
   1   1   0  161.70   19.48
  -1  -1   0  170.40   20.52
   1   1   0  160.60    8.62
  -1  -1   0  144.70    7.78
  -1  -1   2  457.80   24.54
   1   1  -3   30.78    1.78
  -1  -1   3   30.45    1.76
   1   1  -4   17.85    1.14
  -1  -1   4   17.62    1.14
   1   1  -5   36.99    2.12
  -1  -1   5   40.18    2.30
   1   1  -6  142.10    7.71
  -1  -1   6  141.50    7.68
   1   1  -7   73.82    4.10
   1   1  -8  189.50   10.27
   1   1  -8  197.90   10.69
   1   1  -9    3.90    0.57
   1   1  -9    4.70    0.57
   1   1 -10    1.74    0.46
   1   1 -10    2.44    0.58
   1   1 -11   27.49    1.66
   1   1 -11   28.53    1.69
   1   1 -12   80.87    4.46
   1   1 -12   86.97    4.82
   1   1 -13   56.63    3.19
   1   1 -13   55.62    3.14
   1   1 -14    8.26    0.80
   1   1 -14    7.64    0.72
   1   1 -15   27.07    1.65
   1   1 -15   25.52    1.54
   1   1 -16   31.36    1.87
   1   1 -16   34.34    2.02
   1   1 -17    0.81    0.59
   1   1 -17    0.76    0.60
   1   1 -18   21.59    1.41
   1   1 -18   24.13    1.50
   1   1 -20    1.16    1.19
  -2  -2 -19    0.68    1.35
  -2  -2 -18    0.74    1.31
  -2  -2 -17   67.96    8.41
  -2  -2 -16    6.44    1.42
  -2  -2 -15   39.11    5.02
  -2  -2 -14    1.27    1.22
  -2  -2 -14    2.84    0.35
  -2  -2 -14    2.45    0.35
  -2  -2 -12    0.53    0.38
  -2  -2 -12    0.59    0.39
  -2  -2 -11   39.08    2.21
  -2  -2 -11   37.70    2.13
  -2  -2 -10    1.00    0.34
  -2  -2 -10    0.98    0.37
  -2  -2  -9  348.90   18.76
  -2  -2  -9  366.70   19.71
  -2  -2  -8    1.44    0.36
  -2  -2  -8    1.22    0.35
   2   2   7  240.80   12.98
  -2  -2  -7  241.80   13.02
   2   2   6   81.74    4.47
  -2  -2  -6   81.24    4.43
   2   2   5  194.10   10.47
  -2  -2  -5  189.80   10.23
   2   2   4   77.74    4.25
  -2  -2  -4   78.61    4.29
   2   2   3  381.90   20.50
  -2  -2  -3  357.80   19.21
  -2  -2  -2  110.80   13.41
   2   2   2  105.20    5.71
  -2  -2  -2   98.08    5.33
   2   2   1   20.25    2.55
  -2  -2  -1   22.24    2.81
   2   2   1   17.29    1.08
  -2  -2  -1   19.02    1.17
   2   2   0    4.81    0.77
  -2  -2   0    4.53    0.80
   2   2   0    3.53    0.48
  -2  -2   0    4.38    0.57
   2   2  -1   24.99    3.10
  -2  -2   1   23.15    2.87
   2   2  -1   25.89    1.56
  -2  -2   1   24.29    1.47
   2   2  -2    8.60    0.77
  -2  -2   2    6.99    0.71
   2   2  -3  593.10   31.81
  -2  -2   3  617.70   33.13
   2   2  -4   21.25    1.38
  -2  -2   4   24.33    1.54
   2   2  -5   32.71    1.97
  -2  -2   5   33.90    2.01
   2   2  -6   13.37    0.99
  -2  -2   6   12.90    0.97
   2   2  -7  260.10   14.05
  -2  -2   7  250.90   13.54
   2   2  -8   27.49    1.67
  -2  -2   8   25.82    1.59
   2   2  -9  148.00    8.05
   2   2 -10    5.12    0.72
   2   2 -11   89.41    4.96
   2   2 -11   87.28    4.81
   2   2 -12    6.51    0.69
   2   2 -12    7.30    0.68
   2   2 -13   40.81    2.39
   2   2 -13   39.04    2.31
   2   2 -14   20.02    1.29
   2   2 -14   20.33    1.29
   2   2 -15   60.28    3.42
   2   2 -15   55.34    3.16
   2   2 -16    3.56    0.66
   2   2 -16    3.20    0.65
   2   2 -17  118.30    6.49
   2   2 -17  121.90    6.68
   2   2 -18    2.14    0.69
   2   2 -18    2.26    0.64
   2   2 -19   17.78    1.34
   2   2 -19   15.24    1.16
   2   2 -20    0.36    1.03
   2   2 -20    0.55    0.68
  -3  -3 -18    0.75    1.33
  -3  -3 -17    1.21    1.30
  -3  -3 -16   19.56    2.83
  -3  -3 -15   32.06    4.21
  -3  -3 -14    3.96    1.23
  -3  -3 -13   41.55    5.26
  -3  -3 -12   25.47    3.36
  -3  -3 -12   21.83    1.29
  -3  -3 -12   22.14    1.29
  -3  -3 -11  100.50   12.28
  -3  -3 -11   80.40    4.38
  -3  -3 -11   79.31    4.33
  -3  -3 -10   66.92    8.25
  -3  -3 -10   51.23    2.84
  -3  -3 -10   53.76    2.99
  -3  -3  -9   36.56    4.60
  -3  -3  -9   39.55    2.22
  -3  -3  -8   13.78    1.96
   3   3   8    9.01    0.68
  -3  -3  -8    8.15    0.63
  -3  -3  -7  104.40   12.71
   3   3   7  105.70    5.75
  -3  -3  -7  106.30    5.78
  -3  -3  -6    0.17    0.89
   3   3   6    1.76    0.40
  -3  -3  -6    1.04    0.39
  -3  -3  -5  726.70   87.54
   3   3   5  688.90   36.95
  -3  -3  -5  695.70   37.32
  -3  -3  -4  303.40   36.62
   3   3   4  261.40   14.07
  -3  -3  -4  269.50   14.51
  -3  -3  -3    3.47    1.01
   3   3   3    3.08    0.46
  -3  -3  -3    2.28    0.44
  -3  -3  -2  355.90   42.90
   3   3   2  349.40   18.78
  -3  -3  -2  345.20   18.56
   3   3   1  373.60   45.01
  -3  -3  -1  391.00   47.11
   3   3   1  392.50   21.10
  -3  -3  -1  407.30   21.89
   3   3   0   70.02    8.50
  -3  -3   0   71.42    8.67
   3   3   0   73.41    4.08
  -3  -3   0   74.59    4.15
   3   3  -1   42.15    5.17
  -3  -3   1   39.25    4.81
   3   3  -1   45.32    2.59
  -3  -3   1   41.68    2.44
   3   3  -2    3.54    0.94
   3   3  -2    3.43    0.71
  -3  -3   2    5.51    0.78
  -3  -3   4 1270.00   68.03
   3   3  -5    8.42    0.85
  -3  -3   5    7.94    0.82
   3   3  -6  162.20    8.83
  -3  -3   6  165.70    9.02
   3   3  -7   83.74    4.65
  -3  -3   7   80.58    4.49
   3   3  -8   90.27    5.02
  -3  -3   8   91.92    5.09
   3   3  -9   52.34    2.99
  -3  -3   9   47.70    2.74
   3   3 -10  160.80    8.75
  -3  -3  10  162.00    8.82
   3   3 -11    4.22    0.64
   3   3 -12   70.01    3.90
   3   3 -13  101.60    5.61
   3   3 -13  107.40    5.92
   3   3 -14    0.55    0.63
   3   3 -14    1.30    0.59
   3   3 -15  100.90    5.57
   3   3 -15  106.30    5.86
   3   3 -16   39.24    2.29
   3   3 -16   40.34    2.39
   3   3 -17    1.11    0.70
   3   3 -17    1.15    0.61
   3   3 -18    9.64    0.91
   3   3 -18   11.10    1.05
   3   3 -19   19.93    1.48
   3   3 -19   18.51    1.32
   3   3 -20   -0.23    0.75
   3   3 -20   -0.68    0.96
   3   3 -21    5.52    0.92
   3   3 -21    4.89    1.52
  -4  -4 -17    2.57    1.52
  -4  -4 -16    3.33    1.60
  -4  -4 -15    2.33    1.39
  -4  -4 -14   81.41   10.02
  -4  -4 -13    8.97    1.69
  -4  -4 -12  245.50   29.69
  -4  -4 -12  217.00   11.82
  -4  -4 -12  220.10   11.99
  -4  -4 -11   33.96    4.35
  -4  -4 -11   36.40    2.06
  -4  -4 -11   34.86    1.98
  -4  -4 -10    5.48    1.33
  -4  -4 -10    4.21    0.45
  -4  -4  -9    1.00    1.04
   4   4   9    0.75    0.40
  -4  -4  -9    1.10    0.43
  -4  -4  -8  145.30   17.62
   4   4   8  147.20    7.97
  -4  -4  -8  149.20    8.07
  -4  -4  -7    3.31    1.02
   4   4   7    4.17    0.52
  -4  -4  -7    4.51    0.52
  -4  -4  -6  206.80   25.00
   4   4   6  209.30   11.31
  -4  -4  -6  217.50   11.74
  -4  -4  -5   28.61    3.67
   4   4   5   31.92    1.85
  -4  -4  -5   31.88    1.86
  -4  -4  -4  670.30   80.75
   4   4   4  615.50   33.02
  -4  -4  -4  593.90   31.88
  -4  -4  -3  186.20   22.51
   4   4   3  178.00    9.64
  -4  -4  -3  205.00   11.08
  -4  -4  -2   44.70    5.51
   4   4   2   26.13    1.59
  -4  -4  -2   26.47    1.62
   4   4   1   18.31    2.37
  -4  -4  -1   19.18    2.51
   4   4   1   22.41    1.42
  -4  -4  -1   22.36    1.43
   4   4   0  519.70   62.59
  -4  -4   0  512.70   61.75
   4   4   0  497.10   26.72
  -4  -4   0  518.40   27.85
   4   4  -1  232.60   28.05
  -4  -4   1  234.70   28.30
   4   4  -1  238.90   12.93
  -4  -4   1  234.00   12.67
   4   4  -2  201.50   24.33
  -4  -4   2  186.10   22.47
   4   4  -2  180.90    9.85
  -4  -4   2  180.80    9.84
   4   4  -3   39.91    4.97
   4   4  -3   35.55    2.16
  -4  -4   3   35.77    2.20
   4   4  -4  788.70   42.32
  -4  -4   4  797.90   42.83
   4   4  -5   81.74    4.56
  -4  -4   5   81.63    4.58
   4   4  -6  328.30   17.72
  -4  -4   6  318.30   17.18
   4   4  -7    6.87    0.74
  -4  -4   7    6.30    0.72
   4   4  -8  148.50    8.12
  -4  -4   8  149.70    8.19
   4   4  -9   12.30    0.98
  -4  -4   9   13.02    1.07
   4   4 -10    2.07    0.59
  -4  -4  10    1.34    0.64
   4   4 -11   46.46    2.74
  -4  -4  11   43.16    2.54
   4   4 -12  175.30    9.52
  -4  -4  12  184.70   10.06
   4   4 -13   21.95    1.42
   4   4 -14  114.10    6.31
   4   4 -15    2.79    0.72
   4   4 -15    2.75    0.66
   4   4 -16    0.76    0.65
   4   4 -16    0.14    0.56
   4   4 -17    1.76    0.65
   4   4 -17    2.57    0.73
   4   4 -18    0.23    0.76
   4   4 -18    0.98    0.68
   4   4 -19   -0.38    0.67
   4   4 -19    0.80    0.83
   4   4 -20   23.11    1.53
   4   4 -20   22.97    1.70
   4   4 -21    0.97    1.03
   4   4 -21    0.54    1.20
  -5  -5 -17    3.35    1.73
  -5  -5 -16   20.88    3.11
  -5  -5 -15    1.32    1.48
  -5  -5 -14   68.37    8.47
  -5  -5 -13   40.46    5.16
  -5  -5 -12   26.71    3.57
  -5  -5 -11   33.35    4.31
  -5  -5 -11   23.79    1.40
  -5  -5 -11   24.03    1.38
  -5  -5 -10  176.50   21.40
   5   5  10  185.20   10.04
  -5  -5 -10  167.00    9.04
  -5  -5  -9    4.03    1.27
   5   5   9    3.45    0.54
  -5  -5  -9    3.19    0.48
  -5  -5  -8   35.16    4.49
   5   5   8   34.46    2.00
  -5  -5  -8   31.40    1.82
  -5  -5  -7   78.58    9.63
   5   5   7   68.00    3.78
  -5  -5  -7   69.05    3.83
  -5  -5  -6    5.48    1.24
   5   5   6    3.58    0.54
  -5  -5  -6    3.28    0.53
  -5  -5  -5    4.92    1.25
   5   5   5    4.92    0.60
  -5  -5  -5    4.04    0.54
  -5  -5  -4  110.20   13.40
   5   5   4   97.96    5.39
  -5  -5  -4   97.89    5.38
  -5  -5  -3   20.52    2.71
   5   5   3   23.37    1.45
  -5  -5  -3   20.63    1.33
  -5  -5  -2  100.10   12.15
   5   5   2  104.70    5.75
  -5  -5  -2  104.90    5.78
   5   5   1   33.86    4.23
  -5  -5  -1   37.20    4.64
   5   5   1   35.34    2.10
  -5  -5  -1   34.36    2.06
   5   5   0   23.02    2.94
  -5  -5   0   24.43    3.10
   5   5   0   27.16    1.71
  -5  -5   0   28.62    1.77
   5   5  -1  202.30   24.42
  -5  -5   1  213.90   25.81
   5   5  -1  195.20   10.61
  -5  -5   1  198.90   10.81
   5   5  -2  280.10   33.78
  -5  -5   2  266.70   32.16
   5   5  -2  219.50   11.93
  -5  -5   2  246.70   13.37
   5   5  -3    2.04    0.98
   5   5  -3    2.19    0.61
  -5  -5   3    2.29    0.67
   5   5  -4   35.16    4.45
   5   5  -4   41.93    2.50
  -5  -5   4   43.87    2.62
   5   5  -5    4.65    1.13
   5   5  -5    9.23    0.92
  -5  -5   5    6.49    0.88
   5   5  -6  202.80   11.03
  -5  -5   6  202.60   11.04
   5   5  -7  190.30   10.36
  -5  -5   7  199.50   10.87
   5   5  -8   43.05    2.54
  -5  -5   8   46.03    2.70
   5   5  -9   21.52    1.48
  -5  -5   9   18.17    1.29
   5   5 -10  288.30   15.58
  -5  -5  10  310.80   16.82
   5   5 -11    8.59    0.83
  -5  -5  11    7.05    0.85
   5   5 -12  274.10   14.85
  -5  -5  12  287.20   15.53
   5   5 -13   82.24    4.58
  -5  -5  13   83.73    4.70
   5   5 -14   41.32    2.45
  -5  -5  14   42.54    2.52
   5   5 -15   14.73    1.12
   5   5 -16   22.13    1.49
   5   5 -17    0.58    0.69
   5   5 -17    0.70    0.67
   5   5 -18   12.84    1.06
   5   5 -18   13.78    1.12
   5   5 -19    0.19    0.85
   5   5 -19    0.08    0.64
   5   5 -20    3.16    0.95
   5   5 -20    3.88    0.82
   5   5 -21    4.34    0.96
   5   5 -21    1.55    1.03
  -6  -6 -16    4.12    1.70
  -6  -6 -15    6.64    1.71
  -6  -6 -14    0.80    1.34
  -6  -6 -13   42.62    5.44
  -6  -6 -12   39.61    5.05
  -6  -6 -11   84.28   10.34
  -6  -6 -11   70.55    3.88
  -6  -6 -10   13.79    2.13
   6   6  10   14.28    0.99
  -6  -6 -10   14.92    0.98
  -6  -6  -9  136.70   16.62
   6   6   9  130.70    7.13
  -6  -6  -9  126.70    6.90
  -6  -6  -8   -0.74    1.14
   6   6   8   -0.60    0.53
  -6  -6  -8    0.51    0.47
  -6  -6  -7    4.51    1.23
   6   6   7    3.75    0.59
  -6  -6  -7    4.24    0.59
  -6  -6  -6   48.62    6.07
   6   6   6   56.37    3.18
  -6  -6  -6   59.51    3.35
  -6  -6  -5  296.50   35.80
   6   6   5  276.60   14.93
  -6  -6  -5  275.00   14.84
  -6  -6  -4    0.37    0.94
   6   6   4    1.34    0.52
  -6  -6  -4    1.54    0.60
  -6  -6  -3   16.36    2.25
   6   6   3   17.35    1.20
  -6  -6  -3   18.31    1.26
  -6  -6  -2   75.35    9.20
   6   6   2   86.21    4.78
  -6  -6  -2   82.70    4.61
   6   6   1  320.80   38.68
  -6  -6  -1  349.30   42.12
   6   6   1  289.90   15.66
  -6  -6  -1  307.30   16.60
   6   6   0    4.04    0.99
  -6  -6   0    4.30    1.06
   6   6   0    2.95    0.58
  -6  -6   0    4.47    0.69
   6   6  -1   58.86    7.20
  -6  -6   1   61.72    7.55
   6   6  -1   51.26    2.97
  -6  -6   1   50.43    2.95
   6   6  -2    3.34    0.99
  -6  -6   2    2.51    0.84
   6   6  -2    6.34    0.77
  -6  -6   2    5.91    0.81
   6   6  -3  353.80   42.68
   6   6  -3  273.50   14.80
  -6  -6   3  296.50   16.04
   6   6  -4    2.27    1.07
   6   6  -4    0.37    0.56
  -6  -6   4   -0.05    0.60
   6   6  -5  991.60  119.40
   6   6  -5  940.80   50.48
  -6  -6   5  913.70   49.03
   6   6  -6  230.50   27.88
   6   6  -6  232.50   12.63
  -6  -6   6  238.50   12.96
   6   6  -7   19.79    1.43
  -6  -6   7   19.13    1.45
   6   6  -8   92.02    5.13
  -6  -6   8   89.11    5.01
   6   6  -9   60.18    3.48
  -6  -6   9   59.08    3.42
   6   6 -10    8.12    0.86
  -6  -6  10    8.76    0.94
   6   6 -11  180.10    9.80
  -6  -6  11  182.30    9.94
   6   6 -12    9.21    0.93
  -6  -6  12    8.36    0.92
   6   6 -13  138.70    7.61
  -6  -6  13  136.90    7.53
   6   6 -14   53.35    3.06
  -6  -6  14   51.85    3.04
   6   6 -15   37.47    2.28
  -6  -6  15   36.35    2.23
   6   6 -16    9.26    0.86
   6   6 -17   16.34    1.17
   6   6 -18    0.07    0.69
   6   6 -18    0.89    0.64
   6   6 -19    3.65    0.86
   6   6 -19    2.39    0.79
   6   6 -20   -0.31    0.90
   6   6 -20    1.17    0.72
   6   6 -21   -0.09    0.83
   6   6 -21    1.01    0.89
  -7  -7 -15   -0.43    1.58
  -7  -7 -14    0.34    1.41
  -7  -7 -13   31.96    4.22
  -7  -7 -12    2.06    1.41
  -7  -7 -11   72.57    8.95
  -7  -7 -11   68.91    3.81
  -7  -7 -10   62.87    7.81
   7   7  10   45.14    2.60
  -7  -7 -10   41.91    2.40
  -7  -7  -9    0.86    1.20
   7   7   9    1.39    0.61
  -7  -7  -9   -0.05    0.52
  -7  -7  -8   13.48    2.12
   7   7   8   10.72    0.90
  -7  -7  -8   11.57    0.91
  -7  -7  -7    3.15    1.28
   7   7   7    2.35    0.60
  -7  -7  -7    3.73    0.68
  -7  -7  -6   43.77    5.50
   7   7   6   36.12    2.15
  -7  -7  -6   33.74    2.02
  -7  -7  -5  297.30   35.89
   7   7   5  325.40   17.55
  -7  -7  -5  306.80   16.53
  -7  -7  -4  104.00   12.66
   7   7   4   82.85    4.61
  -7  -7  -4   79.79    4.46
  -7  -7  -3   20.23    2.73
   7   7   3   14.72    1.09
  -7  -7  -3   13.89    1.05
  -7  -7  -2   14.14    2.05
   7   7   2   11.94    0.97
  -7  -7  -2   12.71    1.05
  -7  -7  -1    9.79    1.60
   7   7   1   10.52    0.97
  -7  -7  -1    9.30    0.93
   7   7   0   48.04    5.91
  -7  -7   0   57.96    7.12
   7   7   0   45.64    2.70
  -7  -7   0   43.28    2.56
   7   7  -1  222.90   26.92
  -7  -7   1  238.70   28.82
   7   7  -1  230.80   12.54
  -7  -7   1  227.40   12.35
   7   7  -2    3.34    0.97
  -7  -7   2    3.90    0.94
   7   7  -2    7.30    0.86
  -7  -7   2    7.80    0.89
   7   7  -3  190.30   23.00
   7   7  -3  207.60   11.31
  -7  -7   3  200.50   10.94
   7   7  -4    8.53    1.56
   7   7  -4    9.70    0.98
  -7  -7   4   10.90    1.00
   7   7  -5   35.55    4.53
   7   7  -5   24.96    1.66
  -7  -7   5   24.39    1.66
   7   7  -6   13.82    2.13
   7   7  -6   10.27    0.97
  -7  -7   6   10.01    1.06
   7   7  -7  512.20   61.76
   7   7  -7  496.20   26.74
  -7  -7   7  431.40   23.26
   7   7  -8   13.49    2.19
   7   7  -8   21.12    1.48
  -7  -7   8   19.95    1.46
   7   7  -9   93.81    5.25
  -7  -7   9   94.02    5.28
   7   7 -10    5.18    0.81
  -7  -7  10    4.54    0.78
   7   7 -11   36.59    2.19
  -7  -7  11   34.66    2.15
   7   7 -12    9.55    0.95
  -7  -7  12   10.14    1.03
   7   7 -13  171.50    9.39
  -7  -7  13  167.30    9.16
   7   7 -14    1.19    0.63
  -7  -7  14    1.53    0.71
   7   7 -15   26.52    1.75
  -7  -7  15   24.99    1.66
   7   7 -16    1.07    0.60
  -7  -7  16   -0.44    0.70
   7   7 -17   26.28    1.67
   7   7 -18    0.69    0.65
   7   7 -19    8.96    0.93
   7   7 -19    9.59    1.05
   7   7 -20    0.29    0.79
   7   7 -20   -0.54    0.65
   7   7 -21    4.03    0.94
   7   7 -21    3.66    0.96
  -8  -8 -14    7.37    1.92
  -8  -8 -13    0.65    1.46
  -8  -8 -12   19.24    2.85
  -8  -8 -11    3.72    1.43
   8   8  11    2.72    0.61
  -8  -8 -11    1.62    0.57
  -8  -8 -10   26.91    3.62
   8   8  10   23.17    1.51
  -8  -8 -10   21.55    1.38
  -8  -8  -9    5.17    1.44
   8   8   9    7.74    0.84
  -8  -8  -9    8.60    0.80
  -8  -8  -8    8.52    1.71
   8   8   8    6.02    0.79
  -8  -8  -8    6.08    0.75
  -8  -8  -7   11.10    1.91
   8   8   7   11.09    0.96
  -8  -8  -7   11.63    0.98
  -8  -8  -6    8.05    1.57
   8   8   6    8.37    0.87
  -8  -8  -6    8.13    0.82
  -8  -8  -5    2.57    1.21
   8   8   5    2.37    0.67
  -8  -8  -5    2.91    0.68
  -8  -8  -4  180.30   21.84
   8   8   4  185.80   10.12
  -8  -8  -4  182.80    9.94
  -8  -8  -3   73.00    8.97
   8   8   3   78.59    4.41
  -8  -8  -3   78.70    4.39
  -8  -8  -2   38.42    4.84
   8   8   2   27.88    1.75
  -8  -8  -2   28.76    1.84
  -8  -8  -1   40.46    5.07
   8   8   1   41.90    2.50
  -8  -8  -1   42.53    2.52
   8   8   0   20.49    2.63
  -8  -8   0   23.75    3.13
   8   8   0   15.97    1.22
  -8  -8   0   17.63    1.26
   8   8  -1   32.19    4.03
  -8  -8   1   35.94    4.55
   8   8  -1   39.49    2.38
  -8  -8   1   37.96    2.33
   8   8  -2   98.41   11.96
  -8  -8   2  110.20   13.40
   8   8  -2  100.20    5.59
  -8  -8   2   94.28    5.27
   8   8  -3   55.10    6.83
   8   8  -3   51.79    3.01
  -8  -8   3   57.05    3.30
   8   8  -4    2.36    1.16
   8   8  -4    5.05    0.78
  -8  -8   4    5.57    0.82
   8   8  -5   99.96   12.22
   8   8  -5  117.80    6.51
  -8  -8   5  114.40    6.35
   8   8  -6   69.56    8.61
   8   8  -6   49.96    2.96
  -8  -8   6   51.82    3.08
   8   8  -7   49.13    6.18
   8   8  -7   64.08    3.68
  -8  -8   7   64.79    3.75
   8   8  -8  191.30   23.20
   8   8  -8  162.90    8.94
  -8  -8   8  162.30    8.91
   8   8  -9   51.46    6.47
   8   8  -9   48.76    2.87
  -8  -8   9   52.71    3.10
   8   8 -10   49.08    6.21
   8   8 -10   57.60    3.35
  -8  -8  10   51.01    2.99
   8   8 -11   26.99    3.67
   8   8 -11   32.20    2.09
  -8  -8  11   31.07    1.97
   8   8 -12   20.00    1.41
  -8  -8  12   17.13    1.28
   8   8 -13    1.35    0.70
  -8  -8  13    2.66    0.74
   8   8 -14   21.97    1.54
  -8  -8  14   23.69    1.63
   8   8 -15   11.63    0.97
  -8  -8  15   12.47    1.06
   8   8 -16   15.77    1.15
  -8  -8  16   17.13    1.27
   8   8 -17    4.95    0.76
  -8  -8  17    4.12    0.81
   8   8 -18    1.59    0.69
   8   8 -19   14.76    1.15
   8   8 -20   13.42    1.17
   8   8 -20   14.21    1.10
   8   8 -21    0.32    0.98
   8   8 -21    0.48    0.83
  -9  -9 -13    3.30    1.74
  -9  -9 -12    4.65    1.47
  -9  -9 -11    1.42    1.48
   9   9  11    1.06    0.66
  -9  -9 -11   -0.09    0.67
  -9  -9 -10   20.56    2.91
   9   9  10   19.75    1.39
  -9  -9 -10   17.69    1.29
  -9  -9  -9    8.56    1.87
   9   9   9    5.39    0.76
  -9  -9  -9    4.33    0.73
  -9  -9  -8   66.18    8.20
   9   9   8   64.56    3.65
  -9  -9  -8   69.68    3.89
  -9  -9  -7   28.95    3.85
   9   9   7   21.30    1.44
  -9  -9  -7   22.58    1.48
  -9  -9  -6   67.51    8.35
   9   9   6   70.92    3.99
  -9  -9  -6   71.06    3.99
  -9  -9  -5    2.83    1.29
   9   9   5    3.05    0.64
  -9  -9  -5    1.80    0.72
  -9  -9  -4  135.70   16.50
   9   9   4  125.80    6.93
  -9  -9  -4  129.30    7.11
  -9  -9  -3    0.51    1.32
   9   9   3    0.99    0.67
  -9  -9  -3    1.00    0.71
  -9  -9  -2  317.60   38.34
   9   9   2  314.40   16.99
  -9  -9  -2  312.30   16.88
  -9  -9  -1   27.61    3.60
   9   9   1   23.03    1.57
  -9  -9  -1   22.47    1.55
   9   9   0   63.84    7.84
  -9  -9   0   74.58    9.14
   9   9   0   82.90    4.68
  -9  -9   0   76.80    4.35
   9   9  -1   17.63    2.37
  -9  -9   1   17.00    2.35
   9   9  -1   15.38    1.16
  -9  -9   1   13.33    1.12
   9   9  -2    4.68    1.19
  -9  -9   2    4.37    1.05
   9   9  -2    1.28    0.68
  -9  -9   2    1.69    0.71
   9   9  -3   11.03    1.71
   9   9  -3   10.35    1.01
  -9  -9   3    8.88    0.91
   9   9  -4  304.80   36.81
   9   9  -4  272.50   14.78
  -9  -9   4  264.40   14.35
   9   9  -5    6.27    1.46
   9   9  -5    3.59    0.73
  -9  -9   5    5.73    0.86
   9   9  -6   91.01   11.12
   9   9  -6  111.80    6.22
  -9  -9   6  115.80    6.44
   9   9  -7   11.08    1.93
   9   9  -7    6.73    0.89
  -9  -9   7    5.58    0.91
   9   9  -8    4.74    1.44
   9   9  -8    6.25    0.84
  -9  -9   8    6.11    0.82
   9   9  -9    4.41    1.44
   9   9  -9    2.30    0.77
  -9  -9   9    2.74    0.80
   9   9 -10   58.78    7.34
   9   9 -10   48.65    2.86
  -9  -9  10   54.63    3.21
   9   9 -11   -0.49    1.28
   9   9 -11   -0.11    0.70
  -9  -9  11    1.11    0.72
   9   9 -12   34.67    4.54
   9   9 -12   34.59    2.15
  -9  -9  12   38.17    2.34
   9   9 -13   13.62    2.30
   9   9 -13   11.34    0.97
  -9  -9  13   13.15    1.13
   9   9 -14    2.50    1.24
   9   9 -14    0.87    0.72
  -9  -9  14    0.82    0.74
   9   9 -15   12.51    2.32
   9   9 -15   10.51    0.90
  -9  -9  15    9.89    0.99
   9   9 -16    0.44    0.67
  -9  -9  16    0.10    0.72
   9   9 -17    1.06    0.63
  -9  -9  17    1.08    0.68
   9   9 -18   38.08    2.28
  -9  -9  18   36.57    2.23
   9   9 -19    2.26    0.69
   9   9 -20    8.11    0.84
 -10 -10 -11    8.73    2.06
  10  10  11    4.94    0.85
 -10 -10 -11    3.47    0.61
 -10 -10 -10    1.35    1.91
  10  10  10    1.29    0.90
 -10 -10 -10    0.99    0.97
 -10 -10  -9   12.92    2.38
  10  10   9   12.20    1.15
 -10 -10  -9   12.34    1.10
 -10 -10  -8    0.01    1.47
  10  10   8    1.09    0.77
 -10 -10  -8   -0.83    0.79
 -10 -10  -7   78.20    9.65
  10  10   7   69.26    3.91
 -10 -10  -7   69.42    3.92
 -10 -10  -6    8.35    1.80
  10  10   6    9.55    0.95
 -10 -10  -6   10.29    0.94
 -10 -10  -5    4.34    1.55
  10  10   5    5.55    0.81
 -10 -10  -5    6.13    0.78
 -10 -10  -4    3.06    1.38
  10  10   4    6.67    0.83
 -10 -10  -4    8.02    0.84
 -10 -10  -3  113.60   13.83
  10  10   3  105.40    5.85
 -10 -10  -3   97.72    5.44
 -10 -10  -2   18.02    2.65
  10  10   2   20.33    1.41
 -10 -10  -2   20.30    1.45
 -10 -10  -1  261.90   31.66
  10  10   1  241.70   13.11
 -10 -10  -1  238.60   12.93
 -10 -10   0   20.44    2.83
  10  10   0   19.12    1.37
 -10 -10   0   22.02    1.53
  10  10  -1   42.75    5.31
 -10 -10   1   48.25    6.04
  10  10  -1   41.61    2.51
 -10 -10   1   44.47    2.65
  10  10  -2  155.40   18.84
  10  10  -2  170.40    9.34
 -10 -10   2  170.80    9.35
  10  10  -3   21.00    2.85
  10  10  -3   13.50    1.09
 -10 -10   3   13.66    1.16
  10  10  -4   35.08    4.55
  10  10  -4   27.39    1.81
 -10 -10   4   28.26    1.83
  10  10  -5   61.62    7.68
  10  10  -5   53.81    3.15
 -10 -10   5   54.95    3.23
  10  10  -6    3.88    1.60
  10  10  -6    4.39    0.80
 -10 -10   6    3.80    0.80
  10  10  -7    3.76    1.78
  10  10  -7    3.38    0.76
 -10 -10   7    4.01    0.79
  10  10  -8   16.03    2.66
  10  10  -8   17.31    1.30
 -10 -10   8   17.60    1.32
  10  10  -9    2.05    1.62
  10  10  -9   -0.25    0.65
 -10 -10   9    0.37    0.73
  10  10 -10   35.76    4.70
  10  10 -10   37.95    2.33
 -10 -10  10   40.10    2.47
  10  10 -11   85.10   10.54
  10  10 -11   66.65    3.78
 -10 -10  11   69.97    3.99
  10  10 -12    1.95    1.58
  10  10 -12    0.13    0.69
 -10 -10  12    1.51    0.72
  10  10 -13   28.00    3.89
  10  10 -13   23.22    1.57
 -10 -10  13   23.18    1.57
  10  10 -14   23.92    3.46
  10  10 -14   21.59    1.45
 -10 -10  14   22.03    1.50
  10  10 -15    6.35    1.61
  10  10 -15    4.40    0.78
 -10 -10  15    3.02    0.77
  10  10 -16    3.17    1.45
  10  10 -16    3.78    0.69
 -10 -10  16    2.35    0.76
  10  10 -17    7.17    1.88
  10  10 -17    4.92    0.78
 -10 -10  17    3.28    0.78
  10  10 -18    3.31    1.45
  10  10 -18    4.01    0.77
 -10 -10  18    2.57    0.75
  10  10 -19   13.73    2.29
  10  10 -19   13.45    1.04
 -10 -10  19   14.13    1.14
  10  10 -20   -0.22    1.16
  10  10 -20    0.67    0.69
 -11 -11 -10    2.79    2.19
  11  11  10    0.50    0.97
 -11 -11 -10   -0.37    1.18
 -11 -11  -9    0.01    1.95
  11  11   9    1.37    0.90
 -11 -11  -9    0.96    0.94
 -11 -11  -8    0.79    1.93
  11  11   8   -0.16    0.89
 -11 -11  -8    1.33    0.86
 -11 -11  -7   10.01    2.28
  11  11   7    4.45    0.86
 -11 -11  -7    7.52    1.01
 -11 -11  -6    5.96    1.75
  11  11   6    4.12    0.81
 -11 -11  -6    5.13    0.82
 -11 -11  -5   58.08    7.29
  11  11   5   51.80    3.00
 -11 -11  -5   54.74    3.16
 -11 -11  -4    8.12    1.84
  11  11   4   11.17    1.02
 -11 -11  -4   10.57    0.99
 -11 -11  -3    4.89    1.59
  11  11   3    6.16    0.80
 -11 -11  -3    5.40    0.80
 -11 -11  -2    0.49    1.45
  11  11   2   -0.56    0.63
 -11 -11  -2   -0.99    0.64
 -11 -11  -1    6.62    1.52
  11  11   1   10.67    1.01
 -11 -11  -1   10.66    0.96
 -11 -11   0    0.95    1.37
  11  11   0    1.80    0.70
 -11 -11   0    2.11    0.75
 -11 -11   1  265.20   32.05
  11  11  -1  230.30   12.51
 -11 -11   1  218.90   11.89
  11  11  -2   18.54    2.52
  11  11  -2   22.52    1.56
 -11 -11   2   23.69    1.62
  11  11  -3    3.37    1.21
  11  11  -3    5.66    0.79
 -11 -11   3    4.97    0.83
  11  11  -4    4.43    1.34
  11  11  -4    4.29    0.79
 -11 -11   4    4.78    0.83
  11  11  -5    0.98    1.28
  11  11  -5    1.31    0.61
 -11 -11   5    0.68    0.71
  11  11  -6    5.68    1.61
  11  11  -6    8.96    0.96
 -11 -11   6    9.28    0.94
  11  11  -7   78.14    9.63
  11  11  -7   70.27    4.00
 -11 -11   7   70.45    4.04
  11  11  -8   -0.40    1.62
  11  11  -8    1.50    0.76
 -11 -11   8    2.36    0.79
  11  11  -9   72.91    9.03
  11  11  -9   74.47    4.22
 -11 -11   9   71.52    4.08
  11  11 -10    2.45    1.57
  11  11 -10    4.74    0.78
 -11 -11  10    3.41    0.81
  11  11 -11   32.79    4.44
  11  11 -11   36.22    2.24
 -11 -11  11   39.34    2.40
  11  11 -12    1.19    1.71
  11  11 -12    1.38    0.66
 -11 -11  12    1.38    0.66
  11  11 -13    5.77    1.95
  11  11 -13    5.08    0.75
 -11 -11  13    3.52    0.77
  11  11 -14   -1.35    1.71
  11  11 -14    0.33    0.59
 -11 -11  14    0.92    0.62
  11  11 -15   46.84    6.05
  11  11 -15   43.23    2.53
 -11 -11  15   44.18    2.65
  11  11 -16    1.78    1.75
  11  11 -16    0.14    0.62
 -11 -11  16    0.48    0.69
  11  11 -17    9.74    2.17
  11  11 -17   13.32    1.10
 -11 -11  17   11.69    1.04
  11  11 -18   -1.15    1.52
  11  11 -18    0.03    0.62
 -11 -11  18    0.07    0.69
  11  11 -19    3.41    1.68
  11  11 -19    0.58    0.66
 -11 -11  19    1.37    0.71
 -12 -12  -8    0.90    2.15
  12  12   8    0.46    0.99
 -12 -12  -8    0.93    1.04
 -12 -12  -7   19.46    3.23
  12  12   7   22.78    1.66
 -12 -12  -7   23.21    1.68
 -12 -12  -6    2.76    2.20
  12  12   6    1.97    0.86
 -12 -12  -6    1.10    0.79
 -12 -12  -5   -0.13    2.22
  12  12   5    1.06    0.77
 -12 -12  -5    2.04    0.79
 -12 -12  -4   34.30    4.60
  12  12   4   32.94    2.06
 -12 -12  -4   33.61    2.14
 -12 -12  -3   17.33    2.70
  12  12   3   17.61    1.35
 -12 -12  -3   18.13    1.34
 -12 -12  -2   -0.41    1.42
  12  12   2    0.11    0.68
 -12 -12  -2    2.03    0.71
 -12 -12  -1   35.69    4.63
  12  12   1   36.27    2.22
 -12 -12  -1   31.40    1.99
 -12 -12   0   14.38    2.21
  12  12   0   13.04    1.13
 -12 -12   0   12.87    1.10
  12  12  -1    1.93    0.68
 -12 -12   1    1.31    0.77
  12  12  -2   35.59    2.19
 -12 -12   2   32.72    2.07
  12  12  -3    2.66    1.05
  12  12  -3    2.73    0.72
 -12 -12   3    3.51    0.78
  12  12  -4    3.42    1.20
  12  12  -4    4.04    0.78
 -12 -12   4    3.85    0.75
  12  12  -5   48.62    6.06
  12  12  -5   49.79    2.91
 -12 -12   5   54.17    3.14
  12  12  -6    4.82    1.57
  12  12  -6    1.72    0.59
 -12 -12   6    2.57    0.76
  12  12  -7   74.57    9.23
  12  12  -7   74.23    4.23
 -12 -12   7   78.13    4.43
  12  12  -8   55.54    7.02
  12  12  -8   51.40    3.00
 -12 -12   8   50.41    2.97
  12  12  -9   14.11    2.54
  12  12  -9   15.95    1.26
 -12 -12   9   12.96    1.07
  12  12 -10   13.84    2.46
  12  12 -10   14.79    1.14
 -12 -12  10   16.45    1.31
  12  12 -11    7.73    2.11
  12  12 -11   10.90    0.98
 -12 -12  11    9.88    0.97
  12  12 -12    0.67    1.93
  12  12 -12    0.77    0.67
 -12 -12  12    0.50    0.62
  12  12 -13   21.60    3.32
  12  12 -13   23.36    1.53
 -12 -12  13   24.64    1.63
  12  12 -14   12.88    2.59
  12  12 -14    8.85    0.89
 -12 -12  14    8.80    0.93
  12  12 -15    1.87    1.86
  12  12 -15    0.14    0.66
 -12 -12  15    0.26    0.72
  12  12 -16   11.60    2.28
  12  12 -16   13.81    1.09
 -12 -12  16   12.36    1.06
  12  12 -17   12.35    2.39
  12  12 -17   12.74    1.04
 -12 -12  17   12.31    1.04
  12  12 -18    2.79    1.78
  12  12 -18    4.50    0.72
 -12 -12  18    6.33    0.88
  12  12 -19    9.76    1.99
  12  12 -19   10.40    1.00
 -12 -12  19   10.61    1.03
  13  13   7   -0.71    1.13
 -13 -13  -7    0.39    1.09
 -13 -13  -6    6.97    2.46
  13  13   6    8.60    1.23
 -13 -13  -6    7.88    1.07
 -13 -13  -5    6.48    2.45
  13  13   5    8.20    1.03
 -13 -13  -5    7.95    1.06
 -13 -13  -4    5.24    2.39
  13  13   4    2.63    0.74
 -13 -13  -4    2.24    0.81
 -13 -13  -3    7.14    2.24
  13  13   3    7.30    0.97
 -13 -13  -3    7.57    0.94
 -13 -13  -2   12.20    2.48
  13  13   2   14.39    1.15
 -13 -13  -2   15.10    1.21
 -13 -13  -1    0.67    1.48
  13  13   1    0.31    0.68
 -13 -13  -1    0.86    0.67
  13  13   0   21.99    1.52
 -13 -13   0   21.39    1.46
  13  13  -1    1.02    0.70
 -13 -13   1   -0.27    0.69
  13  13  -2    2.66    0.69
 -13 -13   2    0.13    0.71
  13  13  -3    0.02    0.66
 -13 -13   3   -0.24    0.70
  13  13  -4    7.39    1.41
  13  13  -4    8.32    0.88
 -13 -13   4    7.50    0.89
  13  13  -5    4.41    1.48
  13  13  -5    4.23    0.67
 -13 -13   5    3.55    0.79
  13  13  -6   31.11    4.12
  13  13  -6   30.17    1.87
 -13 -13   6   30.64    1.98
  13  13  -7    0.36    1.47
  13  13  -7    0.04    0.58
 -13 -13   7    0.30    0.59
  13  13  -8    4.06    1.80
  13  13  -8    5.38    0.79
 -13 -13   8    5.32    0.80
  13  13  -9    3.97    2.05
  13  13  -9    0.31    0.72
 -13 -13   9    1.17    0.71
  13  13 -10   35.55    4.85
  13  13 -10   26.64    1.72
 -13 -13  10   25.49    1.69
  13  13 -11    0.75    2.13
  13  13 -11    2.14    0.72
 -13 -13  11    1.57    0.66
  13  13 -12   38.42    5.15
  13  13 -12   32.06    1.98
 -13 -13  12   32.90    2.02
  13  13 -13    0.43    1.77
  13  13 -13    0.47    0.61
 -13 -13  13   -0.26    0.62
  13  13 -14   10.65    2.46
  13  13 -14    9.55    0.93
 -13 -13  14   10.33    0.92
  13  13 -15    1.32    1.87
  13  13 -15    0.13    0.66
 -13 -13  15   -0.37    0.71
  13  13 -16    0.51    1.80
  13  13 -16    0.43    0.62
 -13 -13  16   -0.16    0.77
  13  13 -17   -0.43    1.93
  13  13 -17    0.76    0.66
 -13 -13  17    1.09    0.74
  13  13 -18   14.53    2.66
  13  13 -18   15.36    1.15
 -13 -13  18   16.33    1.27
 -14 -14  -4    5.26    2.45
  14  14   4    9.96    1.09
 -14 -14  -4    9.62    1.08
 -14 -14  -3    3.04    1.73
  14  14   3    2.62    0.84
 -14 -14  -3    1.60    0.81
  14  14   2    2.11    0.78
 -14 -14  -2   -0.85    0.76
  14  14   1    4.09    0.79
 -14 -14  -1    2.35    0.76
  14  14   0   13.77    1.15
 -14 -14   0   13.40    1.09
  14  14  -1    0.63    0.66
 -14 -14   1    0.21    0.66
  14  14  -2    5.37    0.83
 -14 -14   2    5.55    0.80
  14  14  -3    9.82    0.94
 -14 -14   3   10.38    0.99
  14  14  -4    0.79    0.67
 -14 -14   4    1.88    0.75
  14  14  -5   16.85    2.43
  14  14  -5   18.89    1.32
 -14 -14   5   19.17    1.33
  14  14  -6    2.36    1.44
  14  14  -6    2.03    0.61
 -14 -14   6    3.05    0.71
  14  14  -7    3.53    1.69
  14  14  -7    4.11    0.68
 -14 -14   7    2.79    0.68
  14  14  -8   42.21    5.59
  14  14  -8   38.34    2.32
 -14 -14   8   36.59    2.21
  14  14  -9   -1.50    1.90
  14  14  -9    1.38    0.65
 -14 -14   9    1.33    0.70
  14  14 -10   11.11    2.63
  14  14 -10   13.55    1.09
 -14 -14  10   15.58    1.15
  14  14 -11   18.43    3.33
  14  14 -11   14.86    1.17
 -14 -14  11   13.79    1.10
  14  14 -12    1.66    2.51
  14  14 -12    1.03    0.65
 -14 -14  12    0.67    0.66
  14  14 -13    4.40    2.73
  14  14 -13    4.10    0.74
 -14 -14  13    2.82    0.66
  14  14 -14   11.68    2.79
  14  14 -14    7.82    0.79
 -14 -14  14    6.91    0.82
  14  14 -15    0.90    2.16
  14  14 -15    0.84    0.60
 -14 -14  15    1.79    0.74
  14  14 -16    0.15    2.11
  14  14 -16    2.50    0.61
 -14 -14  16    2.22    0.79
  14  14 -17    2.19    2.25
  14  14 -17    0.47    0.68
 -14 -14  17    1.02    0.82
  15  15   2    0.45    0.87
 -15 -15  -2    0.64    0.78
  15  15   1   -0.05    0.77
 -15 -15  -1   -0.75    0.81
  15  15   0   -0.09    0.78
 -15 -15   0    0.34    0.74
  15  15  -1   14.05    1.17
 -15 -15   1   14.80    1.14
  15  15  -2    0.41    0.64
 -15 -15   2   -0.43    0.68
  15  15  -3   14.00    1.11
 -15 -15   3   16.71    1.24
  15  15  -4    0.31    0.67
 -15 -15   4    0.23    0.65
  15  15  -5    5.82    0.81
 -15 -15   5    4.97    0.73
  15  15  -6   -0.40    1.21
  15  15  -6    0.14    0.64
 -15 -15   6    0.13    0.53
  15  15  -7    4.62    1.73
  15  15  -7    2.77    0.66
 -15 -15   7    2.02    0.64
  15  15  -8    0.79    1.89
  15  15  -8    2.75    0.69
 -15 -15   8    3.88    0.76
  15  15  -9   33.39    4.74
  15  15  -9   32.94    2.02
 -15 -15   9   33.90    2.03
  15  15 -10    0.20    2.27
  15  15 -10   -0.09    0.55
 -15 -15  10   -0.22    0.58
  15  15 -11    6.21    2.58
  15  15 -11    7.24    0.78
 -15 -15  11    7.08    0.81
  15  15 -12   -1.03    2.75
  15  15 -12    1.29    0.69
 -15 -15  12    0.23    0.63
  15  15 -13    3.10    2.48
  15  15 -13    2.97    0.61
 -15 -15  13    2.09    0.65
  15  15 -14   -2.55    2.56
  15  15 -14   -0.23    0.63
 -15 -15  14   -0.49    0.65
  15  15 -15    7.17    2.96
  15  15 -15   10.21    0.96
 -15 -15  15   10.29    1.03
  16  16  -2    1.29    0.79
 -16 -16   2    0.63    0.73
  16  16  -3    1.01    0.69
 -16 -16   3    1.70    0.71
  16  16  -4    2.18    0.74
 -16 -16   4    1.54    0.71
  16  16  -5    7.16    0.86
 -16 -16   5    7.06    0.83
  16  16  -6   -0.21    0.66
 -16 -16   6    0.03    0.71
  16  16  -7   18.89    1.32
 -16 -16   7   19.30    1.33
  16  16  -8    0.80    1.15
  16  16  -8    1.36    0.63
 -16 -16   8   -0.09    0.68
  16  16  -9    2.42    2.12
  16  16  -9    1.14    0.60
 -16 -16   9    2.51    0.74
  16  16 -10    5.11    2.36
  16  16 -10    6.67    0.79
 -16 -16  10    6.38    0.80
  16  16 -11    4.61    2.61
  16  16 -11    1.92    0.65
 -16 -16  11    1.19    0.71
  16  16 -12    0.74    2.53
  16  16 -12   -0.62    0.56
 -16 -16  12   -0.91    0.62
  15  17 -12    3.48    2.85
  15  17 -12    7.95    0.83
  15  17 -11    1.07    2.55
 -15 -17  11    1.14    0.59
  15  17 -11    1.39    0.59
  15  17 -10   -0.68    1.77
 -15 -17  10   -0.20    0.67
  15  17 -10    0.81    0.73
 -15 -17   9    0.25    0.65
  15  17  -9    0.20    0.65
 -15 -17   8    1.12    0.68
  15  17  -8    0.72    0.62
 -15 -17   7    4.51    0.75
  15  17  -7    4.56    0.74
 -15 -17   6   19.35    1.35
  15  17  -6   17.82    1.28
 -15 -17   5    2.45    0.71
  15  17  -5    1.26    0.66
 -15 -17   4    4.78    0.73
  15  17  -4    5.04    0.78
 -15 -17   3    0.59    0.63
  15  17  -3    0.68    0.67
 -15 -17   2    0.91    0.75
  15  17  -2    0.98    0.73
 -15 -17   1    2.64    0.84
  14  16 -14    3.31    3.00
 -14 -16  14    3.03    0.75
  14  16 -14    2.39    0.67
  14  16 -13    6.50    2.72
 -14 -16  13   10.83    0.99
  14  16 -13   11.11    0.99
  14  16 -12   -0.34    2.54
 -14 -16  12   -0.54    0.67
  14  16 -12    0.43    0.52
  14  16 -11   13.37    2.91
 -14 -16  11   12.14    1.00
  14  16 -11   11.38    1.03
  14  16 -10    3.63    2.34
 -14 -16  10    1.79    0.69
  14  16 -10    1.20    0.62
  14  16  -9    1.80    1.93
 -14 -16   9    0.47    0.57
  14  16  -9    0.65    0.56
  14  16  -8    3.63    1.42
 -14 -16   8    4.15    0.69
  14  16  -8    2.95    0.74
 -14 -16   7   23.67    1.56
  14  16  -7   21.72    1.44
 -14 -16   6    0.71    0.67
  14  16  -6   -0.08    0.67
 -14 -16   5   13.11    1.08
  14  16  -5   13.62    1.07
 -14 -16   4    6.52    0.76
  14  16  -4    4.30    0.71
 -14 -16   3    1.27    0.70
  14  16  -3    3.48    0.79
 -14 -16   2    4.63    0.77
  14  16  -2    6.09    0.81
 -14 -16   1    2.88    0.78
  14  16  -1    3.78    0.76
 -14 -16   0    1.52    0.77
  14  16   0    2.17    0.72
 -14 -16  -1    5.28    0.88
  14  16   1    5.28    0.84
 -14 -16  -2    0.71    0.86
  14  16   2    1.21    0.87
  13  15 -16    2.46    2.02
 -13 -15  16   -0.19    0.70
  13  15 -16    0.52    0.53
  13  15 -15   11.19    2.49
 -13 -15  15    4.53    0.75
  13  15 -15    5.96    0.68
  13  15 -14    0.02    2.44
 -13 -15  14   -0.41    0.64
  13  15 -14    1.11    0.57
  13  15 -13    2.71    2.42
 -13 -15  13    4.05    0.71
  13  15 -13    2.52    0.64
  13  15 -12    2.15    2.69
 -13 -15  12    4.95    0.71
  13  15 -12    4.75    0.73
  13  15 -11    5.65    2.42
 -13 -15  11   10.01    0.93
  13  15 -11    8.66    0.80
  13  15 -10   -0.46    2.03
 -13 -15  10    0.98    0.67
  13  15 -10    1.74    0.58
  13  15  -9   23.35    3.54
 -13 -15   9   23.52    1.54
  13  15  -9   26.49    1.70
  13  15  -8    1.91    1.75
 -13 -15   8    0.71    0.62
  13  15  -8    0.52    0.57
  13  15  -7   21.55    2.94
 -13 -15   7   19.56    1.33
  13  15  -7   21.16    1.47
 -13 -15   6   12.08    1.03
  13  15  -6   12.27    1.02
 -13 -15   5    6.53    0.86
  13  15  -5    6.30    0.83
 -13 -15   4    2.64    0.72
  13  15  -4    1.59    0.69
 -13 -15   3   14.22    1.14
  13  15  -3   11.63    1.04
 -13 -15   2    0.38    0.66
  13  15  -2    0.55    0.67
 -13 -15   1    6.14    0.82
  13  15  -1    7.10    0.89
 -13 -15   0   -0.13    0.67
  13  15   0    0.12    0.71
 -13 -15  -1    1.46    0.72
  13  15   1    1.26    0.65
 -13 -15  -2    2.55    0.85
  13  15   2    3.00    0.83
 -13 -15  -3    2.27    0.85
  13  15   3    2.94    0.83
 -13 -15  -4    0.38    0.89
  13  15   4    0.86    0.81
 -13 -15  -5    2.35    0.98
  13  15   5    5.30    0.96
  12  14 -17    5.33    1.92
 -12 -14  17    1.39    0.74
  12  14 -17    0.59    0.62
  12  14 -16   16.66    2.83
 -12 -14  16   19.67    1.45
  12  14 -16   16.24    1.15
  12  14 -15    2.02    1.98
 -12 -14  15    0.53    0.63
  12  14 -15    1.28    0.64
  12  14 -14    7.75    2.12
 -12 -14  14    8.66    0.90
  12  14 -14    7.77    0.83
  12  14 -13    7.32    2.08
 -12 -14  13    7.16    0.86
  12  14 -13    8.18    0.86
  12  14 -12   -0.78    1.87
 -12 -14  12   -0.10    0.59
  12  14 -12    0.97    0.53
  12  14 -11   13.80    2.73
 -12 -14  11   11.06    0.95
  12  14 -11   10.77    0.96
  12  14 -10   24.52    3.74
 -12 -14  10   27.61    1.78
  12  14 -10   25.75    1.70
  12  14  -9    6.79    2.09
 -12 -14   9    6.30    0.87
  12  14  -9    6.12    0.73
  12  14  -8    7.10    1.82
 -12 -14   8    6.29    0.79
  12  14  -8    6.33    0.85
  12  14  -7    6.62    1.75
 -12 -14   7    7.56    0.90
  12  14  -7    7.49    0.78
  12  14  -6    2.00    1.24
 -12 -14   6    1.81    0.67
  12  14  -6    2.57    0.70
  12  14  -5    4.68    0.94
 -12 -14   5    4.69    0.81
  12  14  -5    5.41    0.77
 -12 -14   4   21.78    1.49
  12  14  -4   21.17    1.44
 -12 -14   3    1.24    0.64
  12  14  -3    1.31    0.67
 -12 -14   2   19.13    1.37
  12  14  -2   16.27    1.26
 -12 -14   1    2.70    0.75
  12  14  -1    2.78    0.69
 -12 -14   0    3.25    0.76
  12  14   0    1.54    0.71
 -12 -14  -1    5.20    0.81
  12  14   1    5.87    0.84
 -12 -14  -2    2.52    0.74
  12  14   2    1.53    0.67
 -12 -14  -3    0.98    0.70
  12  14   3    1.18    0.79
 -12 -14  -4    0.48    1.35
 -12 -14  -4    1.13    0.75
  12  14   4    1.90    0.74
 -12 -14  -5    0.91    1.75
 -12 -14  -5   -0.51    0.85
  12  14   5    0.54    0.76
 -12 -14  -6    8.04    2.48
 -12 -14  -6    8.13    1.13
  12  14   6    9.09    1.15
 -12 -14  -7    4.73    2.71
 -12 -14  -7    5.05    1.05
  12  14   7    5.71    1.11
  11  13 -18   29.49    3.99
 -11 -13  18   29.23    1.86
  11  13 -18   30.96    1.92
  11  13 -17    1.48    1.69
 -11 -13  17    1.25    0.69
  11  13 -17    0.95    0.63
  11  13 -16    8.83    2.03
 -11 -13  16    5.87    0.82
  11  13 -16    6.33    0.76
  11  13 -15    1.21    1.81
 -11 -13  15    0.28    0.67
  11  13 -15   -0.59    0.63
  11  13 -14    1.04    1.87
 -11 -13  14    4.61    0.78
  11  13 -14    5.53    0.79
  11  13 -13   -0.06    1.75
 -11 -13  13    0.14    0.71
  11  13 -13    0.94    0.61
  11  13 -12   62.97    7.96
 -11 -13  12   59.20    3.41
  11  13 -12   60.06    3.43
  11  13 -11   13.12    2.60
 -11 -13  11   17.70    1.32
  11  13 -11   18.11    1.35
  11  13 -10   17.97    2.93
 -11 -13  10   13.56    1.14
  11  13 -10   14.60    1.10
  11  13  -9    0.24    1.79
 -11 -13   9    0.52    0.80
  11  13  -9    1.32    0.68
  11  13  -8   11.22    2.16
 -11 -13   8    8.10    0.96
  11  13  -8    5.60    0.76
  11  13  -7    1.92    1.37
 -11 -13   7    0.63    0.68
  11  13  -7    0.96    0.59
  11  13  -6   71.38    8.77
 -11 -13   6   66.68    3.81
  11  13  -6   63.37    3.62
  11  13  -5    0.03    1.04
 -11 -13   5   -0.25    0.59
  11  13  -5    0.33    0.63
  11  13  -4   17.01    2.19
 -11 -13   4   13.79    1.12
  11  13  -4   12.95    1.09
 -11 -13   3   -0.15    0.61
  11  13  -3    0.44    0.67
 -11 -13   2    0.21    0.65
  11  13  -2    0.34    0.68
 -11 -13   1    0.53    0.63
  11  13  -1   -0.17    0.68
 -11 -13   0   36.30    2.23
  11  13   0   33.36    2.06
 -11 -13  -1    1.63    0.71
  11  13   1    2.19    0.72
 -11 -13  -2   42.42    5.25
 -11 -13  -2   39.33    2.37
  11  13   2   38.16    2.33
 -11 -13  -3    0.87    1.33
 -11 -13  -3    1.07    0.72
  11  13   3    1.85    0.72
 -11 -13  -4    5.18    1.66
 -11 -13  -4    3.57    0.82
  11  13   4    1.94    0.71
 -11 -13  -5    0.41    1.83
 -11 -13  -5   -0.12    0.77
  11  13   5    0.02    0.75
 -11 -13  -6   13.51    2.72
 -11 -13  -6   13.47    1.17
  11  13   6   12.25    1.14
 -11 -13  -7    2.77    2.33
 -11 -13  -7    2.04    0.92
  11  13   7    1.50    0.82
 -11 -13  -8   40.17    5.41
 -11 -13  -8   39.25    2.48
  11  13   8   38.37    2.46
 -11 -13  -9    1.39    2.41
 -11 -13  -9    0.21    1.08
  11  13   9    0.17    0.96
  10  12 -19    2.25    1.27
 -10 -12  19    1.70    0.77
  10  12 -19    2.26    0.64
  10  12 -18    3.64    1.40
 -10 -12  18    0.95    0.75
  10  12 -18    1.11    0.66
  10  12 -17   11.82    2.26
 -10 -12  17   11.29    1.03
  10  12 -17   11.90    1.03
  10  12 -16   16.06    2.69
 -10 -12  16   19.11    1.35
  10  12 -16   17.91    1.31
  10  12 -15   -1.21    1.65
 -10 -12  15    0.12    0.66
  10  12 -15   -0.94    0.66
  10  12 -14   25.02    3.57
 -10 -12  14   12.91    1.12
  10  12 -14   15.41    1.16
  10  12 -13    5.78    1.84
 -10 -12  13   10.66    0.98
  10  12 -13   11.17    1.01
  10  12 -12    1.11    1.68
 -10 -12  12    0.32    0.61
  10  12 -12    0.67    0.69
  10  12 -11   19.20    2.98
 -10 -12  11   18.26    1.36
  10  12 -11   16.44    1.21
  10  12 -10    3.92    1.80
 -10 -12  10    2.40    0.77
  10  12 -10    3.13    0.77
  10  12  -9   14.83    2.40
 -10 -12   9    9.73    0.96
  10  12  -9   10.50    0.97
  10  12  -8   79.68    9.86
 -10 -12   8   71.80    4.10
  10  12  -8   73.43    4.18
  10  12  -7    2.13    1.50
 -10 -12   7    4.05    0.79
  10  12  -7    4.55    0.82
  10  12  -6   23.27    3.22
 -10 -12   6   18.38    1.34
  10  12  -6   17.17    1.30
  10  12  -5   35.22    4.47
 -10 -12   5   32.81    2.06
  10  12  -5   35.97    2.21
  10  12  -4   19.71    2.59
 -10 -12   4   19.15    1.40
  10  12  -4   21.08    1.49
  10  12  -3    2.44    0.78
 -10 -12   3    2.72    0.80
  10  12  -3    0.72    0.67
 -10 -12   2   52.56    3.08
  10  12  -2   51.09    3.01
 -10 -12   1    7.59    0.94
  10  12  -1    6.64    0.86
 -10 -12   0   62.69    3.60
  10  12   0   66.80    3.83
 -10 -12  -1  132.30   16.03
 -10 -12  -1  130.60    7.20
  10  12   1  138.20    7.61
 -10 -12  -2    5.98    1.44
 -10 -12  -2    7.05    0.92
  10  12   2    7.73    0.88
 -10 -12  -3   32.20    4.18
 -10 -12  -3   31.33    1.98
  10  12   3   33.40    2.07
 -10 -12  -4   35.54    4.59
 -10 -12  -4   32.74    2.04
  10  12   4   33.87    2.08
 -10 -12  -5    0.87    1.60
 -10 -12  -5    1.53    0.74
  10  12   5    2.35    0.69
 -10 -12  -6   26.96    3.69
 -10 -12  -6   23.76    1.59
  10  12   6   20.77    1.45
 -10 -12  -7   13.37    2.44
 -10 -12  -7   17.27    1.32
  10  12   7   16.01    1.26
 -10 -12  -8   -0.32    1.84
 -10 -12  -8   -0.08    0.83
  10  12   8   -0.32    0.84
 -10 -12  -9   11.79    2.57
 -10 -12  -9   11.80    1.25
  10  12   9   12.25    1.23
 -10 -12 -10    5.45    2.12
 -10 -12 -10    4.55    1.15
  10  12  10    4.39    1.12
   9  11 -20    1.16    0.73
  -9 -11  19    0.90    0.78
   9  11 -19   -0.12    0.64
  -9 -11  18    1.42    0.72
   9  11 -18    0.71    0.66
  -9 -11  17    9.84    0.98
   9  11 -17   10.35    0.96
   9  11 -16   -0.79    1.46
  -9 -11  16    0.08    0.69
   9  11 -16    0.35    0.62
   9  11 -15   25.82    3.54
  -9 -11  15   26.87    1.75
   9  11 -15   24.07    1.54
   9  11 -14    0.85    1.19
  -9 -11  14    0.07    0.60
   9  11 -14    0.12    0.65
   9  11 -13   37.60    4.86
  -9 -11  13   26.80    1.75
   9  11 -13   28.31    1.77
   9  11 -12    2.29    1.44
  -9 -11  12    1.59    0.76
   9  11 -12    1.68    0.72
   9  11 -11    5.28    1.66
  -9 -11  11    7.55    0.92
   9  11 -11    7.77    0.91
   9  11 -10    1.80    1.31
  -9 -11  10    0.88    0.65
   9  11 -10    0.82    0.68
   9  11  -9   63.85    7.95
  -9 -11   9   60.14    3.51
   9  11  -9   66.33    3.81
   9  11  -8    1.85    1.37
  -9 -11   8    1.75    0.74
   9  11  -8    1.03    0.67
   9  11  -7  105.30   12.90
  -9 -11   7   98.69    5.52
   9  11  -7   96.63    5.40
   9  11  -6    0.48    1.45
  -9 -11   6    0.62    0.65
   9  11  -6    0.32    0.75
   9  11  -5    0.00    1.27
  -9 -11   5    0.14    0.68
   9  11  -5    2.50    0.63
   9  11  -4    8.11    1.52
  -9 -11   4    6.44    0.96
   9  11  -4    6.74    0.82
   9  11  -3    2.15    0.90
  -9 -11   3    2.95    0.85
   9  11  -3    2.92    0.75
   9  11  -2    6.91    1.07
  -9 -11   2    8.68    0.96
   9  11  -2   10.54    0.99
  -9 -11   1  421.90   22.75
   9  11  -1  429.20   23.14
  -9 -11   0    3.65    0.72
   9  11   0    3.42    0.78
  -9 -11  -1   62.20    7.63
  -9 -11  -1   51.33    3.02
   9  11   1   52.00    3.05
  -9 -11  -2   13.12    1.97
  -9 -11  -2    9.39    0.93
   9  11   2    7.50    0.86
  -9 -11  -3   38.54    4.92
  -9 -11  -3   41.91    2.51
   9  11   3   39.93    2.41
  -9 -11  -4    5.04    1.45
  -9 -11  -4    2.27    0.72
   9  11   4    1.53    0.73
  -9 -11  -5   41.35    5.25
  -9 -11  -5   43.93    2.60
   9  11   5   41.85    2.49
  -9 -11  -6   10.95    1.98
  -9 -11  -6    8.59    0.92
   9  11   6    7.12    0.89
  -9 -11  -7   18.65    2.84
  -9 -11  -7   15.07    1.20
   9  11   7   17.12    1.28
  -9 -11  -8    5.86    1.82
  -9 -11  -8   -0.10    0.83
   9  11   8   -0.33    0.70
  -9 -11  -9    1.96    1.59
  -9 -11  -9    3.65    0.87
   9  11   9    3.16    0.83
  -9 -11 -10   -0.88    1.91
  -9 -11 -10    1.35    0.90
   9  11  10   -0.49    0.89
  -9 -11 -11   11.63    2.33
  -9 -11 -11   12.08    1.53
   9  11  11   11.82    1.18
  -9 -11 -12    1.50    2.04
  -9 -11 -12    0.53    1.20
   9  11  12    0.13    0.91
   8  10 -20    4.58    0.77
   8  10 -19   10.94    1.00
  -8 -10  18    2.89    0.79
   8  10 -18    3.28    0.73
  -8 -10  17   18.02    1.33
   8  10 -17   18.46    1.29
  -8 -10  16   30.14    1.91
   8  10 -16   25.72    1.62
  -8 -10  15    0.72    0.66
   8  10 -15    0.85    0.68
  -8 -10  14   11.23    1.03
   8  10 -14   12.73    1.01
  -8 -10  13   11.42    1.07
   8  10 -13    9.25    0.92
  -8 -10  12    0.35    0.65
   8  10 -12    0.58    0.63
   8  10 -11   66.55    8.28
  -8 -10  11   49.91    2.94
   8  10 -11   53.31    3.12
   8  10 -10   29.55    3.93
  -8 -10  10   31.71    2.03
   8  10 -10   32.53    2.03
   8  10  -9   20.39    2.87
  -8 -10   9   13.64    1.20
   8  10  -9   14.96    1.16
   8  10  -8  103.20   12.61
  -8 -10   8  116.10    6.46
   8  10  -8  114.30    6.36
   8  10  -7    0.74    1.15
  -8 -10   7    3.35    0.81
   8  10  -7    3.26    0.67
   8  10  -6  104.60   12.72
  -8 -10   6  109.00    6.07
   8  10  -6  111.60    6.21
   8  10  -5  161.30   19.56
  -8 -10   5  147.00    8.09
   8  10  -5  141.10    7.77
   8  10  -4   34.33    4.36
  -8 -10   4   41.98    2.55
   8  10  -4   42.06    2.52
   8  10  -3  199.80   24.13
  -8 -10   3  172.90    9.47
   8  10  -3  164.00    8.98
   8  10  -2  109.60   13.27
  -8 -10   2  123.40    6.83
   8  10  -2  134.10    7.39
  -8 -10   1    3.57    0.78
   8  10  -1    2.14    0.74
  -8 -10   0   33.79    4.18
  -8 -10   0   40.30    2.43
   8  10   0   37.60    2.31
  -8 -10  -1  107.00   12.98
  -8 -10  -1   99.73    5.56
   8  10   1   94.03    5.26
  -8 -10  -2    3.41    1.17
  -8 -10  -2    2.13    0.71
   8  10   2    1.37    0.75
  -8 -10  -3  159.70   19.34
  -8 -10  -3  131.40    7.25
   8  10   3  131.50    7.24
  -8 -10  -4   26.76    3.53
  -8 -10  -4   33.39    2.09
   8  10   4   36.18    2.22
  -8 -10  -5   41.44    5.24
  -8 -10  -5   31.84    2.01
   8  10   5   32.92    2.03
  -8 -10  -6   36.36    4.65
  -8 -10  -6   36.58    2.22
   8  10   6   37.21    2.24
  -8 -10  -7  110.70   13.51
  -8 -10  -7  101.20    5.60
   8  10   7  111.10    6.12
  -8 -10  -8    6.82    1.63
  -8 -10  -8    8.79    0.89
   8  10   8    8.68    0.91
  -8 -10  -9   34.37    4.44
  -8 -10  -9   33.49    2.06
   8  10   9   32.29    2.00
  -8 -10 -10    1.55    1.36
  -8 -10 -10    1.27    0.77
   8  10  10   -0.09    0.75
  -8 -10 -11   10.12    2.08
  -8 -10 -11    8.64    1.02
   8  10  11    8.99    1.06
  -8 -10 -12    5.63    1.77
  -8 -10 -12    5.34    1.16
   8  10  12    5.08    0.88
  -8 -10 -13    0.47    1.55
   7   9 -20    1.33    0.73
   7   9 -19    0.38    0.68
  -7  -9  18   50.42    2.95
   7   9 -18   47.26    2.77
  -7  -9  17    0.97    0.75
   7   9 -17    0.69    0.63
  -7  -9  16    1.39    0.67
   7   9 -16    2.64    0.68
  -7  -9  15    1.01    0.69
   7   9 -15    0.53    0.65
  -7  -9  14   18.78    1.39
   7   9 -14   19.96    1.34
  -7  -9  13    2.77    0.68
   7   9 -13    2.94    0.74
  -7  -9  12   28.03    1.85
   7   9 -12   26.91    1.73
  -7  -9  11    0.25    0.74
   7   9 -11    0.22    0.60
  -7  -9  10   61.85    3.56
   7   9 -10   66.29    3.81
  -7  -9   9   10.11    0.96
   7   9  -9   12.08    1.04
   7   9  -8   32.04    4.13
  -7  -9   8   21.54    1.50
   7   9  -8   20.42    1.42
   7   9  -7   26.46    3.45
  -7  -9   7   36.47    2.26
   7   9  -7   36.35    2.27
   7   9  -6   85.99   10.52
  -7  -9   6   93.20    5.24
   7   9  -6   92.90    5.19
   7   9  -5   21.90    2.92
  -7  -9   5   20.48    1.47
   7   9  -5   21.52    1.52
   7   9  -4  405.80   48.93
  -7  -9   4  356.10   19.24
   7   9  -4  367.80   19.87
   7   9  -3    3.10    1.00
  -7  -9   3    2.52    0.73
   7   9  -3    3.00    0.65
   7   9  -2  111.40   13.50
  -7  -9   2   97.25    5.43
   7   9  -2   85.72    4.80
   7   9  -1    3.01    0.70
  -7  -9   1    5.45    0.75
   7   9  -1    5.45    0.79
  -7  -9   0  134.30   16.24
  -7  -9   0  133.10    7.35
   7   9   0  134.70    7.41
  -7  -9  -1   11.42    1.65
  -7  -9  -1    7.29    0.87
   7   9   1    6.20    0.81
  -7  -9  -2  196.20   23.71
  -7  -9  -2  194.00   10.55
   7   9   2  185.10   10.09
  -7  -9  -3   11.10    1.71
  -7  -9  -3   11.52    1.03
   7   9   3   12.96    1.05
  -7  -9  -4  148.70   18.02
  -7  -9  -4  143.70    7.87
   7   9   4  143.80    7.89
  -7  -9  -5   25.55    3.35
  -7  -9  -5   19.94    1.42
   7   9   5   19.40    1.36
  -7  -9  -6    5.52    1.27
  -7  -9  -6    3.91    0.76
   7   9   6    4.66    0.76
  -7  -9  -7    1.16    1.23
  -7  -9  -7    1.66    0.71
   7   9   7    2.41    0.70
  -7  -9  -8  118.10   14.39
  -7  -9  -8  104.80    5.80
   7   9   8  101.50    5.61
  -7  -9  -9    2.49    1.27
  -7  -9  -9    0.06    0.67
   7   9   9    1.06    0.67
  -7  -9 -10   37.34    4.77
  -7  -9 -10   35.52    2.15
   7   9  10   36.56    2.21
  -7  -9 -11   -1.13    1.35
  -7  -9 -11    0.32    0.65
   7   9  11   -0.07    0.67
  -7  -9 -12    1.40    1.55
  -7  -9 -12    0.99    0.74
   7   9  12    1.50    0.74
  -7  -9 -13    6.54    1.77
  -7  -9 -13    3.52    0.57
  -7  -9 -13    3.47    0.84
  -7  -9 -14   -0.07    1.62
   6   8 -20    4.53    0.85
   6   8 -20    6.89    1.01
   6   8 -19    4.95    0.81
   6   8 -18    1.04    0.72
  -6  -8  17   11.68    1.00
   6   8 -17   10.66    0.94
  -6  -8  16   60.20    3.45
   6   8 -16   61.27    3.50
  -6  -8  15    0.26    0.65
   6   8 -15   -0.49    0.56
  -6  -8  14    7.77    0.92
   6   8 -14    7.96    0.87
  -6  -8  13    1.60    0.73
   6   8 -13    0.18    0.62
  -6  -8  12   83.96    4.72
   6   8 -12   83.42    4.71
  -6  -8  11  133.30    7.35
   6   8 -11  132.80    7.28
  -6  -8  10   69.16    3.96
   6   8 -10   70.54    4.01
  -6  -8   9   19.06    1.36
   6   8  -9   20.81    1.48
  -6  -8   8  186.90   10.21
   6   8  -8  178.30    9.72
  -6  -8   7   31.31    1.98
   6   8  -7   35.00    2.15
   6   8  -6   76.41    9.38
  -6  -8   6   54.75    3.19
   6   8  -6   57.22    3.33
   6   8  -5   12.86    1.92
  -6  -8   5   17.29    1.33
   6   8  -5   17.25    1.29
   6   8  -4    6.63    1.25
  -6  -8   4    9.25    0.96
   6   8  -4    9.24    0.96
   6   8  -3  223.60   26.99
  -6  -8   3  227.90   12.39
   6   8  -3  241.40   13.11
   6   8  -2  525.50   63.32
  -6  -8   2  489.80   26.39
   6   8  -2  490.40   26.42
   6   8  -1    3.84    0.75
  -6  -8   1    3.02    0.70
   6   8  -1    2.52    0.71
  -6  -8   0  103.80   12.56
  -6  -8   0   91.16    5.10
   6   8   0   91.31    5.10
  -6  -8  -1   99.06   12.01
  -6  -8  -1  102.10    5.67
   6   8   1  104.90    5.81
  -6  -8  -2    1.29    0.92
  -6  -8  -2    0.52    0.61
   6   8   2    2.06    0.66
  -6  -8  -3   -0.08    0.87
  -6  -8  -3    0.61    0.63
   6   8   3    1.63    0.62
  -6  -8  -4   75.96    9.27
  -6  -8  -4   83.09    4.64
   6   8   4   82.69    4.62
  -6  -8  -5   12.19    1.84
  -6  -8  -5   14.43    1.07
   6   8   5   13.10    1.03
  -6  -8  -6  246.20   29.75
  -6  -8  -6  246.20   13.32
   6   8   6  244.40   13.23
  -6  -8  -7    9.40    1.59
  -6  -8  -7    9.19    0.90
   6   8   7    8.88    0.83
  -6  -8  -8    0.07    1.14
  -6  -8  -8    0.90    0.60
   6   8   8    2.27    0.67
  -6  -8  -9   21.67    3.01
  -6  -8  -9   24.02    1.55
   6   8   9   21.29    1.40
  -6  -8 -10   45.57    5.73
  -6  -8 -10   40.63    2.38
   6   8  10   39.94    2.36
  -6  -8 -11   14.44    2.27
  -6  -8 -11   11.38    0.96
   6   8  11   10.67    0.94
  -6  -8 -12   31.68    4.16
  -6  -8 -12   19.73    1.34
   6   8  12   20.14    1.35
  -6  -8 -13    8.71    1.74
  -6  -8 -13    6.43    0.77
  -6  -8 -13    7.34    0.70
  -6  -8 -14   19.45    2.79
  -6  -8 -15   10.39    2.10
   5   7 -21    9.40    1.33
   5   7 -21    9.24    1.25
   5   7 -20   -0.05    0.74
   5   7 -20   -1.57    0.86
   5   7 -19    6.28    0.95
   5   7 -19    7.88    0.94
   5   7 -18    1.80    0.68
   5   7 -18    1.87    0.74
   5   7 -17    2.50    0.64
  -5  -7  16    0.35    0.64
   5   7 -16    0.67    0.58
  -5  -7  15   92.29    5.14
   5   7 -15   91.89    5.08
  -5  -7  14    2.76    0.72
   5   7 -14    2.16    0.72
  -5  -7  13  273.80   14.82
   5   7 -13  279.90   15.12
  -5  -7  12   49.56    2.90
   5   7 -12   50.64    2.95
  -5  -7  11    8.32    0.88
   5   7 -11   11.20    1.04
  -5  -7  10   25.98    1.70
   5   7 -10   25.34    1.62
  -5  -7   9   51.55    3.02
   5   7  -9   52.94    3.07
  -5  -7   8   13.22    1.15
   5   7  -8   13.12    1.10
  -5  -7   7  326.70   17.67
   5   7  -7  333.50   18.02
  -5  -7   6  155.10    8.52
   5   7  -6  149.80    8.24
   5   7  -5  195.80   23.70
  -5  -7   5  148.90    8.18
   5   7  -5  147.10    8.07
   5   7  -4   72.42    8.84
  -5  -7   4   56.34    3.27
   5   7  -4   51.50    3.01
   5   7  -3  172.50   20.84
  -5  -7   3  184.50   10.08
   5   7  -3  188.80   10.28
   5   7  -2   40.82    5.01
  -5  -7   2   27.30    1.78
   5   7  -2   28.12    1.78
   5   7  -1  454.10   54.72
  -5  -7   1  463.50   24.96
   5   7  -1  463.20   24.93
  -5  -7   0   41.98    5.14
   5   7   0   40.27    4.91
  -5  -7   0   42.55    2.53
   5   7   0   41.96    2.49
  -5  -7  -1    8.28    1.26
  -5  -7  -1    6.12    0.79
   5   7   1    4.90    0.71
  -5  -7  -2    4.11    0.94
  -5  -7  -2    5.91    0.77
   5   7   2    6.26    0.71
  -5  -7  -3   43.75    5.40
  -5  -7  -3   37.53    2.24
   5   7   3   45.10    2.63
  -5  -7  -4   47.51    5.88
  -5  -7  -4   40.03    2.34
   5   7   4   39.74    2.35
  -5  -7  -5  117.30   14.23
  -5  -7  -5  131.00    7.18
   5   7   5  128.90    7.06
  -5  -7  -6    2.15    1.07
  -5  -7  -6    2.85    0.59
   5   7   6    3.00    0.58
  -5  -7  -7  248.50   30.03
  -5  -7  -7  243.60   13.16
   5   7   7  229.50   12.42
  -5  -7  -8    8.24    1.58
  -5  -7  -8   10.33    0.84
   5   7   8    9.99    0.91
  -5  -7  -9    1.51    1.08
  -5  -7  -9    2.97    0.61
   5   7   9    1.91    0.62
  -5  -7 -10   12.43    2.05
  -5  -7 -10    8.22    0.75
   5   7  10    7.79    0.82
  -5  -7 -11  159.40   19.33
  -5  -7 -11  160.70    8.72
   5   7  11  171.00    9.30
  -5  -7 -12    3.36    1.29
  -5  -7 -12    3.80    0.62
  -5  -7 -13  129.50   15.76
  -5  -7 -13  110.80    6.05
  -5  -7 -13  117.20    6.39
  -5  -7 -14   -0.05    1.31
  -5  -7 -15    6.46    1.63
  -5  -7 -16   -0.25    1.49
   4   6 -20    3.23    1.11
   4   6 -20    2.06    0.79
   4   6 -19   13.84    1.12
   4   6 -19   13.91    1.25
   4   6 -18    3.33    0.74
   4   6 -18    3.41    0.81
   4   6 -17   51.66    2.95
   4   6 -17   50.91    2.96
   4   6 -16    0.95    0.63
   4   6 -15   34.98    2.12
  -4  -6  14   23.02    1.54
   4   6 -14   20.39    1.39
  -4  -6  13    2.86    0.70
   4   6 -13    3.14    0.66
  -4  -6  12   23.98    1.58
   4   6 -12   23.40    1.51
  -4  -6  11  302.20   16.34
   4   6 -11  320.80   17.35
  -4  -6  10    0.96    0.54
   4   6 -10    0.84    0.62
  -4  -6   9   75.64    4.29
   4   6  -9   78.26    4.41
  -4  -6   8    2.99    0.69
   4   6  -8    2.84    0.70
  -4  -6   7   40.72    2.45
   4   6  -7   43.58    2.55
  -4  -6   6   56.56    3.29
   4   6  -6   50.97    2.96
  -4  -6   5  989.80   53.10
   4   6  -5  950.90   51.00
  -4  -6   4  150.20    8.24
   4   6  -4  150.70    8.25
   4   6  -3   21.31    2.74
  -4  -6   3   22.15    1.52
   4   6  -3   22.75    1.51
   4   6  -2   11.18    1.53
  -4  -6   2   10.28    1.00
   4   6  -2    8.66    0.88
   4   6  -1   35.80    4.38
  -4  -6   1   21.90    1.50
   4   6  -1   24.63    1.64
  -4  -6   0   57.02    6.93
   4   6   0   48.27    5.87
  -4  -6   0   60.36    3.45
   4   6   0   56.91    3.28
  -4  -6  -1  170.90   20.62
  -4  -6  -1  184.90   10.05
   4   6   1  172.00    9.38
  -4  -6  -2   21.39    2.71
  -4  -6  -2   23.81    1.53
   4   6   2   25.34    1.61
  -4  -6  -3    2.68    0.88
  -4  -6  -3    2.58    0.63
   4   6   3    2.67    0.57
  -4  -6  -4    0.40    0.83
  -4  -6  -4    1.10    0.56
   4   6   4    1.12    0.52
  -4  -6  -5  143.30   17.35
  -4  -6  -5  163.30    8.90
   4   6   5  148.90    8.11
  -4  -6  -6  104.30   12.68
  -4  -6  -6  133.80    7.32
   4   6   6  134.00    7.34
  -4  -6  -7  228.60   27.63
  -4  -6  -7  238.70   12.89
   4   6   7  237.20   12.82
  -4  -6  -8   23.95    3.14
  -4  -6  -8   29.40    1.77
   4   6   8   26.16    1.62
  -4  -6  -9   46.94    5.88
  -4  -6  -9   41.49    2.38
   4   6   9   43.55    2.52
  -4  -6 -10    5.39    1.28
  -4  -6 -10    5.00    0.65
   4   6  10    4.93    0.65
  -4  -6 -11  129.30   15.73
  -4  -6 -11  127.90    6.97
   4   6  11  132.60    7.23
  -4  -6 -12   24.45    3.25
  -4  -6 -12   26.05    1.58
  -4  -6 -13   12.14    1.91
  -4  -6 -13   10.60    0.82
  -4  -6 -13   10.24    0.81
  -4  -6 -14   29.30    3.84
  -4  -6 -14   24.82    1.48
  -4  -6 -14   25.82    1.50
  -4  -6 -15   41.78    5.32
  -4  -6 -16    1.85    1.25
  -4  -6 -17    8.89    1.91
   3   5 -20    1.31    0.99
   3   5 -20    3.53    0.84
   3   5 -19    4.96    0.78
   3   5 -19    5.37    0.98
   3   5 -18   18.98    1.31
   3   5 -18   18.07    1.36
   3   5 -17   -0.26    0.59
   3   5 -17    0.26    0.67
   3   5 -16   13.27    1.03
   3   5 -16   12.42    1.06
   3   5 -15    3.38    0.71
   3   5 -14    0.59    0.55
  -3  -5  13   20.25    1.41
   3   5 -13   20.01    1.41
  -3  -5  12   36.97    2.24
   3   5 -12   37.13    2.17
  -3  -5  11   13.33    1.06
   3   5 -11   13.13    1.04
  -3  -5  10  282.70   15.29
   3   5 -10  286.40   15.50
  -3  -5   9   45.23    2.64
   3   5  -9   46.16    2.65
  -3  -5   8   17.61    1.24
   3   5  -8   16.92    1.22
  -3  -5   7   53.75    3.10
   3   5  -7   55.07    3.17
  -3  -5   6  352.40   19.01
   3   5  -6  381.60   20.56
  -3  -5   5   19.82    1.40
   3   5  -5   22.27    1.49
  -3  -5   4  530.90   28.55
   3   5  -4  519.40   27.91
  -3  -5   3   29.28    1.85
   3   5  -3   29.60    1.83
   3   5  -2  188.20   22.71
  -3  -5   2  210.40   11.44
   3   5  -2  208.40   11.32
   3   5  -1    5.25    0.84
  -3  -5   1    4.00    0.67
   3   5  -1    5.74    0.72
  -3  -5   0  133.10   16.07
   3   5   0  117.20   14.15
  -3  -5   0  119.20    6.56
   3   5   0  114.20    6.29
  -3  -5  -1   86.92   10.52
  -3  -5  -1   65.60    3.70
   3   5   1   69.42    3.90
  -3  -5  -2   73.48    8.92
  -3  -5  -2   84.42    4.69
   3   5   2   84.61    4.69
  -3  -5  -3   41.14    5.08
  -3  -5  -3   37.45    2.21
   3   5   3   40.20    2.33
  -3  -5  -4  297.20   35.85
  -3  -5  -4  322.10   17.36
   3   5   4  314.00   16.92
  -3  -5  -5   47.62    5.88
  -3  -5  -5   43.51    2.51
   3   5   5   42.98    2.47
  -3  -5  -6   62.20    7.64
  -3  -5  -6   73.99    4.11
   3   5   6   71.12    3.96
  -3  -5  -7  301.00   36.34
  -3  -5  -7  296.00   15.95
   3   5   7  283.70   15.30
  -3  -5  -8  302.30   36.50
  -3  -5  -8  337.40   18.17
   3   5   8  335.60   18.07
  -3  -5  -9   38.81    4.87
  -3  -5  -9   37.49    2.20
   3   5   9   35.65    2.08
  -3  -5 -10   23.47    3.14
  -3  -5 -10   20.22    1.28
   3   5  10   22.75    1.43
  -3  -5 -11   19.45    2.69
  -3  -5 -11   16.87    1.13
  -3  -5 -12  136.80   16.64
  -3  -5 -12  128.10    6.98
  -3  -5 -12  125.20    6.83
  -3  -5 -13   49.47    6.17
  -3  -5 -13   40.17    2.30
  -3  -5 -13   41.11    2.33
  -3  -5 -14   57.64    7.17
  -3  -5 -14   47.12    2.66
  -3  -5 -14   43.98    2.47
  -3  -5 -15    0.51    1.24
  -3  -5 -16   31.01    4.05
  -3  -5 -17    0.09    1.21
  -3  -5 -18   10.39    2.08
   2   4 -20    5.76    1.23
   2   4 -20    6.32    0.85
   2   4 -19    5.09    0.77
   2   4 -19    6.29    1.00
   2   4 -18   13.46    1.05
   2   4 -18   14.81    1.15
   2   4 -17   17.65    1.24
   2   4 -17   17.16    1.27
   2   4 -16    4.24    0.73
   2   4 -16    4.00    0.68
   2   4 -15    3.00    0.60
   2   4 -15    3.06    0.67
   2   4 -14   83.06    4.60
   2   4 -14   81.31    4.50
   2   4 -13   12.33    0.97
   2   4 -12   97.95    5.40
  -2  -4  11    2.83    0.59
   2   4 -11    2.72    0.51
  -2  -4  10   46.31    2.67
   2   4 -10   44.22    2.58
  -2  -4   9    1.40    0.59
   2   4  -9    1.09    0.54
  -2  -4   8  336.20   18.11
   2   4  -8  335.30   18.07
  -2  -4   7   28.98    1.79
   2   4  -7   31.75    1.93
  -2  -4   6  496.10   26.67
   2   4  -6  477.60   25.66
  -2  -4   5  216.00   11.70
   2   4  -5  213.90   11.58
  -2  -4   4  161.40    8.80
   2   4  -4  158.70    8.64
  -2  -4   3  175.30    9.54
   2   4  -3  186.20   10.11
   2   4  -1  269.40   32.47
  -2  -4   1  250.90   13.56
   2   4  -1  248.30   13.42
  -2  -4   0  330.00   39.86
   2   4   0  278.50   33.66
  -2  -4   0  344.20   18.55
   2   4   0  346.40   18.65
  -2  -4  -1   10.94    1.45
  -2  -4  -1   11.89    0.92
   2   4   1   13.60    1.03
  -2  -4  -2  833.80  100.40
  -2  -4  -2  937.60   50.25
   2   4   2  947.50   50.79
  -2  -4  -3   35.43    2.08
   2   4   3   35.51    2.08
  -2  -4  -4  101.90    5.58
   2   4   4  115.60    6.31
  -2  -4  -5    8.07    0.70
   2   4   5    7.91    0.70
  -2  -4  -6  167.00    9.06
   2   4   6  169.60    9.20
  -2  -4  -7   63.71    3.54
   2   4   7   64.11    3.58
  -2  -4  -8  409.40   22.01
   2   4   8  413.50   22.23
  -2  -4  -9   79.88    4.42
   2   4   9   80.86    4.46
  -2  -4 -10    5.19    0.59
  -2  -4 -11   64.03    3.56
  -2  -4 -11   69.02    3.82
  -2  -4 -12  177.30    9.59
  -2  -4 -12  171.90    9.31
  -2  -4 -13    7.68    0.70
  -2  -4 -13    6.99    0.71
  -2  -4 -14   57.77    7.17
  -2  -4 -14   55.60    3.09
  -2  -4 -14   55.69    3.11
  -2  -4 -15    1.30    1.23
  -2  -4 -15   -0.09    0.48
  -2  -4 -15    0.10    0.50
  -2  -4 -16   -0.84    1.30
  -2  -4 -17    1.45    1.21
  -2  -4 -18    1.76    1.29
   1   3 -20   -0.46    1.08
   1   3 -19    9.49    0.95
   1   3 -19   10.82    0.86
   1   3 -18    7.67    0.80
   1   3 -18    6.84    0.73
   1   3 -17   21.04    1.35
   1   3 -17   18.04    1.24
   1   3 -16   28.89    1.72
   1   3 -16   29.88    1.79
   1   3 -15   30.76    1.83
   1   3 -15   30.19    1.83
   1   3 -14    6.27    0.66
   1   3 -14    8.07    0.81
   1   3 -13   84.43    4.67
   1   3 -13   79.93    4.43
   1   3 -12   10.43    0.85
   1   3 -12   12.05    0.94
   1   3 -11   21.23    1.32
   1   3 -10  103.60    5.70
  -1  -3   9  119.80    6.54
   1   3  -9  115.90    6.35
  -1  -3   8   22.07    1.39
   1   3  -8   20.62    1.28
  -1  -3   7   51.14    2.89
   1   3  -7   51.18    2.91
  -1  -3   6   14.78    1.01
   1   3  -6   16.65    1.14
  -1  -3   5   71.06    3.95
   1   3  -5   67.41    3.76
  -1  -3   4  634.40   34.04
   1   3  -4  613.30   32.91
  -1  -3   3  727.90   39.03
   1   3  -3  700.70   37.56
  -1  -3   2   26.88    1.64
   1   3  -2   27.21    1.65
  -1  -3   0  259.50   13.98
   1   3   0  253.90   13.67
  -1  -3  -1  175.30    9.48
   1   3   1  172.70    9.35
  -1  -3  -2    8.73    0.75
   1   3   2    8.59    0.76
  -1  -3  -3  295.60   15.92
   1   3   3  300.90   16.20
  -1  -3  -4   49.58    2.80
   1   3   4   48.05    2.71
  -1  -3  -5  815.60   43.72
   1   3   5  886.20   47.50
  -1  -3  -6   79.88    4.41
   1   3   6   80.82    4.45
  -1  -3  -7  659.20   35.37
   1   3   7  649.20   34.84
  -1  -3  -8    9.78    0.75
   1   3   8    8.67    0.73
  -1  -3  -9  202.00   10.92
  -1  -3 -10  139.10    7.58
  -1  -3 -10  148.90    8.07
  -1  -3 -12    1.58    0.52
  -1  -3 -12    1.23    0.48
  -1  -3 -13   19.67    1.27
  -1  -3 -13   19.42    1.24
  -1  -3 -14    1.23    0.55
  -1  -3 -14    0.27    0.45
  -1  -3 -15    7.56    0.74
  -1  -3 -15    7.67    0.74
  -1  -3 -16   32.13    1.89
  -1  -3 -16   30.45    1.78
  -1  -3 -17   -0.05    1.28
  -1  -3 -17    0.29    0.50
  -1  -3 -17    0.42    0.42
  -1  -3 -18    5.48    1.34
  -1  -3 -19    3.17    1.16
   0   2 -20    1.22    1.38
   0   2 -19    0.98    1.26
   0   2 -18    2.34    1.19
   0   2 -17   56.67    7.07
   0   2 -17   46.13    2.58
   0   2 -17   48.45    2.71
   0   2 -16    2.07    0.50
   0   2 -16    1.42    0.52
   0   2 -15   10.18    0.77
   0   2 -15    9.52    0.76
   0   2 -14    0.94    0.48
   0   2 -14    0.47    0.50
   0   2 -13    1.08    0.43
   0   2 -13    1.40    0.47
   0   2 -12    2.52    0.49
   0   2 -12    3.10    0.51
   0   2 -11  289.50   15.58
   0   2 -11  298.40   16.07
   0   2 -10    1.40    0.43
   0   2 -10    0.31    0.43
   0   2  -9   11.61    0.83
   0   2  -9   12.14    0.84
   0   2  -8   28.13    1.64
   0  -2   7  410.30   22.04
   0   2  -7  406.70   21.86
   0  -2   6    3.82    0.51
   0   2  -6    3.60    0.53
   0  -2   5  549.90   29.50
   0   2  -5  572.20   30.68
   0  -2   4  152.40    8.25
   0   2  -4  157.00    8.49
   0  -2   2  385.10   20.66
   0   2  -2  374.20   20.08
   0  -2   1   71.38    3.90
   0   2  -1   69.31    3.80
   0  -2   0  119.80   14.44
   0   2   0  116.30   14.02
   0  -2   0  123.40    6.67
   0   2   0  129.50    7.00
   0  -2  -1   72.87    3.99
   0   2   1   72.86    3.99
   0  -2  -2  381.60   20.48
   0   2   2  375.90   20.18
   0  -2  -4  157.30    8.52
   0   2   4  149.30    8.10
   0  -2  -5  568.80   30.52
   0   2   5  555.70   29.81
   0  -2  -6    3.78    0.56
   0   2   6    3.17    0.54
   0  -2  -7  415.40   22.33
   0   2   7  395.90   21.29
   0  -2  -8   26.87    1.61
   0  -2  -9   10.72    0.80
   0  -2  -9   10.86    0.83
   0  -2 -10    0.48    0.44
   0  -2 -10   -0.12    0.42
   0  -2 -11  311.00   16.77
   0  -2 -11  284.00   15.29
   0  -2 -12    2.63    0.56
   0  -2 -12    2.86    0.53
   0  -2 -13    0.44    0.53
   0  -2 -13    1.23    0.48
   0  -2 -14    1.15    0.51
   0  -2 -14   -0.30    0.54
   0  -2 -15    8.95    0.79
   0  -2 -15    9.83    0.84
   0  -2 -16    1.34    0.59
   0  -2 -16    2.71    0.58
   0  -2 -17   54.09    3.05
   0  -2 -17   53.95    3.03
   0  -2 -18    0.79    0.63
   0  -2 -18    0.97    0.53
   0  -2 -19    0.54    1.28
   0  -2 -20    1.14    1.36
  -1   1 -19    6.21    1.34
  -1   1 -18   14.20    2.29
  -1   1 -17    2.33    1.36
  -1   1 -16   38.10    4.89
  -1   1 -15   13.66    2.08
  -1   1 -14    0.09    0.32
  -1   1 -14    0.16    0.38
  -1   1 -13   26.94    1.56
  -1   1 -13   29.77    1.72
  -1   1 -12   29.09    1.67
  -1   1 -12   29.63    1.71
  -1   1 -11   46.69    2.59
  -1   1 -11   46.96    2.63
  -1   1 -10  150.10    8.10
  -1   1 -10  145.90    7.89
  -1   1  -9   29.56    1.71
  -1   1  -9   30.17    1.73
  -1   1  -8   16.84    1.03
  -1   1  -8   17.66    1.08
  -1   1  -7  472.80   25.38
  -1   1  -7  480.80   25.82
  -1   1  -6   19.33    1.15
  -1   1  -6   20.68    1.22
   1  -1   1   94.60   11.45
  -1   1  -1   89.64   10.85
   1  -1   1   78.93    4.26
  -1   1  -1   67.69    3.66
   1  -1   0  165.80   19.98
  -1   1   0  171.60   20.68
   1  -1   0  164.20    8.82
  -1   1   0  159.60    8.57
   1  -1  -2  463.40   24.84
   1  -1  -3   32.74    1.90
  -1   1   3   30.56    1.77
   1  -1  -4   16.67    1.11
  -1   1   4   18.39    1.19
   1  -1  -5   35.88    2.09
   1  -1  -6  140.80    7.66
   1  -1  -7   73.66    4.08
   1  -1  -7   73.04    4.06
   1  -1  -8  185.50   10.05
   1  -1  -8  179.50    9.71
   1  -1  -9    4.17    0.59
   1  -1  -9    4.02    0.55
   1  -1 -10    3.16    0.51
   1  -1 -10    3.31    0.58
   1  -1 -11   29.38    1.75
   1  -1 -11   28.60    1.69
   1  -1 -12   86.76    4.80
   1  -1 -12   83.66    4.61
   1  -1 -13   52.55    2.98
   1  -1 -13   56.81    3.22
   1  -1 -14    7.25    0.75
   1  -1 -14    8.24    0.75
   1  -1 -15   25.25    1.56
   1  -1 -15   25.78    1.59
   1  -1 -16   31.76    1.91
   1  -1 -16   32.57    1.93
   1  -1 -17    0.50    0.61
   1  -1 -17    0.73    0.59
   1  -1 -18   21.67    1.43
   1  -1 -18   24.37    1.55
   1  -1 -19   13.68    1.05
   1  -1 -19   12.59    1.16
   1  -1 -20    1.97    1.14
  -2   0 -19    1.60    1.15
  -2   0 -18    5.49    1.54
  -2   0 -17    0.27    1.13
  -2   0 -16   20.81    2.95
  -2   0 -15    0.19    1.20
  -2   0 -14   28.64    3.78
  -2   0 -13   -0.31    1.03
  -2   0 -12   84.49    4.63
  -2   0 -12   76.59    4.19
  -2   0 -11    0.75    0.28
  -2   0 -11    0.75    0.27
  -2   0 -10   81.35    4.43
  -2   0 -10   79.09    4.30
  -2   0  -9    0.61    0.25
  -2   0  -9    0.72    0.30
  -2   0  -8   70.93    3.86
  -2   0  -8   72.61    3.95
  -2   0  -7    1.56    0.27
  -2   0  -7    1.15    0.28
  -2   0  -5    0.57    0.19
  -2   0  -5    0.47    0.22
  -2   0  -4  320.60   17.53
  -2   0  -4  337.80   18.46
  -2   0  -3    3.28    0.99
  -2   0  -2  544.40   65.57
   2   0   1    5.93    1.06
  -2   0  -1    4.76    1.05
   2   0   1    4.88    0.38
  -2   0  -1    4.24    0.33
   2   0  -1    4.27    0.93
  -2   0   1    4.98    0.93
   2   0  -1    3.84    0.43
  -2   0   1    3.18    0.40
   2   0  -2  263.80   31.80
  -2   0   2  240.40   28.98
   2   0  -2  255.70   13.75
  -2   0   2  253.20   13.61
   2   0  -3    6.68    0.69
   2   0  -4   69.52    3.85
   2   0  -5    3.53    0.60
   2   0  -6  189.80   10.28
   2   0  -6  187.90   10.19
   2   0  -7    1.33    0.51
   2   0  -7    1.46    0.54
   2   0  -8  255.50   13.79
   2   0  -8  253.00   13.66
   2   0  -9    0.27    0.51
   2   0  -9    0.66    0.45
   2   0 -10   51.63    2.96
   2   0 -10   50.16    2.90
   2   0 -11    0.96    0.54
   2   0 -11   -0.40    0.49
   2   0 -12    6.53    0.68
   2   0 -12    5.95    0.62
   2   0 -13   -0.08    0.58
   2   0 -13    0.63    0.60
   2   0 -14  137.40    7.49
   2   0 -14  139.00    7.55
   2   0 -15    0.49    0.61
   2   0 -15    0.59    0.62
   2   0 -16   27.70    1.71
   2   0 -16   30.90    1.85
   2   0 -17   -0.14    0.59
   2   0 -17    0.01    0.60
   2   0 -18   32.06    1.97
   2   0 -18   29.40    1.80
   2   0 -19    0.37    0.78
   2   0 -19   -0.58    0.73
   2   0 -21   -0.35    0.77
   2   0 -21   -0.33    0.82
  -3  -1 -18    6.83    1.61
  -3  -1 -17    2.39    1.16
  -3  -1 -16   66.84    8.26
  -3  -1 -15   40.23    5.14
  -3  -1 -14    5.26    1.39
  -3  -1 -13    8.45    1.66
  -3  -1 -12   18.62    2.65
  -3  -1 -11   10.96    1.81
  -3  -1 -10   53.33    6.67
  -3  -1  -9    8.80    1.52
  -3  -1  -8  106.10   12.94
  -3  -1  -8   87.87    4.81
  -3  -1  -8   92.85    5.09
  -3  -1  -7   78.99    9.69
  -3  -1  -7   66.02    3.60
  -3  -1  -7   65.40    3.57
  -3  -1  -6   29.85    3.85
  -3  -1  -6   28.45    1.58
  -3  -1  -6   27.75    1.54
  -3  -1  -5  993.30  119.60
  -3  -1  -4  322.60   38.92
   3   1   4  303.30   16.35
  -3  -1  -4  294.20   15.87
  -3  -1  -3    6.50    1.35
   3   1   3    4.90    0.40
  -3  -1  -3    5.16    0.41
   3   1   2   43.89    5.45
  -3  -1  -2   43.71    5.45
   3   1   2   39.27    2.17
  -3  -1  -2   40.20    2.22
   3   1   1   10.54    1.64
  -3  -1  -1   10.34    1.59
   3   1   1   11.15    0.75
  -3  -1  -1   10.72    0.73
   3   1   0   47.20    5.81
  -3  -1   0   48.54    5.96
   3   1   0   41.81    2.35
  -3  -1   0   41.79    2.36
   3   1  -3  264.30   31.90
   3   1  -3  309.90   16.69
  -3  -1   3  302.90   16.32
   3   1  -4   33.82    2.04
  -3  -1   4   30.92    1.90
   3   1  -5   15.60    1.10
  -3  -1   5   15.58    1.14
   3   1  -6  163.20    8.88
  -3  -1   6  161.70    8.79
   3   1  -7  366.90   19.74
  -3  -1   7  381.00   20.51
   3   1  -8  165.20    9.00
   3   1  -9    6.20    0.68
   3   1 -10  189.60   10.30
   3   1 -10  193.60   10.50
   3   1 -11   17.91    1.26
   3   1 -11   16.87    1.20
   3   1 -12   40.76    2.41
   3   1 -12   43.14    2.48
   3   1 -13   28.69    1.79
   3   1 -13   28.31    1.75
   3   1 -14   11.42    0.94
   3   1 -14    9.56    0.87
   3   1 -15   24.94    1.57
   3   1 -15   25.55    1.68
   3   1 -16   14.01    1.03
   3   1 -16   13.91    1.08
   3   1 -17   20.87    1.36
   3   1 -17   21.96    1.48
   3   1 -18   41.32    2.42
   3   1 -18   43.56    2.57
   3   1 -19   20.44    1.40
   3   1 -19   18.05    1.33
   3   1 -20    2.28    0.79
   3   1 -20    0.15    0.94
  -4  -2 -18    1.49    1.42
  -4  -2 -17   44.89    5.72
  -4  -2 -16   -0.65    1.47
  -4  -2 -15   92.29   11.31
  -4  -2 -14    0.58    1.11
  -4  -2 -13    1.62    1.23
  -4  -2 -12    2.33    1.19
  -4  -2 -11   42.59    5.37
  -4  -2 -10    0.20    1.07
  -4  -2  -9  351.90   42.48
  -4  -2  -8   10.77    1.75
  -4  -2  -7   38.72    4.87
  -4  -2  -7   35.81    1.97
  -4  -2  -6   13.58    2.01
   4   2   6   15.00    0.89
  -4  -2  -6   14.94    0.89
  -4  -2  -5  377.30   45.51
   4   2   5  376.80   20.26
  -4  -2  -5  376.80   20.26
  -4  -2  -4   19.95    2.74
   4   2   4   26.23    1.50
  -4  -2  -4   24.86    1.43
  -4  -2  -3 1129.00  135.90
   4   2   2   11.13    1.73
  -4  -2  -2   11.45    1.76
   4   2   2   11.88    0.83
  -4  -2  -2   10.12    0.72
   4   2   1  254.70   30.76
  -4  -2  -1  227.80   27.50
   4   2   1  247.20   13.31
  -4  -2  -1  254.40   13.71
   4   2   0   24.27    3.12
  -4  -2   0   24.96    3.23
   4   2   0   23.42    1.45
  -4  -2   0   22.10    1.38
   4   2  -1  396.20   47.74
  -4  -2   1  372.50   44.89
   4   2  -1  408.30   21.95
  -4  -2   1  409.30   22.00
   4   2  -2   22.54    2.94
  -4  -2   2   23.10    3.00
   4   2  -2   26.51    1.67
  -4  -2   2   20.95    1.42
   4   2  -4   29.35    3.81
   4   2  -4   30.14    1.93
  -4  -2   4   28.34    1.82
   4   2  -5    9.81    0.92
  -4  -2   5   10.20    0.96
   4   2  -6   26.22    1.67
  -4  -2   6   26.48    1.70
   4   2  -7   34.45    2.08
  -4  -2   7   36.35    2.19
   4   2  -8   10.07    0.91
  -4  -2   8   11.22    0.94
   4   2  -9   80.25    4.49
  -4  -2   9   79.75    4.46
   4   2 -10    4.66    0.62
   4   2 -11  262.00   14.19
   4   2 -13   18.07    1.28
   4   2 -13   18.02    1.19
   4   2 -14    6.65    0.83
   4   2 -14    5.09    0.79
   4   2 -15   13.12    1.09
   4   2 -15   13.86    1.02
   4   2 -16    1.06    0.65
   4   2 -16    0.57    0.64
   4   2 -17   53.43    3.10
   4   2 -17   52.69    3.02
   4   2 -18    2.00    0.66
   4   2 -18    1.60    0.75
   4   2 -19   23.26    1.56
   4   2 -19   22.77    1.53
   4   2 -20    1.32    0.97
   4   2 -20   -0.27    0.82
   4   2 -21    0.56    0.94
   4   2 -21    0.71    1.13
  -5  -3 -17    3.47    1.38
  -5  -3 -16    9.95    2.04
  -5  -3 -15   14.23    2.33
  -5  -3 -14   33.77    4.39
  -5  -3 -13  120.60   14.71
  -5  -3 -12    5.43    1.45
  -5  -3 -11  220.20   26.66
  -5  -3 -10   54.44    6.78
  -5  -3  -9   84.46   10.36
  -5  -3  -8   35.36    4.52
  -5  -3  -8   29.56    1.65
  -5  -3  -7  151.80   18.41
   5   3   7  145.60    7.88
  -5  -3  -7  141.50    7.65
  -5  -3  -6    3.21    1.12
   5   3   6    1.88    0.38
  -5  -3  -6    2.13    0.38
  -5  -3  -5  201.10   24.33
   5   3   5  203.00   10.95
  -5  -3  -5  206.20   11.12
  -5  -3  -4   49.12    6.12
   5   3   4   35.82    2.03
  -5  -3  -4   36.39    2.07
  -5  -3  -3  296.10   35.75
   5   3   3  318.70   17.14
  -5  -3  -3  316.20   17.02
   5   3   2  322.40   38.89
  -5  -3  -2  324.80   39.19
   5   3   2  287.60   15.49
  -5  -3  -2  295.90   15.94
   5   3   1  318.50   38.42
  -5  -3  -1  290.10   34.99
   5   3   1  299.30   16.12
  -5  -3  -1  295.10   15.90
   5   3   0    1.80    0.89
  -5  -3   0    2.23    1.02
   5   3   0    3.27    0.58
  -5  -3   0    2.10    0.56
   5   3  -1    8.47    1.47
  -5  -3   1   10.90    1.70
   5   3  -1    7.45    0.79
  -5  -3   1    6.47    0.76
   5   3  -2  107.40   13.05
  -5  -3   2   97.76   11.88
   5   3  -2  108.10    5.97
  -5  -3   2  106.60    5.89
   5   3  -3  108.60   13.21
  -5  -3   3  106.00   12.88
   5   3  -3  120.60    6.64
  -5  -3   3  119.80    6.60
   5   3  -4  996.30  120.00
   5   3  -4  980.80   52.59
  -5  -3   4  991.40   53.16
   5   3  -5   51.39    6.40
   5   3  -5   43.89    2.61
  -5  -3   5   47.40    2.79
   5   3  -6   11.72    0.98
  -5  -3   6   11.15    0.98
   5   3  -7   73.05    4.14
  -5  -3   7   73.89    4.18
   5   3  -8   66.48    3.75
  -5  -3   8   71.97    4.06
   5   3  -9   78.43    4.40
  -5  -3   9   76.36    4.29
   5   3 -10  118.30    6.52
  -5  -3  10  125.50    6.91
   5   3 -11   33.08    2.03
  -5  -3  11   32.79    2.01
   5   3 -12   90.10    5.04
   5   3 -13  184.20   10.00
   5   3 -14    6.54    0.77
   5   3 -14    6.89    0.77
   5   3 -15   92.45    5.16
   5   3 -15   90.04    5.02
   5   3 -16    4.99    0.78
   5   3 -16    5.82    0.76
   5   3 -17    5.61    0.84
   5   3 -17    6.02    0.73
   5   3 -18   18.27    1.34
   5   3 -18   19.63    1.33
   5   3 -19   11.05    1.15
   5   3 -19   12.86    1.07
   5   3 -20    1.55    0.95
   5   3 -20    2.77    0.83
   5   3 -21   15.35    1.39
   5   3 -21   15.89    1.27
  -6  -4 -16    3.29    1.69
  -6  -4 -15    8.19    1.87
  -6  -4 -14   14.15    2.19
  -6  -4 -13    7.57    1.73
  -6  -4 -12  249.00   30.11
  -6  -4 -11   19.85    2.82
  -6  -4 -10   15.96    2.40
  -6  -4  -9   54.87    6.82
  -6  -4  -8   29.83    3.89
   6   4   8   26.82    1.54
  -6  -4  -8   25.55    1.45
  -6  -4  -7   28.91    3.78
   6   4   7   25.65    1.50
  -6  -4  -7   26.53    1.54
  -6  -4  -6  191.10   23.14
   6   4   6  236.70   12.76
  -6  -4  -6  232.80   12.54
  -6  -4  -5    7.99    1.45
   6   4   5    8.89    0.71
  -6  -4  -5    8.08    0.67
  -6  -4  -4  114.10   13.88
   6   4   4  125.30    6.82
  -6  -4  -4  123.70    6.72
  -6  -4  -3   40.13    5.06
   6   4   3   37.37    2.15
  -6  -4  -3   38.59    2.23
   6   4   2    1.36    0.94
  -6  -4  -2    2.04    0.97
   6   4   2    0.56    0.50
  -6  -4  -2    0.63    0.49
   6   4   1    2.49    1.10
  -6  -4  -1    3.80    1.05
   6   4   1    5.01    0.64
  -6  -4  -1    3.85    0.58
   6   4   0   67.10    8.24
  -6  -4   0   69.29    8.49
   6   4   0   58.53    3.30
  -6  -4   0   65.97    3.72
   6   4  -1   12.72    1.91
  -6  -4   1   13.92    2.03
   6   4  -1   14.35    1.07
  -6  -4   1   14.60    1.10
   6   4  -2   47.90    5.97
  -6  -4   2   50.75    6.26
   6   4  -2   49.30    2.87
  -6  -4   2   53.59    3.09
   6   4  -3  220.50   26.66
  -6  -4   3  218.70   26.42
   6   4  -3  225.30   12.24
  -6  -4   3  231.50   12.56
   6   4  -4    3.40    1.08
   6   4  -4    1.49    0.61
  -6  -4   4    1.29    0.76
   6   4  -5    4.97    1.21
   6   4  -5    4.55    0.75
  -6  -4   5    5.09    0.79
   6   4  -6  680.40   81.97
   6   4  -6  589.90   31.69
  -6  -4   6  598.60   32.18
   6   4  -7   89.32   10.93
   6   4  -7   81.88    4.60
  -6  -4   7   86.55    4.85
   6   4  -8  527.50   28.38
  -6  -4   8  531.80   28.62
   6   4  -9   42.79    2.56
  -6  -4   9   42.39    2.54
   6   4 -10   42.21    2.53
  -6  -4  10   43.22    2.58
   6   4 -11   56.04    3.19
  -6  -4  11   54.69    3.17
   6   4 -12   55.38    3.20
  -6  -4  12   53.21    3.08
   6   4 -13    5.05    0.77
  -6  -4  13    2.54    0.71
   6   4 -14  236.60   12.79
   6   4 -15   45.59    2.71
   6   4 -16   52.05    3.05
   6   4 -16   54.49    3.10
   6   4 -17   17.38    1.26
   6   4 -17   19.27    1.40
   6   4 -18    4.43    0.80
   6   4 -18    5.15    0.81
   6   4 -20    8.93    1.07
   6   4 -20    8.17    0.95
   6   4 -21   -1.32    1.02
   6   4 -21    0.35    0.80
  -7  -5 -15   -0.19    1.44
  -7  -5 -14    8.46    1.93
  -7  -5 -13   11.03    2.03
  -7  -5 -12   11.23    2.01
  -7  -5 -11   21.26    3.04
  -7  -5 -10  115.50   14.10
  -7  -5  -9   11.46    2.05
   7   5   9    9.74    0.68
  -7  -5  -9    8.42    0.59
  -7  -5  -8  132.10   16.06
   7   5   8  137.50    7.46
  -7  -5  -8  134.70    7.31
  -7  -5  -7   19.64    2.75
   7   5   7   18.09    1.16
  -7  -5  -7   19.54    1.23
  -7  -5  -6    1.06    1.22
   7   5   6    2.06    0.49
  -7  -5  -6    1.19    0.44
  -7  -5  -5   36.41    4.63
   7   5   5   33.84    1.98
  -7  -5  -5   31.61    1.88
  -7  -5  -4  236.00   28.54
   7   5   4  260.60   14.06
  -7  -5  -4  257.10   13.87
  -7  -5  -3    2.90    1.04
   7   5   3   -0.37    0.51
  -7  -5  -3    0.02    0.51
   7   5   2    4.78    1.13
  -7  -5  -2    4.25    1.21
   7   5   2    6.68    0.74
  -7  -5  -2    7.26    0.76
   7   5   1    1.68    0.88
  -7  -5  -1    0.69    0.99
   7   5   1    2.22    0.57
  -7  -5  -1    2.16    0.62
   7   5   0  375.10   45.23
  -7  -5   0  384.10   46.31
   7   5   0  401.30   21.61
  -7  -5   0  474.30   25.52
   7   5  -1   91.42   11.13
  -7  -5   1   99.78   12.15
   7   5  -1   87.25    4.86
  -7  -5   1   78.69    4.40
   7   5  -2  199.40   24.14
  -7  -5   2  190.20   23.00
   7   5  -2  173.70    9.47
  -7  -5   2  179.70    9.80
   7   5  -3   26.17    3.49
  -7  -5   3   26.96    3.50
   7   5  -3   30.04    1.89
  -7  -5   3   33.96    2.14
   7   5  -4  218.10   26.39
   7   5  -4  206.40   11.22
  -7  -5   4  232.50   12.64
   7   5  -5   35.35    4.60
   7   5  -5   37.74    2.28
  -7  -5   5   40.40    2.48
   7   5  -6 2052.00  247.00
   7   5  -6 2074.00  111.10
  -7  -5   6 2126.00  113.80
   7   5  -7  421.90   50.91
   7   5  -7  339.90   18.37
  -7  -5   7  352.30   19.03
   7   5  -8  207.30   25.12
   7   5  -8  159.80    8.76
  -7  -5   8  170.80    9.35
   7   5  -9    6.18    1.69
   7   5  -9    6.00    0.76
  -7  -5   9    6.29    0.80
   7   5 -10   70.18    4.00
  -7  -5  10   70.39    4.03
   7   5 -11    0.13    0.63
  -7  -5  11    2.61    0.74
   7   5 -12  186.20   10.12
  -7  -5  12  180.30    9.84
   7   5 -13   15.01    1.21
  -7  -5  13   13.42    1.16
   7   5 -14   27.38    1.77
  -7  -5  14   27.05    1.77
   7   5 -15   23.27    1.55
   7   5 -16   72.65    4.13
   7   5 -17    0.71    0.77
   7   5 -17    1.57    0.66
   7   5 -18   43.71    2.56
   7   5 -18   45.01    2.66
   7   5 -19    3.48    0.81
   7   5 -19    5.19    0.82
   7   5 -20    0.54    0.84
   7   5 -20    0.43    0.79
   7   5 -21    1.23    0.96
   7   5 -21    0.92    0.72
  -8  -6 -14    1.03    1.54
  -8  -6 -13    0.18    1.45
  -8  -6 -12    5.69    1.70
  -8  -6 -11   16.83    2.58
  -8  -6 -10    6.27    1.65
  -8  -6  -9  159.50   19.37
   8   6   9  147.90    8.03
  -8  -6  -9  155.40    8.43
  -8  -6  -8   -0.42    1.36
   8   6   8    0.67    0.50
  -8  -6  -8    0.24    0.46
  -8  -6  -7   31.88    4.13
   8   6   7   40.95    2.36
  -8  -6  -7   38.16    2.19
  -8  -6  -6    5.02    1.34
   8   6   6    4.97    0.66
  -8  -6  -6    4.42    0.62
  -8  -6  -5   76.32    9.38
   8   6   5   69.34    3.86
  -8  -6  -5   62.11    3.48
  -8  -6  -4   14.55    2.21
   8   6   4   17.72    1.19
  -8  -6  -4   20.91    1.35
  -8  -6  -3  197.90   23.95
   8   6   3  189.50   10.29
  -8  -6  -3  196.70   10.68
  -8  -6  -2   18.28    2.58
   8   6   2   17.30    1.20
  -8  -6  -2   17.88    1.23
   8   6   1   73.42    9.02
  -8  -6  -1   71.72    8.80
   8   6   1   71.48    4.02
  -8  -6  -1   76.34    4.27
   8   6   0    2.17    1.13
  -8  -6   0    2.78    1.03
   8   6   0    0.76    0.60
  -8  -6   0    1.15    0.61
   8   6  -1  146.40   17.75
  -8  -6   1  162.90   19.72
   8   6  -1  183.90   10.02
  -8  -6   1  177.40    9.67
   8   6  -2   54.77    6.78
  -8  -6   2   53.78    6.66
   8   6  -2   62.59    3.59
  -8  -6   2   59.62    3.43
   8   6  -3  312.40   37.72
  -8  -6   3  293.20   35.39
   8   6  -3  252.00   13.67
  -8  -6   3  292.40   15.84
   8   6  -5   71.17    8.79
   8   6  -5   64.58    3.71
  -8  -6   5   62.56    3.61
   8   6  -6   10.58    1.87
   8   6  -6    8.40    0.95
  -8  -6   6    7.21    0.90
   8   6  -7  269.90   32.63
   8   6  -7  309.70   16.76
  -8  -6   7  306.90   16.62
   8   6  -8   35.72    4.64
   8   6  -8   43.25    2.63
  -8  -6   8   45.84    2.73
   8   6  -9  309.30   37.38
   8   6  -9  225.70   12.28
  -8  -6   9  220.00   11.98
   8   6 -10    0.40    1.23
   8   6 -10    1.22    0.62
  -8  -6  10    1.01    0.70
   8   6 -11   16.81    2.47
   8   6 -11   15.62    1.22
  -8  -6  11   16.54    1.31
   8   6 -12    6.86    0.77
  -8  -6  12    7.31    0.89
   8   6 -13   84.17    4.73
  -8  -6  13   86.78    4.88
   8   6 -14   57.88    3.36
  -8  -6  14   55.66    3.26
   8   6 -15   27.73    1.75
  -8  -6  15   28.60    1.84
   8   6 -16    1.26    0.65
   8   6 -17   13.15    1.02
   8   6 -18    7.95    0.82
   8   6 -20   -0.43    0.81
   8   6 -20    1.31    0.75
   8   6 -21    0.69    0.86
   8   6 -21    0.70    0.65
  -9  -7 -13   19.66    2.91
  -9  -7 -12    0.85    1.46
  -9  -7 -11   23.90    3.33
  -9  -7 -10   14.82    2.39
  -9  -7  -9    6.29    1.58
   9   7   9    2.02    0.58
  -9  -7  -9    1.76    0.49
  -9  -7  -8   38.05    4.88
   9   7   8   42.01    2.44
  -9  -7  -8   37.45    2.18
  -9  -7  -7   27.29    3.65
   9   7   7   25.77    1.61
  -9  -7  -7   27.79    1.70
  -9  -7  -6   -0.97    1.27
   9   7   6   -0.06    0.60
  -9  -7  -6    0.50    0.60
  -9  -7  -5   16.71    2.46
   9   7   5   16.75    1.17
  -9  -7  -5   14.99    1.07
  -9  -7  -4   66.29    8.20
   9   7   4   60.19    3.43
  -9  -7  -4   54.26    3.10
  -9  -7  -3   47.01    5.96
   9   7   3   58.35    3.33
  -9  -7  -3   57.81    3.29
  -9  -7  -2   12.36    2.05
   9   7   2    8.97    0.85
  -9  -7  -2   10.89    0.91
   9   7   1   30.89    3.91
  -9  -7  -1   32.03    4.12
   9   7   1   24.90    1.61
  -9  -7  -1   27.19    1.77
   9   7   0   29.76    3.80
  -9  -7   0   29.83    3.91
   9   7   0   25.19    1.60
  -9  -7   0   27.47    1.76
   9   7  -1  137.90   16.74
  -9  -7   1  152.00   18.45
   9   7  -1  129.50    7.13
  -9  -7   1  131.00    7.21
   9   7  -2    1.21    1.10
  -9  -7   2    1.76    1.13
   9   7  -2    0.54    0.61
  -9  -7   2    0.06    0.69
   9   7  -3   67.99    8.41
  -9  -7   3   73.32    9.03
   9   7  -3   87.84    4.91
  -9  -7   3   86.11    4.87
   9   7  -4   82.25   10.15
   9   7  -4   70.37    3.99
  -9  -7   4   70.84    4.02
   9   7  -5   69.70    8.65
   9   7  -5   52.15    3.06
  -9  -7   5   52.64    3.11
   9   7  -6    3.02    1.43
   9   7  -6    2.96    0.74
  -9  -7   6    1.35    0.65
   9   7  -7  141.50   17.27
   9   7  -7  124.50    6.89
  -9  -7   7  119.30    6.61
   9   7  -8   15.28    2.53
   9   7  -8   16.84    1.24
  -9  -7   8   13.52    1.16
   9   7  -9  262.30   31.75
   9   7  -9  282.30   15.31
  -9  -7   9  284.10   15.40
   9   7 -10   24.22    3.45
   9   7 -10   16.69    1.24
  -9  -7  10   17.88    1.34
   9   7 -11    5.83    1.77
   9   7 -11   13.55    1.13
  -9  -7  11   12.25    1.04
   9   7 -12    0.99    1.39
   9   7 -12    2.21    0.75
  -9  -7  12    3.31    0.76
   9   7 -13   83.56   10.36
   9   7 -13   73.97    4.17
  -9  -7  13   74.53    4.24
   9   7 -14    9.84    1.95
   9   7 -14    7.11    0.89
  -9  -7  14    7.55    0.93
   9   7 -15   26.86    1.74
  -9  -7  15   24.85    1.67
   9   7 -16   14.51    1.16
  -9  -7  16   16.05    1.23
   9   7 -17    5.21    0.75
   9   7 -18    2.63    0.66
   9   7 -19   -0.59    0.68
   9   7 -20    0.18    0.82
   9   7 -20    0.56    0.66
   9   7 -21   12.99    1.23
   9   7 -21   14.30    1.10
 -10  -8 -12    8.53    1.92
 -10  -8 -11    1.71    1.68
 -10  -8 -10   21.76    3.14
 -10  -8  -9    7.13    1.81
  10   8   9    7.24    0.84
 -10  -8  -9    7.20    0.74
 -10  -8  -8   10.31    2.03
  10   8   8    5.01    0.75
 -10  -8  -8    5.61    0.75
 -10  -8  -7    0.00    1.43
  10   8   7   -0.05    0.61
 -10  -8  -7    1.27    0.61
 -10  -8  -6   45.31    5.74
  10   8   6   45.62    2.67
 -10  -8  -6   44.34    2.57
 -10  -8  -5   43.63    5.55
  10   8   5   46.89    2.74
 -10  -8  -5   48.04    2.81
 -10  -8  -4   35.63    4.64
  10   8   4   34.19    2.07
 -10  -8  -4   34.23    2.11
 -10  -8  -3    9.66    1.89
  10   8   3   12.06    1.05
 -10  -8  -3   14.51    1.16
 -10  -8  -2    1.52    1.33
  10   8   2    1.96    0.71
 -10  -8  -2    1.02    0.69
 -10  -8  -1   20.45    2.89
  10   8   1   26.56    1.71
 -10  -8  -1   29.25    1.87
  10   8   0   43.24    5.40
 -10  -8   0   51.09    6.39
  10   8   0   40.33    2.40
 -10  -8   0   40.25    2.42
  10   8  -1   -1.04    1.02
 -10  -8   1    0.28    1.13
  10   8  -1    0.30    0.60
 -10  -8   1    1.88    0.68
  10   8  -2  177.10   21.44
 -10  -8   2  172.00   20.84
  10   8  -2  159.80    8.76
 -10  -8   2  167.70    9.17
  10   8  -3   68.17    8.38
 -10  -8   3   61.14    7.56
  10   8  -3   57.26    3.33
 -10  -8   3   52.99    3.09
  10   8  -4   12.78    2.07
  10   8  -4   20.82    1.47
 -10  -8   4   20.67    1.50
  10   8  -5   74.81    9.23
  10   8  -5   77.50    4.40
 -10  -8   5   78.94    4.47
  10   8  -6   44.88    5.67
  10   8  -6   36.09    2.23
 -10  -8   6   40.95    2.51
  10   8  -7    4.27    1.59
  10   8  -7    9.77    0.97
 -10  -8   7    7.11    0.88
  10   8  -8  105.20   12.87
  10   8  -8   97.11    5.45
 -10  -8   8   97.75    5.49
  10   8  -9    0.91    1.37
  10   8  -9    2.71    0.75
 -10  -8   9    3.86    0.75
  10   8 -10   59.66    7.47
  10   8 -10   66.50    3.83
 -10  -8  10   68.35    3.91
  10   8 -11   19.32    2.82
  10   8 -11   17.75    1.29
 -10  -8  11   17.44    1.33
  10   8 -12    8.68    1.98
  10   8 -12    2.78    0.77
 -10  -8  12    2.88    0.74
  10   8 -13    1.30    1.60
  10   8 -13    1.52    0.69
 -10  -8  13    1.12    0.77
  10   8 -14   44.94    5.75
  10   8 -14   40.41    2.42
 -10  -8  14   39.32    2.41
  10   8 -15   -0.04    1.53
  10   8 -15    0.68    0.67
 -10  -8  15   -0.05    0.69
  10   8 -16   34.41    4.61
  10   8 -16   33.75    2.06
 -10  -8  16   34.74    2.14
  10   8 -17    2.22    1.54
  10   8 -17    0.74    0.75
 -10  -8  17    1.37    0.71
  10   8 -18   -0.51    1.63
  10   8 -18   -0.14    0.68
  10   8 -19    8.65    2.00
  10   8 -19    6.39    0.76
  10   8 -20   11.35    2.20
  10   8 -20    9.02    0.92
  10   8 -21    1.72    1.30
  10   8 -21    1.36    0.75
  10   8 -21    1.76    0.95
 -11  -9 -11    0.03    1.59
 -11  -9 -10   13.10    2.35
 -11  -9  -9    4.33    1.72
  11   9   9    2.73    0.85
 -11  -9  -9    3.43    0.79
 -11  -9  -8   30.38    4.10
  11   9   8   26.75    1.73
 -11  -9  -8   27.17    1.68
 -11  -9  -7    4.39    1.73
  11   9   7    3.09    0.78
 -11  -9  -7    1.82    0.70
 -11  -9  -6   37.20    4.84
  11   9   6   43.72    2.56
 -11  -9  -6   43.53    2.56
 -11  -9  -5   11.48    2.07
  11   9   5   10.14    0.96
 -11  -9  -5    9.19    0.94
 -11  -9  -4    0.63    1.48
  11   9   4   -0.14    0.63
 -11  -9  -4    0.93    0.66
 -11  -9  -3    9.73    1.98
  11   9   3    8.95    0.95
 -11  -9  -3    9.20    0.95
 -11  -9  -2  111.60   13.65
  11   9   2  104.80    5.82
 -11  -9  -2  104.40    5.80
 -11  -9  -1    0.19    1.44
  11   9   1   -0.44    0.62
 -11  -9  -1    0.39    0.75
  11   9   0   55.94    6.93
 -11  -9   0   61.14    7.62
  11   9   0   62.95    3.60
 -11  -9   0   69.19    3.94
  11   9  -1    3.91    1.40
 -11  -9   1    2.60    1.47
  11   9  -1    5.60    0.74
 -11  -9   1    6.94    0.90
 -11  -9   2    5.85    1.62
 -11  -9   2    9.53    0.98
  11   9  -3    2.23    1.33
 -11  -9   3    1.74    1.42
  11   9  -3    4.18    0.77
 -11  -9   3    2.77    0.70
  11   9  -4  234.60   28.41
  11   9  -4  205.90   11.23
 -11  -9   4  191.60   10.46
  11   9  -5    7.83    1.99
  11   9  -5    8.28    0.86
 -11  -9   5    9.45    1.03
  11   9  -6   39.36    5.23
  11   9  -6   49.49    2.92
 -11  -9   6   47.59    2.83
  11   9  -7    4.40    1.80
  11   9  -7    3.26    0.74
 -11  -9   7    4.05    0.81
  11   9  -8    9.83    2.22
  11   9  -8    5.22    0.78
 -11  -9   8    4.11    0.83
  11   9  -9   27.86    4.02
  11   9  -9   17.26    1.29
 -11  -9   9   18.13    1.40
  11   9 -10    8.69    2.08
  11   9 -10    8.19    0.90
 -11  -9  10    6.73    0.90
  11   9 -11   -1.32    1.76
  11   9 -11    1.06    0.75
 -11  -9  11   -0.04    0.70
  11   9 -12   87.22   10.80
  11   9 -12   90.61    5.06
 -11  -9  12   84.37    4.76
  11   9 -13   -0.27    1.74
  11   9 -13    1.37    0.75
 -11  -9  13    1.16    0.75
  11   9 -14   16.50    2.80
  11   9 -14   19.70    1.41
 -11  -9  14   18.86    1.39
  11   9 -15    1.50    1.55
  11   9 -15    1.87    0.67
 -11  -9  15    0.53    0.72
  11   9 -16   19.89    3.13
  11   9 -16   10.46    0.97
 -11  -9  16    9.36    0.96
  11   9 -17   -0.41    1.76
  11   9 -17    2.28    0.68
 -11  -9  17    1.33    0.71
  11   9 -18   18.42    2.91
  11   9 -18   18.80    1.34
 -11  -9  18   17.25    1.29
  11   9 -19    1.94    1.48
  11   9 -19    0.93    0.68
  11   9 -20    7.12    1.81
  11   9 -20    5.91    0.77
 -12 -10  -9    4.84    1.82
  12  10   9    4.61    1.00
 -12 -10  -9    3.02    0.98
 -12 -10  -8    2.28    1.94
  12  10   8    0.52    0.91
 -12 -10  -8   -0.91    0.93
 -12 -10  -7   30.91    4.28
  12  10   7   26.23    1.73
 -12 -10  -7   25.93    1.70
 -12 -10  -6   28.21    3.89
  12  10   6   30.23    1.93
 -12 -10  -6   26.34    1.73
 -12 -10  -5    3.31    1.66
  12  10   5    4.51    0.79
 -12 -10  -5    4.83    0.82
 -12 -10  -4   14.47    2.40
  12  10   4   16.07    1.22
 -12 -10  -4   18.02    1.34
 -12 -10  -3    1.22    1.62
  12  10   3   -0.23    0.66
 -12 -10  -3    0.44    0.68
 -12 -10  -2    2.82    1.66
  12  10   2    1.96    0.68
 -12 -10  -2    3.34    0.78
 -12 -10  -1   32.89    4.38
  12  10   1   23.46    1.63
 -12 -10  -1   28.07    1.78
 -12 -10   0   -0.18    1.50
  12  10   0    1.00    0.68
 -12 -10   0    0.58    0.73
  12  10  -1    2.66    1.32
 -12 -10   1    2.63    1.63
  12  10  -1    4.03    0.74
 -12 -10   1    3.39    0.79
  12  10  -2  251.80   30.42
 -12 -10   2  280.70   33.94
  12  10  -2  255.00   13.83
 -12 -10   2  273.80   14.83
  12  10  -3   30.99    4.07
 -12 -10   3   30.44    4.02
  12  10  -3   21.71    1.50
 -12 -10   3   18.54    1.39
  12  10  -4    0.66    1.31
  12  10  -4    1.32    0.67
 -12 -10   4    1.07    0.75
  12  10  -5   31.58    4.16
  12  10  -5   26.60    1.76
 -12 -10   5   26.02    1.74
  12  10  -6   13.39    2.24
  12  10  -6   10.39    0.99
 -12 -10   6   11.27    1.04
  12  10  -7   11.06    2.19
  12  10  -7   13.41    1.13
 -12 -10   7   13.55    1.09
  12  10  -8    5.58    1.81
  12  10  -8    6.11    0.78
 -12 -10   8    8.00    0.96
  12  10  -9    9.71    2.03
  12  10  -9    5.16    0.79
 -12 -10   9    5.82    0.87
  12  10 -10    7.28    1.89
  12  10 -10   14.56    1.14
 -12 -10  10   16.44    1.26
  12  10 -11   11.59    2.26
  12  10 -11    7.82    0.90
 -12 -10  11    7.86    0.90
  12  10 -12   12.15    2.32
  12  10 -12   12.37    1.08
 -12 -10  12   11.41    1.01
  12  10 -13   33.86    4.58
  12  10 -13   32.10    1.98
 -12 -10  13   32.56    2.04
  12  10 -14    0.56    1.65
  12  10 -14    1.48    0.68
 -12 -10  14    1.37    0.72
  12  10 -15    1.67    1.75
  12  10 -15    0.22    0.60
 -12 -10  15    1.25    0.74
  12  10 -16    4.44    1.95
  12  10 -16    5.19    0.78
 -12 -10  16    6.89    0.89
  12  10 -17    8.60    2.09
  12  10 -17    7.12    0.79
 -12 -10  17    7.16    0.87
  12  10 -18    1.85    1.71
  12  10 -18    0.57    0.67
 -12 -10  18    1.11    0.66
  12  10 -19   12.33    2.37
  12  10 -19   14.51    1.11
 -12 -10  19   15.86    1.23
  12  10 -20    2.26    1.50
  12  10 -20    2.43    0.71
 -13 -11  -8    1.71    2.09
  13  11   8   -0.53    0.85
 -13 -11  -8    0.83    1.29
 -13 -11  -7    1.63    1.86
  13  11   7    0.10    0.97
 -13 -11  -7    1.31    0.93
 -13 -11  -6    0.18    1.98
  13  11   6    0.45    0.89
 -13 -11  -6    0.79    0.79
 -13 -11  -5   47.58    6.17
  13  11   5   39.01    2.37
 -13 -11  -5   42.92    2.58
 -13 -11  -4    3.38    1.93
  13  11   4    1.65    0.78
 -13 -11  -4    1.93    0.67
 -13 -11  -3   18.41    2.98
  13  11   3   18.97    1.36
 -13 -11  -3   23.27    1.57
 -13 -11  -2    3.69    1.92
  13  11   2    7.09    0.85
 -13 -11  -2    7.54    0.91
 -13 -11  -1    6.79    1.88
  13  11   1    4.37    0.75
 -13 -11  -1    4.20    0.84
 -13 -11   0    8.71    2.05
  13  11   0    6.21    0.79
 -13 -11   0    6.15    0.88
 -13 -11   1   68.27    8.47
  13  11  -1   64.87    3.70
 -13 -11   1   66.68    3.80
  13  11  -2   -0.45    1.16
 -13 -11   2    1.50    1.39
  13  11  -2    0.00    0.68
 -13 -11   2    0.77    0.76
  13  11  -3   26.37    3.52
  13  11  -3   33.46    2.06
 -13 -11   3   34.65    2.17
  13  11  -4    5.43    1.64
  13  11  -4    3.09    0.63
 -13 -11   4    2.25    0.76
  13  11  -5   16.79    2.65
  13  11  -5   18.33    1.36
 -13 -11   5   16.35    1.26
  13  11  -6    2.19    1.68
  13  11  -6    2.16    0.73
 -13 -11   6    1.10    0.71
  13  11  -7   19.26    3.01
  13  11  -7   14.27    1.13
 -13 -11   7   12.26    1.08
  13  11  -8   15.82    2.74
  13  11  -8   15.38    1.23
 -13 -11   8   17.83    1.32
  13  11  -9   41.50    5.52
  13  11  -9   41.42    2.46
 -13 -11   9   39.36    2.38
  13  11 -10    1.82    1.91
  13  11 -10    0.88    0.63
 -13 -11  10    1.00    0.64
  13  11 -11    3.18    2.19
  13  11 -11    6.72    0.86
 -13 -11  11    8.27    0.89
  13  11 -12    2.94    2.04
  13  11 -12    0.88    0.57
 -13 -11  12    0.45    0.60
  13  11 -13   -0.68    1.77
  13  11 -13    0.36    0.66
 -13 -11  13    0.09    0.61
  13  11 -14    0.43    1.93
  13  11 -14    0.26    0.64
 -13 -11  14   -0.65    0.66
  13  11 -15   20.23    3.27
  13  11 -15   17.79    1.24
 -13 -11  15   19.11    1.38
  13  11 -16    2.96    1.94
  13  11 -16    1.12    0.65
 -13 -11  16   -0.29    0.72
  13  11 -17    7.46    2.06
  13  11 -17    9.69    0.96
 -13 -11  17    8.68    0.89
  13  11 -18    0.43    1.78
  13  11 -18    0.76    0.57
 -13 -11  18    0.46    0.72
  13  11 -19   -1.82    1.62
  13  11 -19    1.70    0.70
 -13 -11  19    0.28    0.73
 -14 -12  -6    5.81    2.58
  14  12   6    3.15    1.11
 -14 -12  -6    2.61    0.89
 -14 -12  -5    0.51    2.12
  14  12   5    5.07    0.98
 -14 -12  -5    5.22    0.88
 -14 -12  -4   11.97    2.84
  14  12   4    9.04    1.01
 -14 -12  -4    8.43    1.00
 -14 -12  -3   -0.24    2.21
  14  12   3    4.86    0.84
 -14 -12  -3    3.43    0.86
 -14 -12  -2    0.57    1.93
  14  12   2    2.90    0.82
 -14 -12  -2    2.59    0.82
 -14 -12  -1    4.97    2.06
  14  12   1    7.85    0.91
 -14 -12  -1    7.01    0.89
 -14 -12   0   11.84    2.33
  14  12   0    8.88    0.91
 -14 -12   0    6.45    0.85
 -14 -12   1   14.99    2.44
  14  12  -1   18.28    1.35
 -14 -12   1   18.80    1.36
  14  12  -2   29.18    1.85
 -14 -12   2   30.11    1.91
  14  12  -3    7.26    1.54
  14  12  -3    6.63    0.82
 -14 -12   3    4.62    0.79
  14  12  -4    2.77    1.53
  14  12  -4    3.67    0.74
 -14 -12   4    4.45    0.79
  14  12  -5    2.12    1.58
  14  12  -5    2.75    0.60
 -14 -12   5    1.63    0.66
  14  12  -6   -0.05    1.77
  14  12  -6    0.91    0.63
 -14 -12   6   -0.47    0.65
  14  12  -7   17.32    2.95
  14  12  -7   17.77    1.27
 -14 -12   7   18.34    1.36
  14  12  -8   28.82    4.06
  14  12  -8   23.84    1.59
 -14 -12   8   21.81    1.47
  14  12  -9    2.57    2.02
  14  12  -9    0.11    0.66
 -14 -12   9    0.20    0.60
  14  12 -10    8.97    2.33
  14  12 -10    7.99    0.93
 -14 -12  10    8.17    0.89
  14  12 -11   18.45    3.15
  14  12 -11   14.17    1.12
 -14 -12  11   16.86    1.25
  14  12 -12    7.70    2.37
  14  12 -12    7.50    0.87
 -14 -12  12    6.16    0.81
  14  12 -13   21.99    3.49
  14  12 -13   20.03    1.41
 -14 -12  13   22.35    1.49
  14  12 -14    2.87    2.06
  14  12 -14    3.25    0.63
 -14 -12  14    1.85    0.73
  14  12 -15    0.10    1.87
  14  12 -15    0.23    0.54
 -14 -12  15    0.20    0.71
  14  12 -16    6.37    2.16
  14  12 -16    3.19    0.65
 -14 -12  16    3.67    0.79
  14  12 -17    2.22    1.88
  14  12 -17    1.65    0.67
 -14 -12  17    2.20    0.72
  14  12 -18   -1.54    1.93
  14  12 -18    0.76    0.57
 -14 -12  18    0.89    0.76
 -15 -13  -4    0.67    2.89
  15  13   4   -1.40    0.93
 -15 -13  -4   -0.22    0.78
 -15 -13  -3    3.41    2.80
  15  13   3   -0.15    0.87
 -15 -13  -3    1.11    0.79
 -15 -13  -2   13.60    3.22
  15  13   2   13.85    1.20
 -15 -13  -2   15.30    1.24
 -15 -13  -1    1.81    2.26
  15  13   1    1.51    0.74
 -15 -13  -1    0.59    0.79
 -15 -13   0    9.77    2.31
  15  13   0   13.95    1.14
 -15 -13   0   11.55    1.01
  15  13  -1    1.21    0.70
 -15 -13   1    2.43    0.68
  15  13  -2    0.84    0.70
 -15 -13   2    0.38    0.64
  15  13  -3    1.97    0.71
 -15 -13   3    0.92    0.67
  15  13  -4   41.27    5.31
  15  13  -4   42.53    2.51
 -15 -13   4   42.09    2.50
  15  13  -5    0.02    1.52
  15  13  -5    0.69    0.60
 -15 -13   5    0.87    0.70
  15  13  -6   20.65    3.15
  15  13  -6   22.17    1.45
 -15 -13   6   25.83    1.66
  15  13  -7    1.33    1.81
  15  13  -7    1.23    0.57
 -15 -13   7    1.69    0.62
  15  13  -8   22.90    3.65
  15  13  -8   23.64    1.55
 -15 -13   8   23.60    1.53
  15  13  -9    6.47    2.62
  15  13  -9    5.10    0.72
 -15 -13   9    3.90    0.69
  15  13 -10    8.46    2.50
  15  13 -10    9.41    0.90
 -15 -13  10    8.88    0.92
  15  13 -11   -2.87    2.44
  15  13 -11    0.68    0.63
 -15 -13  11    1.33    0.63
  15  13 -12   26.19    4.06
  15  13 -12   28.70    1.84
 -15 -13  12   25.78    1.67
  15  13 -13    7.56    2.89
  15  13 -13    4.11    0.70
 -15 -13  13    3.44    0.67
  15  13 -14   16.17    3.33
  15  13 -14   16.12    1.15
 -15 -13  14   15.30    1.21
  15  13 -15   -1.24    2.10
  15  13 -15    0.80    0.64
 -15 -13  15    0.61    0.75
  15  13 -16   -0.37    2.01
  15  13 -16   -0.39    0.63
 -15 -13  16    0.52    0.76
  15  13 -17    2.99    2.25
  15  13 -17    0.05    0.69
 -15 -13  17    0.09    0.69
  16  14   1    7.52    0.96
 -16 -14  -1    7.84    0.96
  16  14   0    1.57    0.82
 -16 -14   0    3.05    0.84
  16  14  -1    1.95    0.74
 -16 -14   1    2.88    0.78
  16  14  -2   18.38    1.33
 -16 -14   2   17.58    1.32
  16  14  -3    0.75    0.71
 -16 -14   3    1.46    0.69
  16  14  -4    7.85    0.89
 -16 -14   4    7.09    0.87
  16  14  -5   14.55    2.49
  16  14  -5   15.86    1.20
 -16 -14   5   11.34    0.96
  16  14  -6   -1.25    1.86
  16  14  -6   -0.14    0.65
 -16 -14   6    0.35    0.60
  16  14  -7    6.37    2.39
  16  14  -7    8.50    0.87
 -16 -14   7    7.10    0.82
  16  14  -8    4.83    2.29
  16  14  -8    4.30    0.73
 -16 -14   8    5.29    0.69
  16  14  -9    1.83    2.30
  16  14  -9    0.34    0.55
 -16 -14   9    0.05    0.58
  16  14 -10   17.44    3.48
  16  14 -10   20.02    1.35
 -16 -14  10   19.43    1.34
  16  14 -11    6.65    2.60
  16  14 -11    4.50    0.66
 -16 -14  11    4.48    0.75
  16  14 -12    2.50    2.76
  16  14 -12    0.17    0.55
 -16 -14  12   -0.33    0.60
  16  14 -13    5.70    2.64
  16  14 -13    3.43    0.72
 -16 -14  13    4.93    0.78
  16  14 -14    5.20    2.51
  16  14 -14    5.57    0.76
 -16 -14  14    5.84    0.83
  16  14 -15    4.70    2.64
  16  14 -15    1.96    0.71
 -16 -14  15    1.17    0.69
  17  15  -2    2.09    0.77
 -17 -15   2    3.21    0.79
  17  15  -3   17.19    1.31
 -17 -15   3   15.62    1.21
  17  15  -4   -0.31    0.67
 -17 -15   4    0.31    0.70
  17  15  -5    3.26    0.72
 -17 -15   5    3.74    0.72
  17  15  -6   -0.36    0.72
 -17 -15   6    0.34    0.70
  17  15  -7    0.46    1.74
  17  15  -7    0.63    0.65
 -17 -15   7   -1.02    0.59
  17  15  -8   -1.62    2.20
  17  15  -8    1.27    0.66
 -17 -15   8    1.00    0.64
  17  15  -9    8.19    2.54
  17  15  -9   11.54    1.01
 -17 -15   9   11.72    1.01
  17  15 -10    2.30    2.29
  17  15 -10    2.30    0.61
 -17 -15  10    2.37    0.71
  17  15 -11    0.46    2.72
  17  15 -11    5.78    0.72
 -17 -15  11    6.12    0.78
  17  15 -12   -2.35    2.90
  17  15 -12    0.10    0.64
 -17 -15  12   -0.20    0.66
  17  15 -13    0.13    0.67
 -17 -15  13   -0.16    0.71
  14  18 -11    2.37    1.96
  14  18 -11   -0.53    2.06
  14  18 -11    0.98    0.63
 -14 -18  10    5.54    0.76
  14  18 -10    4.75    0.70
 -14 -18   9    0.51    0.59
  14  18  -9    0.65    0.72
 -14 -18   8    4.93    0.79
  14  18  -8    4.38    0.72
 -14 -18   7    0.46    0.73
  14  18  -7    0.20    0.62
 -14 -18   6    3.81    0.74
  14  18  -6    4.01    0.72
 -14 -18   5    2.00    0.77
  14  18  -5    3.07    0.72
 -14 -18   4   15.80    1.13
  14  18  -4   14.50    1.09
 -14 -18   3    0.64    0.70
  14  18  -3    0.54    0.70
 -14 -18   2    8.32    0.94
  14  18  -2    8.29    0.89
  13  17 -14   -1.45    3.04
 -13 -17  14    1.38    0.84
  13  17 -14    0.99    0.68
  13  17 -13    0.13    3.03
 -13 -17  13    0.65    0.62
  13  17 -13    0.90    0.67
  13  17 -12   15.22    2.99
 -13 -17  12   16.06    1.21
  13  17 -12   15.31    1.15
  13  17 -11    2.05    2.17
 -13 -17  11    2.05    0.70
  13  17 -11    1.50    0.64
  13  17 -10    5.19    1.62
  13  17 -10    3.99    2.12
 -13 -17  10    5.62    0.73
  13  17 -10    5.18    0.83
 -13 -17   9    1.98    0.67
  13  17  -9    1.57    0.68
 -13 -17   8    1.05    0.57
  13  17  -8   -0.25    0.64
 -13 -17   7    9.39    0.94
  13  17  -7    8.66    0.90
 -13 -17   6   18.56    1.32
  13  17  -6   18.56    1.28
 -13 -17   5    2.36    0.70
  13  17  -5    3.13    0.71
 -13 -17   4   10.55    0.95
  13  17  -4    8.30    0.86
 -13 -17   3    0.09    0.64
  13  17  -3    0.01    0.67
 -13 -17   2    0.55    0.67
  13  17  -2    0.06    0.70
 -13 -17   1    2.39    0.74
  13  17  -1    2.05    0.74
 -13 -17   0    5.64    0.86
  13  17   0    5.37    0.78
 -13 -17  -1    0.69    0.78
  13  17   1   -0.33    0.75
 -13 -17  -2    4.27    0.88
  13  17   2    3.53    0.83
  12  16 -15   -1.94    2.00
 -12 -16  15    0.32    0.62
  12  16 -15    0.90    0.63
  12  16 -14   -0.17    2.28
 -12 -16  14    1.36    0.71
  12  16 -14    0.84    0.62
  12  16 -13    9.29    2.72
 -12 -16  13   13.01    1.06
  12  16 -13   11.46    0.97
  12  16 -12   -0.92    2.58
 -12 -16  12    0.17    0.70
  12  16 -12    0.32    0.64
  12  16 -11   21.90    3.75
 -12 -16  11   21.67    1.46
  12  16 -11   22.21    1.47
  12  16 -10   12.76    2.71
 -12 -16  10   12.77    1.08
  12  16 -10   11.37    0.96
  12  16  -9    3.42    1.86
 -12 -16   9    1.80    0.61
  12  16  -9    1.51    0.67
  12  16  -8    8.46    1.45
  12  16  -8    8.18    1.70
 -12 -16   8    6.97    0.87
  12  16  -8    8.01    0.86
 -12 -16   7    3.61    0.70
  12  16  -7    2.60    0.71
 -12 -16   6    1.75    0.64
  12  16  -6    0.07    0.65
 -12 -16   5   34.46    2.11
  12  16  -5   34.31    2.11
 -12 -16   4    1.65    0.67
  12  16  -4    0.94    0.68
 -12 -16   3    2.55    0.71
  12  16  -3    2.11    0.71
 -12 -16   2   14.81    1.14
  12  16  -2   17.61    1.28
 -12 -16   1    0.47    0.71
  12  16  -1    2.06    0.70
 -12 -16   0    0.30    0.71
  12  16   0    0.52    0.70
 -12 -16  -1    3.93    0.73
  12  16   1    4.24    0.74
 -12 -16  -2    1.41    0.77
  12  16   2    1.95    0.80
 -12 -16  -3    4.44    0.84
  12  16   3    3.59    0.81
 -12 -16  -4    2.43    0.92
  12  16   4    3.57    0.86
 -12 -16  -5   -0.19    0.97
  12  16   5    1.11    0.92
  11  15 -17    3.33    1.91
 -11 -15  17    1.94    0.80
  11  15 -17   -0.03    0.74
  11  15 -16    6.87    2.05
 -11 -15  16    5.46    0.82
  11  15 -16    7.56    0.85
  11  15 -15   31.65    4.42
 -11 -15  15   29.30    1.85
  11  15 -15   28.47    1.77
  11  15 -14   -0.19    1.98
 -11 -15  14    0.11    0.68
  11  15 -14    0.92    0.54
  11  15 -13   10.93    2.29
 -11 -15  13    6.67    0.80
  11  15 -13    7.12    0.74
  11  15 -12   -0.66    1.91
 -11 -15  12    1.46    0.67
  11  15 -12   -0.01    0.58
  11  15 -11    2.05    2.06
 -11 -15  11    3.99    0.73
  11  15 -11    5.32    0.74
  11  15 -10    0.85    1.92
 -11 -15  10    1.27    0.76
  11  15 -10    0.68    0.56
  11  15  -9   65.56    8.19
 -11 -15   9   67.92    3.87
  11  15  -9   64.30    3.67
  11  15  -8    1.69    1.59
 -11 -15   8    1.04    0.67
  11  15  -8    1.37    0.63
  11  15  -7   15.06    2.24
 -11 -15   7   14.50    1.17
  11  15  -7   14.17    1.15
 -11 -15   6    2.02    0.68
  11  15  -6    1.25    0.62
 -11 -15   5    3.28    0.74
  11  15  -5    3.43    0.75
 -11 -15   4    1.72    0.73
  11  15  -4    1.92    0.69
 -11 -15   3   36.84    2.25
  11  15  -3   33.79    2.10
 -11 -15   2    0.40    0.72
  11  15  -2    1.18    0.66
 -11 -15   1   40.47    2.43
  11  15  -1   40.72    2.45
 -11 -15   0    4.15    0.79
  11  15   0    2.32    0.73
 -11 -15  -1    0.65    0.64
  11  15   1    1.12    0.68
 -11 -15  -2    7.38    0.84
  11  15   2    7.07    0.90
 -11 -15  -3   17.20    1.33
  11  15   3   15.24    1.18
 -11 -15  -4    0.06    0.76
  11  15   4    0.95    0.67
 -11 -15  -5    9.72    1.07
  11  15   5   11.31    1.03
 -11 -15  -6    1.65    0.91
  11  15   6    0.48    0.91
 -11 -15  -7    2.39    0.97
  11  15   7    1.17    0.90
  10  14 -18    1.79    1.51
 -10 -14  18    1.79    0.82
  10  14 -18    1.11    0.76
  10  14 -17   17.00    2.77
 -10 -14  17   15.23    1.22
  10  14 -17   14.84    1.13
  10  14 -16    3.76    1.77
 -10 -14  16    7.64    0.89
  10  14 -16    7.98    0.83
  10  14 -15    1.75    1.68
 -10 -14  15    0.23    0.67
  10  14 -15    0.38    0.60
  10  14 -14   18.72    3.02
 -10 -14  14   16.76    1.25
  10  14 -14   16.14    1.13
  10  14 -13    1.45    1.68
 -10 -14  13    2.23    0.65
  10  14 -13    1.51    0.59
  10  14 -12    1.85    1.67
 -10 -14  12    3.05    0.76
  10  14 -12    4.21    0.64
  10  14 -11   25.33    3.59
 -10 -14  11   17.47    1.28
  10  14 -11   19.08    1.33
  10  14 -10   70.91    8.84
 -10 -14  10   74.71    4.24
  10  14 -10   68.97    3.91
  10  14  -9    1.97    1.66
 -10 -14   9    0.73    0.78
  10  14  -9    0.03    0.54
  10  14  -8   29.38    4.08
 -10 -14   8   31.41    1.99
  10  14  -8   29.93    1.87
  10  14  -7    1.20    1.30
 -10 -14   7    2.59    0.73
  10  14  -7    3.38    0.71
  10  14  -6    1.98    1.07
 -10 -14   6    0.52    0.62
  10  14  -6    1.58    0.68
 -10 -14   5   17.18    1.31
  10  14  -5   20.29    1.46
 -10 -14   4   17.76    1.29
  10  14  -4   18.10    1.32
 -10 -14   3    0.94    0.68
  10  14  -3    2.34    0.75
 -10 -14   2   39.30    2.38
  10  14  -2   43.43    2.59
 -10 -14   1   10.27    0.99
  10  14  -1    9.60    0.96
 -10 -14   0   38.78    2.39
  10  14   0   35.49    2.20
 -10 -14  -1   17.45    1.31
  10  14   1   17.23    1.28
 -10 -14  -2   10.83    1.01
  10  14   2   12.37    1.06
 -10 -14  -3    6.74    0.87
  10  14   3    5.22    0.86
 -10 -14  -4   16.74    1.29
  10  14   4   14.73    1.15
 -10 -14  -5    1.93    0.81
  10  14   5    1.34    0.74
 -10 -14  -6   15.78    2.57
 -10 -14  -6   15.32    1.30
  10  14   6   15.49    1.28
 -10 -14  -7    2.99    1.96
 -10 -14  -7    1.90    0.92
  10  14   7    2.78    0.87
 -10 -14  -8    1.22    2.10
 -10 -14  -8    0.82    1.05
  10  14   8    1.15    0.93
 -10 -14  -9    9.70    2.63
 -10 -14  -9    5.86    1.14
  10  14   9    7.59    1.12
   9  13 -18    7.02    1.81
  -9 -13  18   12.00    1.10
   9  13 -18   10.05    0.97
   9  13 -17    3.54    1.62
  -9 -13  17    1.31    0.74
   9  13 -17    2.80    0.63
   9  13 -16    8.26    1.74
  -9 -13  16    3.56    0.74
   9  13 -16    4.27    0.71
   9  13 -15    3.02    1.61
  -9 -13  15    0.27    0.65
   9  13 -15    0.47    0.55
   9  13 -14    1.70    1.53
  -9 -13  14    1.44    0.67
   9  13 -14    1.19    0.63
   9  13 -13   -1.67    1.56
  -9 -13  13    0.60    0.62
   9  13 -13    1.51    0.65
   9  13 -12   32.17    4.27
  -9 -13  12   28.29    1.81
   9  13 -12   27.45    1.77
   9  13 -11    1.04    1.32
  -9 -13  11    3.79    0.80
   9  13 -11    1.49    0.73
   9  13 -10   20.96    3.04
  -9 -13  10   12.95    1.12
   9  13 -10   17.19    1.22
   9  13  -9   15.45    2.50
  -9 -13   9   21.31    1.50
   9  13  -9   17.70    1.29
   9  13  -8    7.62    1.83
  -9 -13   8    9.19    0.99
   9  13  -8    8.89    0.85
   9  13  -7    2.14    1.51
  -9 -13   7    0.86    0.73
   9  13  -7    0.66    0.65
   9  13  -6   91.56   11.20
  -9 -13   6   90.07    5.06
   9  13  -6   88.28    4.97
   9  13  -5   31.95    4.02
  -9 -13   5   32.96    2.09
   9  13  -5   33.30    2.09
  -9 -13   4   80.16    4.51
   9  13  -4   84.37    4.77
  -9 -13   3    3.51    0.85
   9  13  -3    2.98    0.75
  -9 -13   2    0.42    0.74
   9  13  -2    0.58    0.66
  -9 -13   1    1.88    0.67
   9  13  -1    3.07    0.78
  -9 -13   0   20.55    1.47
   9  13   0   21.24    1.51
  -9 -13  -1   21.72    1.53
   9  13   1   21.94    1.54
  -9 -13  -2  162.70    8.91
   9  13   2  150.60    8.25
  -9 -13  -3    3.18    0.80
   9  13   3    4.93    0.84
  -9 -13  -4   21.30    2.81
  -9 -13  -4   22.11    1.53
   9  13   4   19.16    1.38
  -9 -13  -5    1.16    1.32
  -9 -13  -5   -0.19    0.71
   9  13   5    0.76    0.68
  -9 -13  -6    7.04    1.79
  -9 -13  -6    7.83    0.92
   9  13   6    9.16    0.99
  -9 -13  -7    0.76    1.62
  -9 -13  -7    0.63    0.79
   9  13   7    0.81    0.82
  -9 -13  -8   27.63    3.98
  -9 -13  -8   25.71    1.74
   9  13   8   25.84    1.73
  -9 -13  -9   -0.18    2.01
  -9 -13  -9   -0.03    0.92
   9  13   9    0.83    0.86
  -9 -13 -10   14.88    2.80
  -9 -13 -10   14.47    1.38
   9  13  10   15.01    1.35
  -9 -13 -11   -0.28    1.35
   9  13  11   -0.36    1.19
  -8 -12  19    1.13    0.87
   8  12 -19    2.01    0.73
  -8 -12  18   -0.53    0.74
   8  12 -18    0.40    0.61
  -8 -12  17   10.04    1.02
   8  12 -17    7.88    0.78
  -8 -12  16    5.99    0.83
   8  12 -16    5.93    0.71
  -8 -12  15    4.52    0.72
   8  12 -15    4.70    0.75
  -8 -12  14    8.97    0.93
   8  12 -14   11.49    0.96
  -8 -12  13    4.46    0.82
   8  12 -13    6.09    0.82
   8  12 -12    1.02    1.15
  -8 -12  12    0.40    0.73
   8  12 -12    0.33    0.65
   8  12 -11   22.71    3.09
  -8 -12  11   23.73    1.66
   8  12 -11   25.49    1.75
   8  12 -10   11.17    1.92
  -8 -12  10   13.00    1.19
   8  12 -10   10.18    1.01
   8  12  -9   11.86    1.99
  -8 -12   9   10.81    1.08
   8  12  -9    9.37    0.86
   8  12  -8   17.19    2.44
  -8 -12   8   14.26    1.19
   8  12  -8   13.48    1.09
   8  12  -7   12.47    2.03
  -8 -12   7   15.82    1.30
   8  12  -7   18.54    1.32
   8  12  -6   88.97   10.89
  -8 -12   6   69.13    3.96
   8  12  -6   68.04    3.90
   8  12  -5   63.57    7.82
  -8 -12   5   62.90    3.63
   8  12  -5   61.84    3.59
   8  12  -4    2.05    0.75
  -8 -12   4    1.45    0.71
   8  12  -4    1.83    0.69
  -8 -12   3   10.38    1.08
   8  12  -3   11.40    1.08
  -8 -12   2   11.54    1.12
   8  12  -2   13.56    1.14
  -8 -12   1   94.73    5.31
   8  12  -1   88.55    5.00
  -8 -12   0   78.28    4.45
   8  12   0   79.77    4.52
  -8 -12  -1   92.57    5.17
   8  12   1   89.19    5.01
  -8 -12  -2    1.07    0.78
   8  12   2    0.85    0.71
  -8 -12  -3   21.37    2.74
  -8 -12  -3   26.37    1.77
   8  12   3   26.23    1.73
  -8 -12  -4   32.87    4.19
  -8 -12  -4   26.80    1.78
   8  12   4   26.05    1.70
  -8 -12  -5    6.43    1.45
  -8 -12  -5    5.61    0.86
   8  12   5    5.41    0.81
  -8 -12  -6   12.68    2.09
  -8 -12  -6   11.32    1.03
   8  12   6   11.70    1.06
  -8 -12  -7    8.52    1.84
  -8 -12  -7    8.93    0.97
   8  12   7    9.99    0.96
  -8 -12  -8    1.45    1.51
  -8 -12  -8    1.60    0.79
   8  12   8    1.68    0.74
  -8 -12  -9   17.52    2.74
  -8 -12  -9   19.43    1.47
   8  12   9   20.26    1.48
  -8 -12 -10    7.34    2.12
  -8 -12 -10    6.71    0.97
   8  12  10    5.50    0.96
  -8 -12 -11    3.04    1.97
  -8 -12 -11    0.96    1.02
   8  12  11    1.85    0.97
  -8 -12 -12   10.08    2.40
  -8 -12 -12    7.06    1.49
   8  12  12    6.21    1.08
  -7 -11  19    3.14    0.86
   7  11 -19    4.27    0.73
  -7 -11  18    0.36    0.74
   7  11 -18   -0.57    0.64
  -7 -11  17    7.28    0.90
   7  11 -17    8.27    0.82
  -7 -11  16    0.19    0.69
   7  11 -16    1.62    0.60
  -7 -11  15   75.96    4.29
   7  11 -15   80.58    4.49
  -7 -11  14    1.77    0.62
   7  11 -14    1.33    0.66
  -7 -11  13   35.77    2.20
   7  11 -13   36.26    2.22
  -7 -11  12    1.95    0.79
   7  11 -12    0.92    0.64
  -7 -11  11    0.34    0.65
   7  11 -11    0.89    0.62
  -7 -11  10    1.27    0.71
   7  11 -10    0.11    0.74
   7  11  -9   41.58    5.32
  -7 -11   9   37.43    2.32
   7  11  -9   37.63    2.29
   7  11  -8    3.60    1.31
  -7 -11   8    5.33    0.78
   7  11  -8    4.19    0.70
   7  11  -7  139.40   16.94
  -7 -11   7  129.90    7.19
   7  11  -7  122.50    6.78
   7  11  -6    1.63    1.12
  -7 -11   6    1.46    0.72
   7  11  -6    2.81    0.69
   7  11  -5  180.00   21.78
  -7 -11   5  145.60    8.02
   7  11  -5  152.60    8.39
   7  11  -4    1.27    0.83
  -7 -11   4    0.97    0.63
   7  11  -4    0.79    0.71
   7  11  -3   47.32    5.76
  -7 -11   3   57.38    3.34
   7  11  -3   48.88    2.88
  -7 -11   2    1.87    0.70
   7  11  -2    2.57    0.72
  -7 -11   1  157.90    8.66
   7  11  -1  162.50    8.91
  -7 -11   0    0.76    0.66
   7  11   0    1.36    0.69
  -7 -11  -1   24.73    1.65
   7  11   1   23.81    1.62
  -7 -11  -2   24.87    3.08
  -7 -11  -2   19.88    1.47
   7  11   2   19.65    1.42
  -7 -11  -3   39.15    4.85
  -7 -11  -3   39.92    2.42
   7  11   3   41.53    2.50
  -7 -11  -4    9.28    1.57
  -7 -11  -4    7.01    0.92
   7  11   4    6.28    0.85
  -7 -11  -5  121.50   14.76
  -7 -11  -5  115.60    6.38
   7  11   5  116.60    6.45
  -7 -11  -6   -1.39    1.18
  -7 -11  -6    0.35    0.72
   7  11   6   -0.08    0.66
  -7 -11  -7   38.59    4.89
  -7 -11  -7   35.60    2.21
   7  11   7   34.65    2.12
  -7 -11  -8    2.24    1.31
  -7 -11  -8    2.99    0.78
   7  11   8    2.65    0.68
  -7 -11  -9   17.73    2.58
  -7 -11  -9   20.56    1.47
   7  11   9   21.95    1.50
  -7 -11 -10    2.13    1.43
  -7 -11 -10    2.71    0.82
   7  11  10    3.49    0.72
  -7 -11 -11   22.45    3.26
  -7 -11 -11   18.94    1.46
   7  11  11   18.27    1.41
  -7 -11 -12    0.72    1.59
  -7 -11 -12    1.20    0.97
   7  11  12    2.16    0.89
  -7 -11 -13   14.54    2.45
  -7 -11 -13   10.30    1.51
   7  11  13   16.57    1.36
   6  10 -20    0.82    0.90
   6  10 -19    3.08    0.70
  -6 -10  18    3.11    0.85
   6  10 -18    3.19    0.66
  -6 -10  17   17.80    1.35
   6  10 -17   15.18    1.13
  -6 -10  16   10.92    1.02
   6  10 -16   11.26    0.96
  -6 -10  15    4.77    0.79
   6  10 -15    4.14    0.67
  -6 -10  14   51.81    3.01
   6  10 -14   54.79    3.19
  -6 -10  13   32.51    2.05
   6  10 -13   33.32    2.04
  -6 -10  12    0.68    0.73
   6  10 -12   -0.19    0.66
  -6 -10  11   12.28    1.11
   6  10 -11   13.31    1.06
  -6 -10  10    2.57    0.81
   6  10 -10    3.91    0.70
  -6 -10   9   14.44    1.17
   6  10  -9   15.59    1.25
  -6 -10   8   11.78    1.07
   6  10  -8   12.46    1.06
  -6 -10   7    8.26    0.92
   6  10  -7    9.32    0.95
   6  10  -6  193.70   23.43
  -6 -10   6  173.00    9.48
   6  10  -6  177.90    9.74
   6  10  -5  139.70   16.93
  -6 -10   5  131.60    7.27
   6  10  -5  132.10    7.28
   6  10  -4   26.22    3.35
  -6 -10   4   20.50    1.48
   6  10  -4   23.86    1.64
   6  10  -3  245.10   29.59
  -6 -10   3  205.10   11.19
   6  10  -3  211.40   11.51
  -6 -10   2  173.10    9.49
   6  10  -2  196.10   10.71
  -6 -10   1    1.82    0.75
   6  10  -1    3.59    0.73
  -6 -10   0   41.08    2.49
   6  10   0   43.07    2.57
  -6 -10  -1  137.80    7.59
   6  10   1  127.30    7.02
  -6 -10  -2   12.91    1.70
  -6 -10  -2   16.32    1.26
   6  10   2   15.46    1.19
  -6 -10  -3  193.00   23.31
  -6 -10  -3  151.50    8.30
   6  10   3  166.80    9.11
  -6 -10  -4    7.12    1.29
  -6 -10  -4   10.51    0.99
   6  10   4   10.35    1.00
  -6 -10  -5   19.73    2.64
  -6 -10  -5   15.53    1.19
   6  10   5   14.66    1.18
  -6 -10  -6   59.53    7.32
  -6 -10  -6   74.57    4.21
   6  10   6   71.63    4.06
  -6 -10  -7    1.54    1.10
  -6 -10  -7    0.51    0.63
   6  10   7    0.72    0.64
  -6 -10  -8   -0.23    1.20
  -6 -10  -8    0.14    0.68
   6  10   8    0.99    0.68
  -6 -10  -9   35.72    4.59
  -6 -10  -9   29.95    1.90
   6  10   9   30.70    1.90
  -6 -10 -10   16.77    2.48
  -6 -10 -10   17.12    1.26
   6  10  10   17.19    1.26
  -6 -10 -11   20.49    2.86
  -6 -10 -11   17.30    1.32
   6  10  11   16.67    1.28
  -6 -10 -12   21.28    2.98
  -6 -10 -12   25.16    1.68
   6  10  12   22.06    1.55
  -6 -10 -13   -1.05    1.43
  -6 -10 -13    0.58    0.97
   6  10  13    0.57    0.84
  -6 -10 -14    0.79    1.48
  -6 -10 -14    2.21    1.23
   5   9 -20    2.15    1.00
   5   9 -20    1.90    0.97
   5   9 -19    3.65    0.84
   5   9 -18   27.04    1.71
  -5  -9  17    1.36    0.76
   5   9 -17   -0.56    0.60
  -5  -9  16    2.55    0.76
   5   9 -16    1.35    0.60
  -5  -9  15    5.28    0.83
   5   9 -15    4.23    0.74
  -5  -9  14   10.21    1.00
   5   9 -14    7.69    0.90
  -5  -9  13    9.08    0.93
   5   9 -13   11.08    0.98
  -5  -9  12   31.74    2.01
   5   9 -12   32.38    2.03
  -5  -9  11    8.47    0.96
   5   9 -11    8.99    0.98
  -5  -9  10  384.40   20.76
   5   9 -10  381.00   20.53
  -5  -9   9   39.27    2.41
   5   9  -9   40.59    2.44
  -5  -9   8   26.63    1.73
   5   9  -8   26.77    1.79
  -5  -9   7   36.43    2.25
   5   9  -7   34.58    2.12
  -5  -9   6   20.54    1.44
   5   9  -6   19.35    1.37
   5   9  -5    8.04    1.37
  -5  -9   5    8.40    0.93
   5   9  -5    9.59    0.99
   5   9  -4  260.40   31.42
  -5  -9   4  285.90   15.51
   5   9  -4  273.40   14.82
   5   9  -3   17.67    2.31
  -5  -9   3   15.59    1.25
   5   9  -3   16.56    1.29
   5   9  -2  319.30   38.57
  -5  -9   2  302.00   16.35
   5   9  -2  280.00   15.17
  -5  -9   1   21.10    1.54
   5   9  -1   21.77    1.49
  -5  -9   0    3.09    0.68
   5   9   0    1.95    0.66
  -5  -9  -1    1.28    0.61
   5   9   1    2.69    0.63
  -5  -9  -2  382.10   46.08
  -5  -9  -2  398.40   21.49
   5   9   2  373.50   20.16
  -5  -9  -3    5.81    1.01
  -5  -9  -3    5.81    0.72
   5   9   3    5.68    0.77
  -5  -9  -4   39.63    4.90
  -5  -9  -4   41.97    2.50
   5   9   4   36.47    2.20
  -5  -9  -5   26.76    3.43
  -5  -9  -5   21.81    1.50
   5   9   5   23.45    1.53
  -5  -9  -6    2.06    0.96
  -5  -9  -6    2.55    0.71
   5   9   6    1.45    0.68
  -5  -9  -7   13.26    1.95
  -5  -9  -7    7.71    0.88
   5   9   7    7.87    0.83
  -5  -9  -8   11.09    1.75
  -5  -9  -8   10.10    0.93
   5   9   8    9.37    0.94
  -5  -9  -9    2.16    1.16
  -5  -9  -9    1.46    0.65
   5   9   9    0.57    0.65
  -5  -9 -10   36.44    4.63
  -5  -9 -10   39.51    2.33
   5   9  10   37.75    2.27
  -5  -9 -11    1.29    1.19
  -5  -9 -11    0.59    0.67
   5   9  11    0.74    0.71
  -5  -9 -12   13.71    2.12
  -5  -9 -12   13.26    1.06
   5   9  12   12.78    1.06
  -5  -9 -13    2.97    1.32
  -5  -9 -13    3.90    0.81
   5   9  13    2.53    0.74
  -5  -9 -14   13.14    2.16
  -5  -9 -14   10.40    1.18
  -5  -9 -14   12.05    1.01
  -5  -9 -15    1.67    1.42
  -5  -9 -15    0.18    0.83
  -5  -9 -15    0.62    0.64
   4   8 -20   15.63    2.25
   4   8 -20   14.35    1.38
   4   8 -20   13.05    1.24
   4   8 -19   14.93    1.27
   4   8 -19   17.85    1.36
   4   8 -18    4.40    0.76
   4   8 -17   13.48    1.05
  -4  -8  16   25.17    1.66
   4   8 -16   27.96    1.76
  -4  -8  15   -1.02    0.67
   4   8 -15    0.03    0.63
  -4  -8  14   46.13    2.72
   4   8 -14   47.32    2.72
  -4  -8  13   44.73    2.64
   4   8 -13   44.53    2.66
  -4  -8  12  239.50   13.00
   4   8 -12  232.60   12.58
  -4  -8  11   40.34    2.43
   4   8 -11   40.07    2.43
  -4  -8  10   28.42    1.82
   4   8 -10   27.95    1.81
  -4  -8   9   19.39    1.39
   4   8  -9   19.86    1.33
  -4  -8   8  219.50   11.94
   4   8  -8  207.70   11.31
  -4  -8   7   28.93    1.85
   4   8  -7   26.95    1.75
  -4  -8   6  212.80   11.58
   4   8  -6  205.00   11.15
  -4  -8   5    6.96    0.85
   4   8  -5    7.26    0.92
  -4  -8   4   82.47    4.65
   4   8  -4   79.47    4.47
   4   8  -3   76.53    9.29
  -4  -8   3   88.12    4.96
   4   8  -3   88.53    4.99
   4   8  -2  194.70   23.49
  -4  -8   2  216.30   11.81
   4   8  -2  197.20   10.74
  -4  -8   1   11.67    1.01
   4   8  -1   10.11    0.92
  -4  -8   0  567.70   30.54
   4   8   0  512.50   27.59
  -4  -8  -1   48.35    2.83
   4   8   1   44.81    2.64
  -4  -8  -2    3.83    0.75
  -4  -8  -2    4.23    0.73
   4   8   2    5.11    0.72
  -4  -8  -3   92.22   11.18
  -4  -8  -3  108.80    6.02
   4   8   3  105.90    5.86
  -4  -8  -4   86.87   10.56
  -4  -8  -4   79.04    4.45
   4   8   4   85.78    4.79
  -4  -8  -5    0.21    0.87
  -4  -8  -5    0.72    0.55
   4   8   5    1.03    0.56
  -4  -8  -6  252.00   30.41
  -4  -8  -6  246.60   13.35
   4   8   6  238.50   12.92
  -4  -8  -7   22.89    2.98
  -4  -8  -7   26.04    1.65
   4   8   7   24.85    1.57
  -4  -8  -8  125.10   15.19
  -4  -8  -8  121.80    6.68
   4   8   8  123.40    6.78
  -4  -8  -9   16.51    2.34
  -4  -8  -9   21.10    1.44
   4   8   9   18.67    1.30
  -4  -8 -10   42.81    5.39
  -4  -8 -10   44.07    2.56
   4   8  10   45.36    2.66
  -4  -8 -11   34.20    4.35
  -4  -8 -11   39.73    2.33
   4   8  11   40.36    2.38
  -4  -8 -12   78.14    9.58
  -4  -8 -12   73.92    4.13
   4   8  12   70.08    3.94
  -4  -8 -13    8.08    1.63
  -4  -8 -13    7.18    0.80
  -4  -8 -14   35.34    4.58
  -4  -8 -14   27.58    1.70
  -4  -8 -14   28.42    1.76
  -4  -8 -15   13.86    2.21
  -4  -8 -15   10.92    1.14
  -4  -8 -15   12.01    0.97
  -4  -8 -16   -0.22    1.34
   3   7 -20    1.44    1.02
   3   7 -20    1.26    1.02
   3   7 -20    1.02    1.26
   3   7 -19   26.80    3.58
   3   7 -19   25.85    1.68
   3   7 -19   23.85    1.73
   3   7 -18    0.53    0.66
   3   7 -18    1.82    0.78
   3   7 -17    8.07    0.80
   3   7 -17    8.27    0.95
   3   7 -16   27.30    1.71
  -3  -7  15   24.61    1.63
   3   7 -15   24.33    1.55
  -3  -7  14    1.23    0.69
   3   7 -14   -0.45    0.59
  -3  -7  13   42.83    2.55
   3   7 -13   42.32    2.50
  -3  -7  12   23.01    1.55
   3   7 -12   23.66    1.53
  -3  -7  11   54.97    3.18
   3   7 -11   53.42    3.04
  -3  -7  10   84.66    4.75
   3   7 -10   88.63    4.97
  -3  -7   9   48.68    2.86
   3   7  -9   47.39    2.76
  -3  -7   8   41.51    2.50
   3   7  -8   43.71    2.59
  -3  -7   7   82.32    4.62
   3   7  -7   95.26    5.33
  -3  -7   6  107.30    5.95
   3   7  -6  105.60    5.83
  -3  -7   5   91.54    5.12
   3   7  -5   90.77    5.06
  -3  -7   4  231.30   12.56
   3   7  -4  229.20   12.45
  -3  -7   3  857.30   46.01
   3   7  -3  861.20   46.21
   3   7  -2   26.01    3.22
  -3  -7   2   35.04    2.16
   3   7  -2   37.35    2.26
  -3  -7   1   16.91    1.27
   3   7  -1   17.87    1.27
  -3  -7   0    1.37    0.63
   3   7   0    1.91    0.70
  -3  -7  -1  383.70   20.69
   3   7   1  384.30   20.72
  -3  -7  -2   24.93    3.07
  -3  -7  -2   22.69    1.50
   3   7   2   24.17    1.58
  -3  -7  -3  205.80   24.84
  -3  -7  -3  207.30   11.26
   3   7   3  199.30   10.83
  -3  -7  -4   73.92    8.99
  -3  -7  -4   71.27    4.04
   3   7   4   68.56    3.86
  -3  -7  -5  210.10   25.38
  -3  -7  -5  268.50   14.51
   3   7   5  245.70   13.29
  -3  -7  -6    9.24    1.45
  -3  -7  -6    7.76    0.80
   3   7   6    8.48    0.83
  -3  -7  -7  647.30   77.98
  -3  -7  -7  669.40   35.96
   3   7   7  717.90   38.54
  -3  -7  -8   45.77    5.69
  -3  -7  -8   31.94    1.93
   3   7   8   35.00    2.10
  -3  -7  -9   69.79    8.58
  -3  -7  -9   75.74    4.24
   3   7   9   74.82    4.20
  -3  -7 -10   19.36    2.67
  -3  -7 -10   15.94    1.14
   3   7  10   16.51    1.18
  -3  -7 -11   26.33    3.46
  -3  -7 -11   25.47    1.62
   3   7  11   24.69    1.59
  -3  -7 -12    0.60    1.05
  -3  -7 -12   -0.20    0.59
   3   7  12   -0.62    0.61
  -3  -7 -13   74.79    9.18
  -3  -7 -13   80.76    4.47
  -3  -7 -14    4.17    1.32
  -3  -7 -14    2.81    0.62
  -3  -7 -14    2.33    0.64
  -3  -7 -15   14.82    2.28
  -3  -7 -15   16.13    1.17
  -3  -7 -15   15.66    1.11
  -3  -7 -16    6.35    1.52
  -3  -7 -16    3.05    0.61
  -3  -7 -16    2.91    0.84
  -3  -7 -17   -0.33    1.08
   2   6 -20    2.41    1.30
   2   6 -20    0.44    0.68
   2   6 -20    0.28    1.16
   2   6 -19    2.12    1.28
   2   6 -19    2.29    0.78
   2   6 -19    1.64    1.06
   2   6 -18    6.36    1.56
   2   6 -18    7.57    0.88
   2   6 -18    5.94    0.88
   2   6 -17   27.95    1.74
   2   6 -17   28.66    1.83
   2   6 -16    0.37    0.54
   2   6 -16    0.67    0.69
   2   6 -15   47.38    2.72
   2   6 -14   35.10    2.11
  -2  -6  13   95.00    5.27
   2   6 -13   96.12    5.30
  -2  -6  12    6.88    0.81
   2   6 -12    5.53    0.71
  -2  -6  11  166.90    9.09
   2   6 -11  171.50    9.31
  -2  -6  10    4.20    0.62
   2   6 -10    3.21    0.61
  -2  -6   9  242.40   13.12
   2   6  -9  229.10   12.41
  -2  -6   8   27.15    1.72
   2   6  -8   27.55    1.69
  -2  -6   7   26.57    1.68
   2   6  -7   25.81    1.66
  -2  -6   6   81.84    4.57
   2   6  -6   81.83    4.58
  -2  -6   5 1038.00   55.68
   2   6  -5 1033.00   55.35
  -2  -6   4  107.90    5.97
   2   6  -4  108.80    6.03
  -2  -6   3   89.15    4.98
   2   6  -3   86.80    4.82
  -2  -6   2  160.60    8.78
   2   6  -2  151.10    8.27
   2   6  -1  198.60   23.96
  -2  -6   1  197.70   10.77
   2   6  -1  201.90   10.98
  -2  -6   0   35.44    2.15
   2   6   0   40.18    2.40
  -2  -6  -1   62.41    3.55
   2   6   1   63.04    3.59
  -2  -6  -2   21.45    2.65
  -2  -6  -2   25.40    1.60
   2   6   2   24.27    1.58
  -2  -6  -3   36.76    2.18
   2   6   3   36.47    2.19
  -2  -6  -4    3.34    0.63
   2   6   4    2.40    0.59
  -2  -6  -5  621.70   33.39
   2   6   5  665.10   35.71
  -2  -6  -6  128.60    7.03
   2   6   6  115.10    6.32
  -2  -6  -7    5.10    0.68
   2   6   7    5.19    0.69
  -2  -6  -8   40.87    2.41
   2   6   8   41.64    2.44
  -2  -6  -9  296.50   15.99
   2   6   9  303.50   16.38
  -2  -6 -10    2.39    0.59
   2   6  10    2.45    0.59
  -2  -6 -11    5.02    0.69
   2   6  11    5.24    0.70
  -2  -6 -12    2.73    0.67
  -2  -6 -13    1.82    0.60
  -2  -6 -14   22.76    3.07
  -2  -6 -14   24.10    1.52
  -2  -6 -14   21.77    1.38
  -2  -6 -15   39.92    5.09
  -2  -6 -15   34.48    2.06
  -2  -6 -15   32.83    1.95
  -2  -6 -16    0.35    1.05
  -2  -6 -16    0.37    0.65
  -2  -6 -16    1.61    0.59
  -2  -6 -17   16.68    2.54
  -2  -6 -18   -0.65    1.31
   1   5 -20    2.13    1.23
   1   5 -19   -0.07    1.18
   1   5 -19   -0.48    0.59
   1   5 -19    0.79    0.82
   1   5 -18   10.19    1.68
   1   5 -18    8.76    0.84
   1   5 -18    9.95    0.99
   1   5 -17    0.81    1.04
   1   5 -17    1.30    0.63
   1   5 -17    1.38    0.63
   1   5 -16   76.93    4.27
   1   5 -16   76.62    4.27
   1   5 -15   16.94    1.15
   1   5 -15   19.55    1.29
   1   5 -14   48.92    2.82
   1   5 -14   50.91    2.91
   1   5 -13   23.83    1.45
  -1  -5  12  283.30   15.29
   1   5 -12  260.20   14.08
  -1  -5  11    4.00    0.63
   1   5 -11    4.37    0.61
  -1  -5  10  243.20   13.15
   1   5 -10  225.20   12.16
  -1  -5   9   28.18    1.74
   1   5  -9   28.85    1.78
  -1  -5   8    2.80    0.56
   1   5  -8    2.44    0.54
  -1  -5   7   90.58    5.01
   1   5  -7   87.91    4.86
  -1  -5   6   82.07    4.56
   1   5  -6   83.79    4.65
  -1  -5   5  100.20    5.53
   1   5  -5  102.60    5.64
  -1  -5   3  138.10    7.56
   1   5  -3  147.30    8.04
  -1  -5   2  175.40    9.55
   1   5  -2  170.90    9.30
   1   5  -1   51.16    6.21
  -1  -5   1   81.30    4.55
   1   5  -1   75.09    4.22
   1   5   0    5.42    0.73
  -1  -5   0    5.80    0.82
   1   5   0    6.74    0.83
  -1  -5  -1  138.30   16.72
  -1  -5  -1  125.60    6.89
   1   5   1  130.50    7.15
  -1  -5  -2  335.40   18.09
   1   5   2  315.80   17.04
  -1  -5  -3  261.00   14.10
   1   5   3  260.00   14.05
  -1  -5  -4  313.40   16.90
   1   5   4  320.40   17.28
  -1  -5  -5    1.57    0.61
   1   5   5    1.22    0.51
  -1  -5  -6  231.60   12.53
   1   5   6  233.50   12.64
  -1  -5  -7   44.82    2.60
   1   5   7   45.03    2.59
  -1  -5  -8   81.15    4.52
   1   5   8   79.74    4.44
  -1  -5  -9   14.24    1.04
   1   5   9   13.39    1.00
  -1  -5 -10  346.20   18.64
   1   5  10  351.70   18.95
  -1  -5 -11    6.06    0.70
   1   5  11    6.61    0.70
  -1  -5 -12   59.15    3.33
  -1  -5 -13   81.58    4.53
  -1  -5 -13   79.78    4.43
  -1  -5 -14  105.00    5.76
  -1  -5 -14  104.90    5.76
  -1  -5 -15    0.15    0.59
  -1  -5 -15   -0.19    0.55
  -1  -5 -16   14.68    1.09
  -1  -5 -16   14.64    1.05
  -1  -5 -17    3.86    1.41
  -1  -5 -17    2.46    0.74
  -1  -5 -17    2.57    0.64
  -1  -5 -18    7.01    1.70
  -1  -5 -19    2.62    1.30
   0   4 -19    1.00    1.18
   0   4 -18   19.18    2.69
   0   4 -17    0.37    1.26
   0   4 -17   -0.68    0.48
   0   4 -17   -0.09    0.52
   0   4 -16   11.90    1.87
   0   4 -16    5.63    0.68
   0   4 -16    6.68    0.70
   0   4 -15   11.46    0.89
   0   4 -15   11.61    0.87
   0   4 -14   72.49    4.03
   0   4 -14   74.34    4.09
   0   4 -13    0.52    0.48
   0   4 -13    0.32    0.47
   0   4 -12  168.60    9.14
   0   4 -12  174.40    9.45
   0   4 -11   67.28    3.74
   0  -4  10   68.06    3.79
   0   4 -10   68.09    3.77
   0  -4   9    3.75    0.56
   0   4  -9    3.21    0.54
   0  -4   8  882.80   47.33
   0   4  -8  923.90   49.51
   0  -4   7   56.59    3.18
   0   4  -7   55.14    3.08
   0  -4   6  100.50    5.51
   0   4  -6   97.03    5.34
   0  -4   5   13.40    0.96
   0   4  -5   13.87    0.99
   0  -4   4   36.68    2.15
   0   4  -4   36.18    2.12
   0  -4   3  236.90   12.79
   0   4  -3  232.90   12.59
   0   4  -2  277.10   33.42
   0  -4   2  281.10   15.16
   0   4  -2  272.00   14.67
   0   4  -1   59.20    7.21
   0  -4   1   67.06    3.76
   0   4  -1   57.50    3.24
   0  -4  -1   57.38    6.96
   0   4   1   59.76    7.24
   0  -4  -1   57.68    3.27
   0   4   1   61.33    3.45
   0  -4  -2  296.90   35.77
   0  -4  -2  285.60   15.42
   0   4   2  291.90   15.75
   0  -4  -3  232.00   12.56
   0   4   3  240.40   13.01
   0  -4  -4   38.75    2.27
   0   4   4   39.37    2.31
   0  -4  -5   13.44    1.02
   0   4   5   12.85    0.96
   0  -4  -6   97.44    5.37
   0   4   6  102.30    5.62
   0  -4  -7   55.72    3.15
   0   4   7   55.53    3.14
   0  -4  -8  897.10   48.11
   0   4   8  880.20   47.20
   0  -4  -9    2.12    0.56
   0   4   9    3.54    0.59
   0  -4 -10   68.96    3.85
   0   4  10   69.02    3.86
   0  -4 -11   62.88    3.52
   0  -4 -12  168.60    9.18
   0  -4 -12  173.20    9.40
   0  -4 -13    0.58    0.46
   0  -4 -13    0.02    0.54
   0  -4 -14   73.90    4.12
   0  -4 -14   72.53    4.03
   0  -4 -15   10.22    0.87
   0  -4 -15   11.08    0.89
   0  -4 -16    8.55    0.84
   0  -4 -16    6.72    0.75
   0  -4 -17    0.19    0.65
   0  -4 -17    0.27    0.67
   0  -4 -18    9.02    1.05
   0  -4 -18    9.37    0.91
   0  -4 -19    0.98    1.22
   0  -4 -19   -1.09    0.71
   0  -4 -19   -0.16    0.61
  -1   3 -19    6.12    1.44
  -1   3 -18    5.55    1.41
  -1   3 -17    0.82    1.21
  -1   3 -16   40.83    5.22
  -1   3 -15    6.15    1.46
  -1   3 -15    6.60    0.51
  -1   3 -15    6.38    0.49
  -1   3 -14    0.77    1.04
  -1   3 -14    0.27    0.39
  -1   3 -14    0.44    0.41
  -1   3 -13   20.33    1.24
  -1   3 -13   20.55    1.24
  -1   3 -12    1.16    0.39
  -1   3 -12    1.55    0.42
  -1   3 -11  101.30    5.54
  -1   3 -11   99.69    5.44
  -1   3 -10  151.00    8.17
  -1   3 -10  145.40    7.86
  -1   3  -9  199.40   10.77
   1  -3   8    9.96    0.73
  -1   3  -8    9.60    0.72
   1  -3   7  691.80   37.11
  -1   3  -7  666.40   35.75
   1  -3   6   78.03    4.28
  -1   3  -6   82.10    4.51
   1  -3   5  832.80   44.64
   1  -3   4   46.17    2.59
  -1   3  -4   46.91    2.61
  -1   3  -3  319.70   38.57
   1  -3   3  293.10   15.76
  -1   3  -3  300.10   16.14
  -1   3  -2    9.22    1.50
   1  -3   2    8.88    0.72
  -1   3  -2    9.68    0.73
   1  -3   1  147.80   17.86
  -1   3  -1  154.70   18.69
   1  -3   1  199.70   10.77
  -1   3  -1  179.90    9.72
   1  -3   0  227.10   27.38
  -1   3   0  263.50   31.75
   1  -3   0  267.30   14.39
  -1   3   0  270.10   14.55
   1  -3  -2   39.95    4.92
   1  -3  -2   23.15    1.46
  -1   3   2   25.34    1.57
   1  -3  -3  761.70   40.86
  -1   3   3  714.00   38.29
   1  -3  -4  620.50   33.30
  -1   3   4  625.00   33.55
   1  -3  -5   74.00    4.12
  -1   3   5   70.06    3.92
   1  -3  -6   15.68    1.11
  -1   3   6   14.16    1.02
   1  -3  -7   51.11    2.92
  -1   3   7   49.18    2.80
   1  -3  -8   20.97    1.35
  -1   3   8   22.43    1.43
   1  -3  -9  116.60    6.40
   1  -3 -10  103.80    5.73
   1  -3 -11   20.59    1.34
   1  -3 -11   19.50    1.23
   1  -3 -12   12.01    0.94
   1  -3 -12   10.60    0.89
   1  -3 -13   83.74    4.65
   1  -3 -13   78.96    4.38
   1  -3 -14    7.92    0.75
   1  -3 -14    7.10    0.71
   1  -3 -15   30.09    1.82
   1  -3 -15   30.47    1.81
   1  -3 -16   29.06    1.80
   1  -3 -16   28.40    1.74
   1  -3 -17   20.06    1.37
   1  -3 -17   20.12    1.37
   1  -3 -18    8.26    0.91
   1  -3 -18    8.07    0.88
   1  -3 -19   22.69    1.67
   1  -3 -19   24.90    1.59
   1  -3 -20    0.14    0.89
   1  -3 -20   -0.35    0.67
  -2   2 -19    0.11    1.23
  -2   2 -18    1.52    1.29
  -2   2 -17   77.04    9.50
  -2   2 -16    6.91    1.51
  -2   2 -15   33.92    4.36
  -2   2 -14    4.25    1.19
  -2   2 -13   19.92    2.77
  -2   2 -12   -0.15    0.99
  -2   2 -11   48.89    6.15
  -2   2 -11   41.93    2.32
  -2   2 -11   40.35    2.23
  -2   2 -10    1.83    1.06
  -2   2 -10    0.93    0.30
  -2   2 -10    0.77    0.27
  -2   2  -9  364.10   19.62
  -2   2  -9  340.20   18.33
  -2   2  -8    1.52    0.30
  -2   2  -8    1.20    0.30
  -2   2  -7  247.30   13.33
  -2   2  -7  243.70   13.12
  -2   2  -6   84.85   10.40
   2  -2   6   92.40    5.03
  -2   2  -6   84.79    4.60
  -2   2  -5  211.00   25.53
   2  -2   5  178.70    9.63
  -2   2  -5  190.60   10.28
  -2   2  -4   86.38   10.56
   2  -2   4   79.99    4.34
  -2   2  -4   81.09    4.40
  -2   2  -3  436.30   52.61
   2  -2   3  364.50   19.57
  -2   2  -3  393.30   21.12
   2  -2   2  120.00   14.57
  -2   2  -2  124.70   15.14
   2  -2   2  100.40    5.44
  -2   2  -2  106.70    5.78
   2  -2   1   22.10    2.92
  -2   2  -1   20.09    2.68
   2  -2   1   15.33    0.97
  -2   2  -1   18.73    1.13
   2  -2   0    5.11    1.06
  -2   2   0    5.74    1.15
   2  -2   0    4.25    0.50
  -2   2   0    4.06    0.54
   2  -2  -1   25.02    3.19
  -2   2   1   26.88    3.39
   2  -2  -1   25.87    1.54
  -2   2   1   26.55    1.59
   2  -2  -2    9.39    1.48
  -2   2   2    6.18    1.19
   2  -2  -2    6.02    0.66
  -2   2   2    7.08    0.69
   2  -2  -3  698.50   84.11
   2  -2  -3  622.70   33.41
  -2   2   3  615.80   33.04
   2  -2  -4   25.10    1.61
  -2   2   4   24.20    1.54
   2  -2  -5   32.30    1.95
  -2   2   5   30.53    1.87
   2  -2  -6   13.18    0.99
  -2   2   6   13.56    1.00
   2  -2  -7  250.20   13.53
   2  -2  -8   27.48    1.70
   2  -2  -9  142.50    7.78
   2  -2  -9  146.00    7.94
   2  -2 -10    5.95    0.70
   2  -2 -10    5.12    0.70
   2  -2 -11   87.58    4.83
   2  -2 -11   93.59    5.20
   2  -2 -12    5.78    0.70
   2  -2 -12    6.01    0.66
   2  -2 -13   40.56    2.39
   2  -2 -13   41.94    2.46
   2  -2 -14   21.40    1.41
   2  -2 -14   20.33    1.30
   2  -2 -15   58.30    3.32
   2  -2 -15   56.86    3.24
   2  -2 -16    3.07    0.66
   2  -2 -16    3.26    0.65
   2  -2 -17  126.80    6.94
   2  -2 -17  118.90    6.52
   2  -2 -18    1.28    0.67
   2  -2 -18    2.10    0.73
   2  -2 -19   18.50    1.35
   2  -2 -19   16.72    1.23
   2  -2 -20    1.52    0.78
   2  -2 -20   -0.24    1.06
  -3   1 -18    7.81    1.73
  -3   1 -17    1.47    1.22
  -3   1 -16   75.79    9.32
  -3   1 -15   36.19    4.66
  -3   1 -14    4.17    1.28
  -3   1 -13    8.35    1.55
  -3   1 -12   23.14    3.13
  -3   1 -11   15.38    2.36
  -3   1 -10   60.16    7.48
  -3   1  -9   10.05    1.74
  -3   1  -8   98.56   12.05
  -3   1  -7   82.02   10.06
  -3   1  -6   30.84    3.98
  -3   1  -5  962.40  115.90
  -3   1  -4  321.70   38.83
  -3   1  -3    6.26    1.45
   3  -1   2   42.80    5.35
  -3   1  -2   51.53    6.42
   3  -1   2   39.85    2.19
   3  -1   1   12.23    1.96
  -3   1  -1   12.21    1.80
   3  -1   1   10.15    0.68
   3  -1   0   44.35    5.49
  -3   1   0   46.89    5.80
   3  -1   0   42.95    2.40
  -3   1   0   38.57    2.17
   3  -1  -1  961.50  115.70
   3  -1  -2 1641.00  197.50
   3  -1  -3  257.40   31.07
  -3   1   3  264.40   31.91
   3  -1  -3  276.90   14.92
   3  -1  -4   27.84    3.62
   3  -1  -4   29.97    1.86
   3  -1  -5   17.54    1.24
   3  -1  -6  160.40    8.74
   3  -1  -6  157.80    8.60
   3  -1  -7  379.30   20.43
   3  -1  -7  372.80   20.06
   3  -1  -8  162.80    8.87
   3  -1  -8  169.60    9.24
   3  -1  -9    5.33    0.66
   3  -1  -9    5.91    0.72
   3  -1 -10  180.40    9.78
   3  -1 -10  189.30   10.28
   3  -1 -11   18.38    1.29
   3  -1 -11   18.42    1.27
   3  -1 -12   40.71    2.36
   3  -1 -12   42.63    2.51
   3  -1 -13   25.77    1.59
   3  -1 -13   25.43    1.62
   3  -1 -14   12.45    0.98
   3  -1 -14   12.98    1.05
   3  -1 -15   25.96    1.64
   3  -1 -15   27.46    1.74
   3  -1 -16   13.56    1.08
   3  -1 -16   13.62    1.04
   3  -1 -17   22.37    1.48
   3  -1 -17   24.55    1.58
   3  -1 -18   45.53    2.65
   3  -1 -18   45.57    2.67
   3  -1 -19   19.18    1.37
   3  -1 -19   19.40    1.40
   3  -1 -20    2.08    0.79
   3  -1 -20    1.90    0.90
   3  -1 -21    8.20    1.41
   3  -1 -21   10.49    1.25
  -4   0 -18    4.63    1.43
  -4   0 -17   -0.06    1.20
  -4   0 -16    1.48    1.40
  -4   0 -15    0.06    1.37
  -4   0 -14  212.00   25.67
  -4   0 -13   -0.95    1.00
  -4   0 -12   44.52    5.65
  -4   0 -11   -0.83    1.00
  -4   0 -10    5.82    1.42
  -4   0  -9    0.69    1.19
  -4   0  -8   31.97    4.14
  -4   0  -7    0.63    1.08
  -4   0  -6  203.90   24.69
  -4   0  -5    0.28    0.95
  -4   0  -4 2418.00  291.00
  -4   0  -3    3.60    1.06
   4   0   3    2.94    0.23
   4   0   3    3.23    0.25
   4   0   2  142.70   17.31
  -4   0  -2  140.90   17.09
   4   0   2  107.10    5.79
   4   0   1    1.86    1.20
  -4   0  -1    1.27    0.96
   4   0   1    0.84    0.37
   4   0   0  652.00   78.54
  -4   0   0  648.60   78.12
  -4   0   0  591.20   31.70
   4   0  -1    9.03    1.68
  -4   0   1   10.06    1.76
   4   0  -1    8.91    0.77
  -4   0   1    9.76    0.79
   4   0  -2   19.61    2.69
  -4   0   2   17.49    2.50
   4   0  -2   18.69    1.25
  -4   0   2   20.98    1.37
   4   0  -3    9.72    1.78
  -4   0   3    9.87    1.80
   4   0  -3    9.56    0.86
  -4   0   3   10.17    0.93
   4   0  -4    3.94    1.41
   4   0  -4    7.98    0.88
   4   0  -5    1.47    1.24
   4   0  -5    4.62    0.67
   4   0  -6  294.50   15.88
   4   0  -7    0.26    0.55
   4   0  -8  890.70   47.76
   4   0  -8  932.30   49.99
   4   0  -9    1.21    0.61
   4   0  -9    1.38    0.61
   4   0 -10  103.70    5.75
   4   0 -10   97.37    5.36
   4   0 -11    1.40    0.61
   4   0 -11    0.82    0.62
   4   0 -12   24.47    1.59
   4   0 -12   25.13    1.61
   4   0 -13    0.89    0.60
   4   0 -13   -0.35    0.51
   4   0 -14   90.21    5.05
   4   0 -14   86.27    4.83
   4   0 -15    0.71    0.65
   4   0 -15   -0.30    0.61
   4   0 -16    4.03    0.78
   4   0 -16    4.08    0.74
   4   0 -17    0.58    0.71
   4   0 -17   -0.04    0.62
   4   0 -18    7.65    0.93
   4   0 -18    8.05    0.82
   4   0 -19    0.31    0.78
   4   0 -19    0.63    0.66
   4   0 -20   50.92    2.99
   4   0 -20   49.87    2.91
   4   0 -21    0.53    1.09
   4   0 -21   -0.63    0.89
  -5  -1 -17    0.15    1.19
  -5  -1 -16   32.16    4.19
  -5  -1 -15    4.33    1.34
  -5  -1 -14   18.27    2.62
  -5  -1 -13  117.50   14.34
  -5  -1 -12   19.73    2.77
  -5  -1 -11   26.70    3.59
  -5  -1 -10   90.21   11.08
  -5  -1  -9    4.84    1.46
  -5  -1  -8  392.90   47.41
  -5  -1  -7   72.67    8.95
  -5  -1  -6    9.97    1.63
  -5  -1  -5   91.69   11.20
  -5  -1  -4  225.40   27.25
   5   1   4  188.80   10.24
  -5  -1  -4  178.60    9.69
   5   1   3  686.10   82.68
  -5  -1  -3  587.80   70.84
   5   1   3  645.60   34.67
  -5  -1  -3  661.20   35.51
   5   1   2  800.60   96.44
  -5  -1  -2  653.20   78.69
   5   1   2  756.30   40.55
  -5  -1  -2  760.50   40.78
   5   1   1  191.80   23.23
  -5  -1  -1  176.10   21.32
   5   1   1  166.80    9.01
  -5  -1  -1  165.10    8.91
   5   1   0  196.10   23.73
  -5  -1   0  199.80   24.17
   5   1   0  219.90   11.86
  -5  -1   0  215.60   11.64
   5   1  -1  780.40   94.00
  -5  -1   1  737.40   88.81
   5   1  -1  738.80   39.63
  -5  -1   1  731.10   39.21
   5   1  -2  805.70   97.03
  -5  -1   2  729.80   87.91
   5   1  -2  746.00   40.01
  -5  -1   2  810.40   43.46
   5   1  -3  565.30   68.11
  -5  -1   3  605.60   72.98
   5   1  -3  552.60   29.69
  -5  -1   3  534.20   28.71
   5   1  -4 1047.00  126.00
  -5  -1   4 1086.00  130.80
   5   1  -4 1155.00   61.90
  -5  -1   4 1204.00   64.53
   5   1  -5  216.00   26.13
   5   1  -5  202.00   10.98
  -5  -1   5  208.40   11.32
   5   1  -6  118.80   14.47
   5   1  -6  115.80    6.36
  -5  -1   6  116.00    6.39
   5   1  -7   62.10    3.53
  -5  -1   7   61.50    3.52
   5   1  -8   39.35    2.33
   5   1  -9   37.57    2.24
   5   1 -10  242.40   13.14
   5   1 -11  126.90    6.97
   5   1 -11  125.30    6.91
   5   1 -12   35.08    2.15
   5   1 -12   34.79    2.15
   5   1 -13   32.13    2.00
   5   1 -13   34.30    2.06
   5   1 -14    1.15    0.64
   5   1 -14    0.94    0.61
   5   1 -15   30.95    1.96
   5   1 -15   31.41    1.97
   5   1 -16   35.05    2.09
   5   1 -16   33.19    2.04
   5   1 -17    1.17    0.60
   5   1 -17    0.45    0.72
   5   1 -18   15.13    1.22
   5   1 -18   15.85    1.13
   5   1 -19    2.96    0.85
   5   1 -19    4.91    0.78
   5   1 -20    2.48    0.90
   5   1 -20    3.63    0.84
   5   1 -21   17.68    1.39
   5   1 -21   17.72    1.49
  -6  -2 -16   -1.60    1.53
  -6  -2 -15   45.09    5.80
  -6  -2 -14    1.81    1.42
  -6  -2 -13   19.07    2.75
  -6  -2 -12    3.03    1.47
  -6  -2 -11    1.12    1.35
  -6  -2 -10   75.30    9.29
  -6  -2  -9  504.40   60.83
  -6  -2  -8   16.91    2.50
  -6  -2  -7  134.00   16.29
  -6  -2  -6    5.19    1.33
  -6  -2  -5    4.94    1.33
   6   2   5    4.38    0.38
  -6  -2  -5    4.12    0.34
  -6  -2  -4    9.51    1.61
   6   2   4   10.75    0.71
  -6  -2  -4   11.01    0.72
   6   2   3  366.70   44.27
  -6  -2  -3  357.50   43.13
   6   2   3  338.30   18.19
  -6  -2  -3  322.60   17.35
   6   2   2    4.01    1.20
  -6  -2  -2    3.34    1.15
   6   2   2    2.11    0.45
  -6  -2  -2    1.98    0.46
   6   2   1  605.80   72.98
  -6  -2  -1  544.10   65.58
   6   2   1  627.20   33.65
  -6  -2  -1  627.10   33.65
   6   2   0   36.19    4.57
  -6  -2   0   33.82    4.31
   6   2   0   39.12    2.26
  -6  -2   0   36.11    2.11
   6   2  -1   32.34    4.14
  -6  -2   1   32.06    4.09
   6   2  -1   39.91    2.34
  -6  -2   1   39.91    2.33
   6   2  -2   25.78    3.45
  -6  -2   2   26.60    3.45
   6   2  -2   20.26    1.35
  -6  -2   2   22.18    1.47
   6   2  -3 1727.00  207.90
  -6  -2   3 1665.00  200.40
   6   2  -4    1.95    1.24
  -6  -2   4    2.37    1.05
   6   2  -4    2.46    0.72
  -6  -2   4    2.79    0.73
   6   2  -5  338.30   40.86
   6   2  -5  371.20   20.02
  -6  -2   5  382.80   20.65
   6   2  -6   99.00   12.12
   6   2  -6   93.28    5.20
  -6  -2   6   91.60    5.12
   6   2  -7   14.69    2.23
   6   2  -7    9.35    0.95
  -6  -2   7    9.07    0.93
   6   2  -8    1.00    0.66
  -6  -2   8    1.90    0.67
   6   2  -9   31.56    1.96
  -6  -2   9   30.77    1.92
   6   2 -10    1.86    0.72
  -6  -2  10    1.85    0.58
   6   2 -11  308.40   16.66
   6   2 -12   11.45    0.98
   6   2 -13   76.85    4.35
   6   2 -13   75.97    4.31
   6   2 -14    6.52    0.85
   6   2 -14    7.89    0.85
   6   2 -15   13.36    1.11
   6   2 -15   12.80    1.09
   6   2 -16    7.37    0.76
   6   2 -16    8.76    0.95
   6   2 -17   98.75    5.47
   6   2 -17  102.90    5.70
   6   2 -18    0.48    0.68
   6   2 -18   -0.32    0.63
   6   2 -19   16.32    1.30
   6   2 -19   13.59    1.10
   6   2 -20    1.01    0.75
   6   2 -20   -1.12    0.89
   6   2 -21    0.14    0.90
   6   2 -21   -0.05    0.89
   6   2 -22    0.72    0.96
   6   2 -22    0.90    0.98
  -7  -3 -16   10.64    2.03
  -7  -3 -15    6.48    1.75
  -7  -3 -14    1.80    1.69
  -7  -3 -13   29.14    3.93
  -7  -3 -12    2.12    1.47
  -7  -3 -11  190.20   23.07
  -7  -3 -10   21.52    3.06
  -7  -3  -9    2.93    1.15
  -7  -3  -8   35.16    4.52
  -7  -3  -7   39.66    5.03
  -7  -3  -6    3.30    1.26
   7   3   6    2.15    0.34
  -7  -3  -6    2.02    0.31
  -7  -3  -5  144.60   17.56
   7   3   5  144.00    7.80
  -7  -3  -5  137.80    7.45
  -7  -3  -4   29.12    3.78
   7   3   4   29.39    1.70
  -7  -3  -4   28.58    1.66
  -7  -3  -3   17.67    2.44
   7   3   3   24.90    1.50
  -7  -3  -3   20.95    1.28
   7   3   2   99.47   12.17
  -7  -3  -2   93.22   11.39
   7   3   2   93.59    5.14
  -7  -3  -2   91.19    5.01
   7   3   1   57.31    7.15
  -7  -3  -1   47.80    5.96
   7   3   1   53.63    3.02
  -7  -3  -1   47.23    2.68
   7   3   0   22.96    3.13
  -7  -3   0   22.59    3.07
   7   3   0   24.68    1.53
  -7  -3   0   24.05    1.51
   7   3  -1   36.09    4.58
  -7  -3   1   34.79    4.43
   7   3  -1   36.25    2.15
  -7  -3   1   35.29    2.11
   7   3  -2   36.81    4.66
  -7  -3   2   33.47    4.28
   7   3  -2   25.68    1.65
  -7  -3   2   27.73    1.74
   7   3  -3  118.80   14.44
  -7  -3   3  123.10   14.97
   7   3  -3  140.40    7.70
  -7  -3   3  135.20    7.41
   7   3  -4  246.40   29.77
  -7  -3   4  249.00   30.11
   7   3  -4  241.40   13.10
  -7  -3   4  232.00   12.59
   7   3  -5  124.40   15.14
  -7  -3   5  107.40   13.10
   7   3  -5   99.33    5.51
  -7  -3   5  101.90    5.67
   7   3  -6  118.90   14.50
   7   3  -6  133.70    7.34
  -7  -3   6  135.20    7.44
   7   3  -7  298.70   36.08
   7   3  -7  281.20   15.20
  -7  -3   7  276.70   14.99
   7   3  -8    5.42    1.33
   7   3  -8   11.05    1.06
  -7  -3   8    8.56    0.91
   7   3  -9  160.80   19.54
   7   3  -9  176.50    9.64
  -7  -3   9  174.00    9.51
   7   3 -10    1.80    0.70
  -7  -3  10    0.59    0.67
   7   3 -11   15.45    1.17
  -7  -3  11   13.98    1.15
   7   3 -12   23.79    1.56
  -7  -3  12   24.38    1.61
   7   3 -13  143.70    7.89
   7   3 -14    2.82    0.73
   7   3 -15   95.77    5.33
   7   3 -15   99.39    5.50
   7   3 -16    0.79    0.66
   7   3 -16    1.69    0.74
   7   3 -17   15.12    1.21
   7   3 -17   16.20    1.14
   7   3 -18    1.44    0.79
   7   3 -18    2.88    0.62
   7   3 -19   13.03    1.12
   7   3 -19   16.02    1.19
   7   3 -20    5.41    0.94
   7   3 -20    5.51    0.89
   7   3 -21    6.80    1.02
   7   3 -21    6.84    0.96
   7   3 -22    0.24    0.84
   7   3 -22   -0.85    0.94
  -8  -4 -15    3.13    1.52
  -8  -4 -14   26.61    3.78
  -8  -4 -13   -0.14    1.39
  -8  -4 -12   70.32    8.71
  -8  -4 -11    6.60    1.61
  -8  -4 -10   64.85    8.06
  -8  -4  -9    1.48    1.39
  -8  -4  -8   13.15    2.14
  -8  -4  -7    9.47    1.74
   8   4   7   11.15    0.75
  -8  -4  -7   11.94    0.76
  -8  -4  -6   42.12    5.35
   8   4   6   40.45    2.28
  -8  -4  -6   36.28    2.05
  -8  -4  -5   12.27    1.97
   8   4   5   10.95    0.78
  -8  -4  -5   12.54    0.86
  -8  -4  -4  222.80   26.95
   8   4   4  240.40   12.97
  -8  -4  -4  218.60   11.81
  -8  -4  -3   64.55    7.98
   8   4   3   69.68    3.86
  -8  -4  -3   72.65    4.03
   8   4   2  190.90   23.13
  -8  -4  -2  178.70   21.66
   8   4   2  165.70    9.00
  -8  -4  -2  162.50    8.83
   8   4   1   33.15    4.30
  -8  -4  -1   33.73    4.36
   8   4   1   26.74    1.65
  -8  -4  -1   27.15    1.69
   8   4   0   50.46    6.31
  -8  -4   0   49.62    6.22
   8   4   0   38.83    2.29
  -8  -4   0   40.59    2.39
   8   4  -1    4.41    1.29
  -8  -4   1    3.67    1.26
   8   4  -1    3.13    0.64
  -8  -4   1    4.18    0.69
   8   4  -2  167.10   20.27
  -8  -4   2  175.50   21.26
   8   4  -2  188.90   10.28
  -8  -4   2  189.90   10.33
   8   4  -3    1.49    1.36
  -8  -4   3    1.60    1.17
   8   4  -3    1.27    0.61
  -8  -4   3    1.14    0.67
   8   4  -4  227.90   27.60
  -8  -4   4  231.20   27.97
   8   4  -4  255.10   13.82
  -8  -4   4  253.60   13.75
   8   4  -5    6.28    1.68
  -8  -4   5    5.59    1.37
   8   4  -5    7.89    0.86
  -8  -4   5    7.02    0.82
   8   4  -6  125.30   15.31
   8   4  -6   83.92    4.72
  -8  -4   6   81.87    4.63
   8   4  -7  274.20   33.18
   8   4  -7  299.20   16.21
  -8  -4   7  308.40   16.69
   8   4  -8  824.00   99.30
   8   4  -8  942.00   50.54
  -8  -4   8  905.30   48.61
   8   4  -9  127.00   15.54
   8   4  -9  118.70    6.56
  -8  -4   9  110.40    6.13
   8   4 -10    5.13    1.65
   8   4 -10    6.27    0.81
  -8  -4  10    4.76    0.79
   8   4 -11   20.47    3.00
   8   4 -11   19.68    1.44
  -8  -4  11   18.85    1.38
   8   4 -12    7.72    0.86
  -8  -4  12    8.55    0.88
   8   4 -13   27.19    1.72
  -8  -4  13   28.80    1.87
   8   4 -14  179.90    9.83
   8   4 -15    3.69    0.68
   8   4 -16   59.94    3.45
   8   4 -17   18.52    1.39
   8   4 -17   17.28    1.22
   8   4 -18    4.28    0.72
   8   4 -18    4.41    0.82
   8   4 -19   12.24    1.04
   8   4 -19   11.20    1.05
   8   4 -20   20.31    1.43
   8   4 -20   20.18    1.49
   8   4 -21   -0.16    0.82
   8   4 -21   -0.07    0.74
   8   4 -22    4.01    0.93
   8   4 -22    4.42    1.07
  -9  -5 -14   24.58    3.47
  -9  -5 -13   11.27    2.18
  -9  -5 -12    1.48    1.66
  -9  -5 -11   25.27    3.48
  -9  -5 -10   48.80    6.17
  -9  -5  -9    1.14    1.31
  -9  -5  -8   44.10    5.61
   9   5   8   47.30    2.71
  -9  -5  -7   12.02    2.04
   9   5   7   11.14    0.79
  -9  -5  -7    9.86    0.71
  -9  -5  -6    7.97    1.67
   9   5   6   10.38    0.81
  -9  -5  -6   10.66    0.78
  -9  -5  -5   25.72    3.47
   9   5   5   23.26    1.46
  -9  -5  -5   23.38    1.45
  -9  -5  -4   46.59    5.88
   9   5   4   40.04    2.31
  -9  -5  -4   40.67    2.36
  -9  -5  -3   97.27   11.89
   9   5   3   94.25    5.20
  -9  -5  -3   98.37    5.40
   9   5   2  256.80   31.07
  -9  -5  -2  262.20   31.70
   9   5   2  267.50   14.45
  -9  -5  -2  267.30   14.45
   9   5   1    3.21    1.19
  -9  -5  -1    2.54    1.23
   9   5   1    1.96    0.56
  -9  -5  -1    0.66    0.61
   9   5   0   28.84    3.79
  -9  -5   0   28.05    3.69
   9   5   0   31.87    1.94
  -9  -5   0   32.21    1.98
   9   5  -1   64.60    8.01
  -9  -5   1   59.85    7.42
   9   5  -1   54.15    3.12
  -9  -5   1   57.52    3.31
   9   5  -2    3.21    1.38
  -9  -5   2    4.86    1.43
   9   5  -2    2.58    0.72
  -9  -5   2    1.44    0.60
   9   5  -3    0.77    1.34
  -9  -5   3    2.58    1.22
   9   5  -3    2.30    0.67
  -9  -5   3    3.18    0.70
   9   5  -4   18.73    2.78
  -9  -5   4   18.26    2.62
   9   5  -4   16.27    1.20
  -9  -5   4   17.21    1.32
   9   5  -5  136.60   16.62
  -9  -5   5  129.40   15.75
   9   5  -5  156.80    8.60
  -9  -5   5  157.90    8.66
   9   5  -6  494.50   59.64
   9   5  -6  514.00   27.66
  -9  -5   6  522.40   28.12
   9   5  -7  176.10   21.38
   9   5  -7  162.40    8.91
  -9  -5   7  161.20    8.86
   9   5  -8   27.20    3.71
   9   5  -8   37.38    2.29
  -9  -5   8   35.33    2.22
   9   5  -9   99.61   12.22
   9   5  -9  102.30    5.74
  -9  -5   9   99.47    5.56
   9   5 -10  460.00   55.49
   9   5 -10  442.10   23.82
  -9  -5  10  436.70   23.54
   9   5 -11    1.92    1.29
   9   5 -11    1.39    0.64
  -9  -5  11    1.85    0.67
   9   5 -12   48.03    6.13
   9   5 -12   56.40    3.30
  -9  -5  12   50.94    2.99
   9   5 -13    3.38    1.50
   9   5 -13    2.88    0.70
  -9  -5  13    2.82    0.76
   9   5 -14   34.29    4.67
   9   5 -14   38.83    2.33
  -9  -5  14   40.15    2.44
   9   5 -15   32.87    4.45
   9   5 -15   29.96    1.94
   9   5 -16   23.38    1.52
   9   5 -17    1.63    0.66
   9   5 -18   14.45    1.20
   9   5 -18   13.43    1.10
   9   5 -19    1.45    0.78
   9   5 -19    0.81    0.63
   9   5 -20   16.34    1.30
   9   5 -20   15.02    1.14
   9   5 -21    8.75    1.71
   9   5 -21    7.51    1.01
   9   5 -21    7.95    0.89
   9   5 -22    0.60    1.14
   9   5 -22    0.65    1.04
   9   5 -22    0.23    0.85
 -10  -6 -13   21.95    3.20
 -10  -6 -12    6.22    1.74
 -10  -6 -11   22.13    3.16
 -10  -6 -10    1.34    1.31
 -10  -6  -9  127.10   15.48
 -10  -6  -8   17.39    2.63
  10   6   8   11.21    0.79
 -10  -6  -8   11.63    0.73
 -10  -6  -7   48.73    6.17
  10   6   7   49.53    2.80
 -10  -6  -7   49.27    2.76
 -10  -6  -6    4.42    1.57
  10   6   6    3.25    0.59
 -10  -6  -6    4.97    0.64
 -10  -6  -5   14.95    2.26
  10   6   5   16.31    1.16
 -10  -6  -5   17.15    1.18
 -10  -6  -4    0.86    1.37
  10   6   4    1.00    0.59
 -10  -6  -4    0.56    0.50
 -10  -6  -3  141.50   17.24
  10   6   3  119.10    6.54
 -10  -6  -3   98.97    5.46
  10   6   2   33.24    4.23
 -10  -6  -2   32.02    4.20
  10   6   2   26.96    1.71
 -10  -6  -2   26.58    1.66
  10   6   1  148.90   18.08
 -10  -6  -1  154.40   18.74
  10   6   1  152.70    8.35
 -10  -6  -1  150.30    8.20
  10   6   0   32.80    4.25
 -10  -6   0   33.47    4.35
  10   6   0   33.30    2.05
 -10  -6   0   36.06    2.20
  10   6  -1   73.09    9.01
 -10  -6   1   71.11    8.78
  10   6  -1   77.65    4.36
 -10  -6   1   79.77    4.48
  10   6  -2   78.88    9.69
 -10  -6   2   79.21    9.75
  10   6  -2   86.30    4.84
 -10  -6   2   85.26    4.79
  10   6  -3  107.20   13.12
 -10  -6   3  118.20   14.43
  10   6  -3   86.12    4.82
 -10  -6   3   87.76    4.94
  10   6  -4    3.33    1.57
 -10  -6   4    0.64    1.39
  10   6  -4    2.73    0.66
 -10  -6   4    0.85    0.67
  10   6  -5  128.10   15.66
 -10  -6   5  131.60   16.05
  10   6  -5  124.80    6.89
 -10  -6   5  130.40    7.20
  10   6  -6   61.43    7.74
  10   6  -6   55.81    3.24
 -10  -6   6   57.42    3.35
  10   6  -7  180.30   21.93
  10   6  -7  201.50   10.99
 -10  -6   7  208.40   11.35
  10   6  -8   36.11    4.80
  10   6  -8   37.97    2.34
 -10  -6   8   40.90    2.49
  10   6  -9   20.10    3.05
  10   6  -9   13.22    1.10
 -10  -6   9   12.92    1.10
  10   6 -10   21.08    3.18
  10   6 -10   28.44    1.85
 -10  -6  10   28.41    1.86
  10   6 -11  133.30   16.27
  10   6 -11  123.00    6.77
 -10  -6  11  124.00    6.86
  10   6 -12    8.42    2.03
  10   6 -12   10.43    0.98
 -10  -6  12   10.52    1.06
  10   6 -13   81.45   10.09
  10   6 -13   77.35    4.39
 -10  -6  13   71.19    4.07
  10   6 -14   14.70    2.50
  10   6 -14   13.46    1.10
 -10  -6  14   14.67    1.18
  10   6 -15   33.84    4.50
  10   6 -15   19.99    1.41
 -10  -6  15   21.16    1.50
  10   6 -16    0.15    1.50
  10   6 -16    0.21    0.63
 -10  -6  16   -0.02    0.64
  10   6 -17   26.45    3.63
  10   6 -17   22.22    1.51
  10   6 -18    0.74    1.73
  10   6 -18    0.94    0.65
  10   6 -19   20.48    3.07
  10   6 -19   16.57    1.23
  10   6 -19   15.02    1.12
  10   6 -20    2.26    1.70
  10   6 -20    0.33    0.83
  10   6 -20   -0.27    0.70
  10   6 -21    4.06    1.44
  10   6 -21    2.96    0.86
  10   6 -21    4.13    0.80
 -11  -7 -12    2.28    1.85
 -11  -7 -11    6.00    1.72
 -11  -7 -10    2.63    1.60
 -11  -7  -9    6.93    1.74
 -11  -7  -8   20.06    3.07
  11   7   8   15.28    1.06
 -11  -7  -8   15.56    1.00
 -11  -7  -7   48.83    6.18
  11   7   7   47.48    2.71
 -11  -7  -7   44.66    2.55
 -11  -7  -6   25.80    3.52
  11   7   6   29.25    1.79
 -11  -7  -6   29.26    1.75
 -11  -7  -5   17.46    2.72
  11   7   5   18.51    1.30
 -11  -7  -5   17.22    1.17
 -11  -7  -4    4.25    1.58
  11   7   4    5.01    0.75
 -11  -7  -4    6.01    0.81
 -11  -7  -3    1.87    1.42
  11   7   3    2.90    0.73
 -11  -7  -3    1.79    0.66
 -11  -7  -2    1.54    1.44
  11   7   2    1.89    0.66
 -11  -7  -2    1.95    0.68
  11   7   1   63.00    7.85
 -11  -7  -1   65.02    8.10
  11   7   1   50.88    2.95
 -11  -7  -1   48.66    2.85
  11   7   0   13.85    2.10
 -11  -7   0   16.10    2.65
  11   7   0   14.26    1.08
 -11  -7   0   14.79    1.15
  11   7  -1  183.70   22.28
 -11  -7   1  181.00   21.94
  11   7  -1  163.20    8.92
 -11  -7   1  161.70    8.84
  11   7  -2   14.20    2.31
 -11  -7   2   16.33    2.48
  11   7  -2   12.48    1.05
 -11  -7   2   10.90    1.00
  11   7  -3  432.00   52.13
 -11  -7   3  384.90   46.46
  11   7  -3  318.40   17.24
 -11  -7   3  391.00   21.09
  11   7  -4    3.70    1.52
 -11  -7   4    0.28    1.25
  11   7  -4    1.72    0.74
 -11  -7   4    1.83    0.71
  11   7  -5   73.85    9.21
 -11  -7   5   67.90    8.40
  11   7  -5   55.61    3.27
 -11  -7   5   55.45    3.27
  11   7  -6   -0.56    1.62
  11   7  -6   -0.73    0.62
 -11  -7   6    1.36    0.72
  11   7  -7   65.03    8.16
  11   7  -7   53.42    3.11
 -11  -7   7   58.27    3.38
  11   7  -8    7.08    1.78
  11   7  -8    4.91    0.81
 -11  -7   8    4.80    0.80
  11   7  -9  155.80   18.98
  11   7  -9  162.40    8.90
 -11  -7   9  158.10    8.68
  11   7 -10   33.64    4.58
  11   7 -10   24.67    1.65
 -11  -7  10   21.56    1.52
  11   7 -11    3.93    1.79
  11   7 -11    6.64    0.94
 -11  -7  11    5.61    0.89
  11   7 -12    8.43    2.12
  11   7 -12    9.00    0.92
 -11  -7  12    9.52    1.02
  11   7 -13   22.96    3.42
  11   7 -13   17.79    1.33
 -11  -7  13   16.02    1.27
  11   7 -14   -0.22    1.68
  11   7 -14    0.32    0.77
 -11  -7  14    1.10    0.73
  11   7 -15   45.80    6.00
  11   7 -15   50.04    2.90
 -11  -7  15   48.31    2.86
  11   7 -16   10.26    2.36
  11   7 -16    6.59    0.90
 -11  -7  16    6.32    0.81
  11   7 -17    5.43    2.00
  11   7 -17    7.49    0.84
 -11  -7  17    8.04    0.87
  11   7 -18    3.30    1.65
  11   7 -18    2.52    0.73
  11   7 -19    0.30    1.65
  11   7 -19    0.36    0.65
  11   7 -20    2.24    1.73
  11   7 -20    1.24    0.67
  11   7 -20    2.80    0.78
  11   7 -21    8.12    1.76
  11   7 -21    7.05    1.00
  11   7 -21    6.02    0.87
 -12  -8 -10    1.73    1.64
 -12  -8  -9    6.54    1.98
 -12  -8  -8   -1.21    1.55
  12   8   8    0.09    0.63
 -12  -8  -8    0.44    0.57
 -12  -8  -7    4.16    1.77
  12   8   7    4.33    0.78
 -12  -8  -7    3.51    0.67
 -12  -8  -6   61.09    7.69
  12   8   6   45.04    2.62
 -12  -8  -6   43.65    2.52
 -12  -8  -5    0.83    1.45
  12   8   5   -0.15    0.64
 -12  -8  -5    1.64    0.61
 -12  -8  -4   44.96    5.72
  12   8   4   42.70    2.52
 -12  -8  -4   42.28    2.48
 -12  -8  -3   41.87    5.37
  12   8   3   44.85    2.64
 -12  -8  -3   43.26    2.54
 -12  -8  -2   13.01    2.23
  12   8   2    9.03    0.98
 -12  -8  -2   11.05    0.94
 -12  -8  -1   87.23   10.75
  12   8   1   92.34    5.15
 -12  -8  -1   91.97    5.12
  12   8   0   44.70    5.62
 -12  -8   0   46.74    5.98
  12   8   0   38.13    2.31
 -12  -8   0   35.31    2.17
  12   8  -1   19.68    2.78
 -12  -8   1   16.40    2.58
  12   8  -1   24.38    1.59
 -12  -8   1   25.42    1.66
  12   8  -2   73.39    9.10
 -12  -8   2   72.18    8.94
  12   8  -2   58.65    3.38
 -12  -8   2   64.11    3.67
  12   8  -3    1.62    1.62
 -12  -8   3    1.95    1.69
  12   8  -3    0.62    0.64
 -12  -8   3    0.72    0.67
  12   8  -4  127.90   15.64
 -12  -8   4  137.90   16.84
  12   8  -4  119.40    6.61
 -12  -8   4  115.80    6.41
  12   8  -5  187.90   22.85
  12   8  -5  183.50   10.02
 -12  -8   5  210.70   11.50
  12   8  -6   76.46    9.58
  12   8  -6   55.21    3.22
 -12  -8   6   58.86    3.42
  12   8  -7    0.91    1.77
  12   8  -7   -0.81    0.67
 -12  -8   7    0.84    0.73
  12   8  -8   46.10    6.07
  12   8  -8   40.05    2.43
 -12  -8   8   41.02    2.49
  12   8  -9    9.60    2.33
  12   8  -9    7.63    0.96
 -12  -8   9    9.81    0.97
  12   8 -10  116.60   14.34
  12   8 -10  111.80    6.22
 -12  -8  10  116.50    6.46
  12   8 -11   -2.41    1.83
  12   8 -11    1.85    0.68
 -12  -8  11    2.68    0.78
  12   8 -12    3.28    1.83
  12   8 -12    0.58    0.75
 -12  -8  12    0.70    0.80
  12   8 -13    5.66    1.93
  12   8 -13    6.97    0.83
 -12  -8  13    4.26    0.84
  12   8 -14   16.91    2.79
  12   8 -14   12.90    1.15
 -12  -8  14   13.47    1.11
  12   8 -15    3.65    1.78
  12   8 -15    5.82    0.79
 -12  -8  15    5.56    0.81
  12   8 -16   28.26    3.99
  12   8 -16   29.04    1.83
 -12  -8  16   29.73    1.91
  12   8 -17    3.45    1.88
  12   8 -17    4.08    0.74
 -12  -8  17    5.18    0.86
  12   8 -18    0.35    1.72
  12   8 -18    2.04    0.67
  12   8 -19    0.14    1.49
  12   8 -19    2.05    0.73
  12   8 -20    6.98    1.96
  12   8 -20    4.25    0.81
  12   8 -21    0.91    1.35
  12   8 -21   -0.28    0.77
  12   8 -21    0.16    0.73
 -13  -9  -9   -1.36    1.74
 -13  -9  -8   13.46    2.56
  13   9   8   12.16    1.09
 -13  -9  -8   13.82    1.09
 -13  -9  -7    3.73    1.86
  13   9   7   -1.19    0.82
 -13  -9  -7    0.78    0.89
 -13  -9  -6   30.18    4.14
  13   9   6   33.37    2.09
 -13  -9  -6   33.58    2.04
 -13  -9  -5    0.01    1.65
  13   9   5    0.82    0.77
 -13  -9  -5    0.88    0.69
 -13  -9  -4    4.45    1.69
  13   9   4    3.16    0.81
 -13  -9  -4    3.58    0.71
 -13  -9  -3   -0.47    1.52
  13   9   3   -0.14    0.63
 -13  -9  -3    0.48    0.62
 -13  -9  -2   38.89    5.15
  13   9   2   32.69    2.02
 -13  -9  -2   34.30    2.13
 -13  -9  -1    6.88    1.86
  13   9   1    6.12    0.82
 -13  -9  -1    5.29    0.79
  13   9   0   49.54    6.25
 -13  -9   0   55.32    7.03
  13   9   0   58.42    3.36
 -13  -9   0   54.31    3.12
  13   9  -1    7.74    1.70
 -13  -9   1    7.77    1.91
  13   9  -1    6.99    0.78
 -13  -9   1    7.31    0.88
  13   9  -2   21.37    3.12
 -13  -9   2   16.12    2.66
  13   9  -2   24.18    1.59
 -13  -9   2   23.91    1.61
  13   9  -3    1.95    1.61
 -13  -9   3    1.62    1.62
  13   9  -3    4.88    0.83
 -13  -9   3    6.05    0.76
  13   9  -4   75.36    9.32
 -13  -9   4   73.90    9.20
  13   9  -4   67.11    3.84
 -13  -9   4   73.44    4.20
  13   9  -5    7.26    1.87
  13   9  -5    5.12    0.76
 -13  -9   5    5.22    0.82
  13   9  -6   58.30    7.37
  13   9  -6   63.50    3.64
 -13  -9   6   62.88    3.62
  13   9  -7    7.00    2.03
  13   9  -7    5.98    0.81
 -13  -9   7    5.10    0.81
  13   9  -8   -0.49    1.72
  13   9  -8    1.77    0.75
 -13  -9   8    3.42    0.71
  13   9  -9   -1.40    1.77
  13   9  -9    0.89    0.62
 -13  -9   9   -0.24    0.70
  13   9 -10   19.06    3.17
  13   9 -10   18.55    1.39
 -13  -9  10   15.86    1.22
  13   9 -11   17.98    2.99
  13   9 -11   17.38    1.32
 -13  -9  11   18.55    1.36
  13   9 -12   21.59    3.31
  13   9 -12   24.71    1.64
 -13  -9  12   24.34    1.68
  13   9 -13    3.99    1.97
  13   9 -13    3.06    0.75
 -13  -9  13    2.41    0.79
  13   9 -14    3.48    1.66
  13   9 -14    6.63    0.82
 -13  -9  14    7.97    0.93
  13   9 -15    2.24    1.81
  13   9 -15    5.84    0.79
 -13  -9  15    4.27    0.75
  13   9 -16    0.42    1.75
  13   9 -16    0.70    0.62
 -13  -9  16    1.20    0.72
  13   9 -17    1.82    1.85
  13   9 -17    1.62    0.68
 -13  -9  17    0.65    0.72
  13   9 -18   27.06    3.89
  13   9 -18   23.43    1.55
 -13  -9  18   22.71    1.56
  13   9 -19    1.85    1.78
  13   9 -19    2.10    0.68
  13   9 -20    6.14    1.78
  13   9 -20    7.85    0.92
 -14 -10  -7    6.48    2.07
  14  10   7    5.18    0.98
 -14 -10  -7    6.14    1.21
 -14 -10  -6    2.63    1.97
  14  10   6    1.05    0.95
 -14 -10  -6    0.16    0.91
 -14 -10  -5    4.24    2.17
  14  10   5    3.65    0.91
 -14 -10  -5    1.69    0.81
 -14 -10  -4   33.36    4.60
  14  10   4   35.62    2.22
 -14 -10  -4   38.22    2.32
 -14 -10  -3   24.70    3.49
  14  10   3   20.55    1.46
 -14 -10  -3   21.05    1.48
 -14 -10  -2    3.16    1.64
  14  10   2    6.69    0.89
 -14 -10  -2    5.88    0.79
 -14 -10  -1    8.06    2.08
  14  10   1    7.64    0.84
 -14 -10  -1    7.82    0.88
 -14 -10   0    3.93    1.91
  14  10   0    4.31    0.73
 -14 -10   0    5.56    0.84
  14  10  -1   -0.12    1.36
 -14 -10   1    0.19    1.84
  14  10  -1   -0.11    0.62
 -14 -10   1    1.58    0.74
  14  10  -2   36.23    4.70
 -14 -10   2   34.99    4.71
  14  10  -2   37.35    2.25
 -14 -10   2   41.18    2.46
  14  10  -3   29.11    3.89
 -14 -10   3   29.97    4.14
  14  10  -3   20.84    1.44
 -14 -10   3   20.60    1.47
  14  10  -4    5.27    1.77
 -14 -10   4    4.97    1.78
  14  10  -4    1.53    0.65
 -14 -10   4    2.30    0.77
  14  10  -5   22.80    3.35
  14  10  -5   18.95    1.36
 -14 -10   5   15.71    1.26
  14  10  -6    2.56    1.87
  14  10  -6    3.03    0.70
 -14 -10   6    2.16    0.64
  14  10  -7   15.61    2.98
  14  10  -7   15.16    1.20
 -14 -10   7   14.11    1.12
  14  10  -8   12.20    2.65
  14  10  -8   12.68    1.02
 -14 -10   8   13.36    1.08
  14  10  -9   10.75    2.53
  14  10  -9   11.00    1.02
 -14 -10   9    9.49    0.95
  14  10 -10    3.62    2.15
  14  10 -10    3.69    0.72
 -14 -10  10    3.43    0.69
  14  10 -11   50.55    6.68
  14  10 -11   37.85    2.32
 -14 -10  11   38.97    2.35
  14  10 -12   10.44    2.72
  14  10 -12    5.97    0.77
 -14 -10  12    5.07    0.81
  14  10 -13   20.39    3.30
  14  10 -13   17.68    1.25
 -14 -10  13   18.79    1.37
  14  10 -14    5.23    2.00
  14  10 -14    3.88    0.72
 -14 -10  14    3.87    0.74
  14  10 -15    0.28    1.93
  14  10 -15    1.93    0.67
 -14 -10  15    1.46    0.66
  14  10 -16    7.17    2.24
  14  10 -16    6.40    0.74
 -14 -10  16    7.06    0.86
  14  10 -17    0.90    2.08
  14  10 -17    1.24    0.70
 -14 -10  17    1.70    0.76
  14  10 -18    3.51    2.03
  14  10 -18    4.07    0.68
 -14 -10  18    4.18    0.82
  14  10 -19    8.61    2.17
  14  10 -19    8.38    0.82
 -14 -10  19    7.53    0.83
 -15 -11  -6   -0.92    1.29
 -15 -11  -5   13.81    2.88
  15  11   5   12.57    1.23
 -15 -11  -5   15.30    1.36
 -15 -11  -4    1.70    2.24
  15  11   4    0.83    0.84
 -15 -11  -4    0.40    0.86
 -15 -11  -3   38.26    5.27
  15  11   3   35.42    2.18
 -15 -11  -3   33.90    2.11
 -15 -11  -2    5.61    2.34
  15  11   2    5.10    0.85
 -15 -11  -2    4.30    0.81
 -15 -11  -1    1.78    2.09
  15  11   1    0.64    0.80
 -15 -11  -1    0.73    0.70
 -15 -11   0    2.89    2.16
  15  11   0    2.03    0.73
 -15 -11   0    1.36    0.70
 -15 -11   1   48.78    6.35
  15  11  -1   40.45    2.43
 -15 -11   1   42.59    2.53
  15  11  -2    2.50    1.64
 -15 -11   2    6.82    2.11
  15  11  -2    3.94    0.78
 -15 -11   2    5.98    0.80
  15  11  -3   43.98    5.68
 -15 -11   3   44.04    5.73
  15  11  -3   49.45    2.89
 -15 -11   3   53.86    3.12
  15  11  -4    1.64    1.75
  15  11  -4    1.02    0.63
 -15 -11   4    1.59    0.64
  15  11  -5   -1.57    1.88
  15  11  -5    0.44    0.66
 -15 -11   5    0.79    0.70
  15  11  -6   14.48    2.69
  15  11  -6   11.84    1.01
 -15 -11   6   10.59    0.91
  15  11  -7    1.67    1.98
  15  11  -7    2.95    0.62
 -15 -11   7    1.25    0.62
  15  11  -8    1.12    2.28
  15  11  -8   -0.47    0.65
 -15 -11   8    0.28    0.60
  15  11  -9   74.32    9.38
  15  11  -9   67.15    3.80
 -15 -11   9   71.85    4.05
  15  11 -10   -2.47    2.30
  15  11 -10    0.86    0.64
 -15 -11  10    0.13    0.59
  15  11 -11    0.40    2.10
  15  11 -11    2.88    0.65
 -15 -11  11    2.50    0.71
  15  11 -12   -1.70    2.23
  15  11 -12    0.11    0.65
 -15 -11  12   -0.23    0.73
  15  11 -13    0.11    2.17
  15  11 -13    0.00    0.59
 -15 -11  13    0.67    0.73
  15  11 -14    1.36    1.86
  15  11 -14    2.16    0.75
 -15 -11  14    1.59    0.75
  15  11 -15   29.58    4.27
  15  11 -15   26.01    1.66
 -15 -11  15   24.40    1.60
  15  11 -16   -3.19    1.97
  15  11 -16   -1.05    0.61
 -15 -11  16    0.07    0.73
  15  11 -17    3.11    1.69
  15  11 -17    1.23    0.55
 -15 -11  17    2.97    0.76
  15  11 -18   -0.73    1.86
  15  11 -18   -0.59    0.60
 -15 -11  18    0.88    0.75
  15  11 -19    1.59    0.63
 -15 -11  19    2.17    0.74
 -16 -12  -3    1.99    2.91
  16  12   3    1.52    0.91
 -16 -12  -3    2.62    0.87
 -16 -12  -2   -0.42    2.64
  16  12   2    3.35    0.83
 -16 -12  -2    2.15    0.87
 -16 -12  -1    2.77    2.83
  16  12   1    2.56    0.88
 -16 -12  -1    4.14    0.85
 -16 -12   0    4.10    2.61
  16  12   0    0.16    0.68
 -16 -12   0    0.95    0.70
 -16 -12   1    2.97    2.35
  16  12  -1    4.92    0.84
 -16 -12   1    6.11    0.82
 -16 -12   2   14.45    2.87
  16  12  -2   13.13    1.08
 -16 -12   2   15.16    1.16
  16  12  -3   -0.36    1.62
  16  12  -3    0.59    0.64
 -16 -12   3   -0.65    0.66
  16  12  -4   14.32    2.60
  16  12  -4   14.56    1.12
 -16 -12   4   16.12    1.22
  16  12  -5   21.64    3.36
  16  12  -5   23.95    1.56
 -16 -12   5   25.52    1.68
  16  12  -6   -0.52    2.03
  16  12  -6    1.76    0.58
 -16 -12   6    1.76    0.63
  16  12  -7    0.45    2.25
  16  12  -7    2.16    0.70
 -16 -12   7    1.23    0.63
  16  12  -8    5.76    2.52
  16  12  -8    2.74    0.72
 -16 -12   8    4.98    0.75
  16  12  -9    1.87    2.27
  16  12  -9    4.53    0.74
 -16 -12   9    1.96    0.70
  16  12 -10    4.71    2.35
  16  12 -10    8.43    0.86
 -16 -12  10    6.32    0.76
  16  12 -11    1.44    2.36
  16  12 -11    3.43    0.72
 -16 -12  11    2.74    0.65
  16  12 -12   -0.65    2.50
  16  12 -12    0.26    0.64
 -16 -12  12   -1.17    0.70
  16  12 -13    4.11    2.37
  16  12 -13   10.66    0.99
 -16 -12  13   13.38    1.11
  16  12 -14    4.32    2.58
  16  12 -14    0.63    0.71
 -16 -12  14    1.03    0.73
  16  12 -15    1.50    2.51
  16  12 -15    6.93    0.81
 -16 -12  15    4.77    0.78
  16  12 -16    7.37    2.33
  16  12 -16    4.95    0.69
 -16 -12  16    4.64    0.79
  16  12 -17    1.39    2.11
  16  12 -17    1.06    0.64
 -16 -12  17    0.54    0.64
 -17 -13  -1    1.39    2.72
  17  13   1    0.82    0.76
 -17 -13  -1    0.53    0.87
 -17 -13   0    9.03    2.84
  17  13   0   10.61    1.15
 -17 -13   0   12.43    1.13
  17  13  -1   -0.19    0.76
 -17 -13   1    1.36    0.76
  17  13  -2    1.78    0.71
 -17 -13   2    2.45    0.79
  17  13  -3    0.24    0.68
 -17 -13   3    0.40    0.76
  17  13  -4    4.80    2.00
  17  13  -4    3.75    0.82
 -17 -13   4    4.23    0.69
  17  13  -5   -1.38    2.05
  17  13  -5    0.15    0.67
 -17 -13   5    0.58    0.72
  17  13  -6   24.99    3.83
  17  13  -6   24.12    1.57
 -17 -13   6   24.78    1.61
  17  13  -7    2.75    2.51
  17  13  -7    0.01    0.64
 -17 -13   7   -0.35    0.56
  17  13  -8   12.94    3.13
  17  13  -8   10.90    0.94
 -17 -13   8   10.36    0.95
  17  13  -9   -0.39    2.46
  17  13  -9    0.97    0.70
 -17 -13   9    1.73    0.64
  17  13 -10    3.54    2.66
  17  13 -10    1.42    0.63
 -17 -13  10    1.66    0.64
  17  13 -11    1.78    2.47
  17  13 -11    0.92    0.67
 -17 -13  11    0.84    0.69
  17  13 -12   11.04    3.07
  17  13 -12   10.88    0.99
 -17 -13  12    8.72    0.87
  17  13 -13   -0.93    2.49
  17  13 -13    0.13    0.63
 -17 -13  13    0.10    0.67
  17  13 -14    6.70    2.41
  17  13 -14    8.59    0.86
 -17 -13  14   10.38    0.95
  17  13 -15    2.81    2.35
  17  13 -15    0.38    0.61
 -17 -13  15    2.21    0.67
  18  14  -3   -0.39    0.74
 -18 -14   3    0.79    0.73
  18  14  -4    9.52    0.99
 -18 -14   4    9.43    0.91
  18  14  -5    2.89    0.79
 -18 -14   5    1.63    0.63
  18  14  -6    0.73    2.11
  18  14  -6   -0.56    0.70
 -18 -14   6    0.60    0.60
  18  14  -7    4.08    2.28
  18  14  -7    5.51    0.76
 -18 -14   7    4.66    0.79
  18  14  -8    0.37    2.43
  18  14  -8    3.46    0.72
 -18 -14   8    3.37    0.66
  18  14  -9    2.51    2.68
  18  14  -9    1.48    0.68
 -18 -14   9    1.58    0.68
  18  14 -10    9.30    2.90
  18  14 -10   15.39    1.16
 -18 -14  10   16.14    1.19
  18  14 -11    0.96    2.82
  18  14 -11   -0.21    0.69
 -18 -14  11    0.86    0.68
  18  14 -12   -3.04    2.87
  18  14 -12    0.87    0.67
 -18 -14  12    1.33    0.69
  18  14 -13    1.52    2.74
  18  14 -13    3.22    0.75
 -18 -14  13    3.09    0.76
 -13 -19   9    2.75    0.78
  13  19  -9    4.40    0.78
 -13 -19   8    0.30    0.68
  13  19  -8   -0.75    0.67
 -13 -19   7    4.38    0.69
  13  19  -7    5.11    0.71
 -13 -19   6    0.81    0.63
  13  19  -6   -0.13    0.69
 -13 -19   5   -0.29    0.65
  13  19  -5   -0.11    0.62
 -13 -19   4    6.17    0.82
  13  19  -4    6.17    0.78
 -13 -19   3    7.90    0.90
  13  19  -3    8.51    0.88
 -13 -19   2    0.17    0.77
  13  19  -2    0.30    0.68
  12  18 -13   -2.82    3.12
  12  18 -13    0.50    2.36
 -12 -18  13    0.58    0.77
  12  18 -13   -0.04    0.65
  12  18 -12   -0.32    2.35
  12  18 -12   -0.16    2.15
 -12 -18  12    0.12    0.69
  12  18 -12    1.46    0.71
  12  18 -11    3.95    2.12
  12  18 -11    6.40    1.99
 -12 -18  11    2.64    0.72
  12  18 -11    3.72    0.68
 -12 -18  10   14.01    1.17
  12  18 -10   14.78    1.11
 -12 -18   9    1.20    0.66
  12  18  -9   -0.58    0.69
 -12 -18   8    5.88    0.83
  12  18  -8    5.76    0.79
 -12 -18   7    5.17    0.79
  12  18  -7    4.30    0.74
 -12 -18   6   18.02    1.26
  12  18  -6   17.40    1.24
 -12 -18   5    1.19    0.67
  12  18  -5   -0.63    0.63
 -12 -18   4   23.67    1.56
  12  18  -4   24.81    1.60
 -12 -18   3    0.99    0.60
  12  18  -3    0.28    0.70
 -12 -18   2    7.59    0.87
  12  18  -2    7.84    0.91
 -12 -18   1    0.37    0.65
  12  18  -1   -0.68    0.65
 -12 -18   0    3.97    0.84
  12  18   0    4.81    0.76
 -12 -18  -1    0.82    0.83
  12  18   1    1.68    0.79
 -12 -18  -2    4.02    0.92
  12  18   2    3.67    0.81
  11  17 -15    0.28    2.54
  11  17 -15    1.62    1.90
  11  17 -15    2.17    0.68
  11  17 -14    0.41    2.30
  11  17 -14    3.48    1.89
 -11 -17  14    3.16    0.68
  11  17 -14    3.82    0.71
  11  17 -13    2.25    2.16
  11  17 -13    1.41    1.50
 -11 -17  13    0.15    0.71
  11  17 -13    0.66    0.64
  11  17 -12   18.07    3.24
  11  17 -12   17.83    2.79
 -11 -17  12   19.60    1.37
  11  17 -12   21.36    1.42
  11  17 -11   -3.13    2.47
  11  17 -11   -0.08    1.62
 -11 -17  11   -0.09    0.68
  11  17 -11    0.15    0.65
  11  17 -10   17.35    2.95
  11  17 -10   15.34    2.43
 -11 -17  10   14.69    1.16
  11  17 -10   15.78    1.16
  11  17  -9    0.78    1.55
  11  17  -9   -0.03    1.33
 -11 -17   9    1.97    0.73
  11  17  -9    2.00    0.68
 -11 -17   8    1.56    0.67
  11  17  -8    1.73    0.72
 -11 -17   7    1.37    0.72
  11  17  -7    1.80    0.63
 -11 -17   6   20.79    1.39
  11  17  -6   15.31    1.19
 -11 -17   5   -0.36    0.67
  11  17  -5    0.89    0.65
 -11 -17   4   21.91    1.50
  11  17  -4   25.18    1.68
 -11 -17   3   14.25    1.17
  11  17  -3   14.70    1.17
 -11 -17   2    5.35    0.80
  11  17  -2    6.27    0.82
 -11 -17   1   -0.01    0.61
  11  17  -1    0.08    0.63
 -11 -17   0    5.63    0.85
  11  17   0    5.46    0.78
 -11 -17  -1    1.05    0.74
  11  17   1    0.41    0.70
 -11 -17  -2    9.30    1.00
  11  17   2    8.08    0.92
 -11 -17  -3    3.51    0.83
  11  17   3    3.52    0.78
 -11 -17  -4    3.38    0.89
  11  17   4    4.33    0.89
 -11 -17  -5    1.86    0.98
  11  17   5    2.60    0.97
  10  16 -16    4.10    1.78
  10  16 -16    3.53    1.58
 -10 -16  16    3.68    0.72
  10  16 -16    3.98    0.83
  10  16 -15    9.22    2.27
 -10 -16  15    7.71    0.94
  10  16 -15    8.53    0.82
  10  16 -14    5.86    2.17
 -10 -16  14    5.49    0.82
  10  16 -14    7.24    0.84
  10  16 -13    3.88    2.01
 -10 -16  13    6.97    0.79
  10  16 -13    7.31    0.83
  10  16 -12    2.99    2.02
 -10 -16  12   -0.36    0.67
  10  16 -12    0.04    0.60
  10  16 -11   27.98    3.92
 -10 -16  11   29.28    1.86
  10  16 -11   26.71    1.72
  10  16 -10    2.99    1.30
  10  16 -10    2.08    1.83
 -10 -16  10    2.93    0.73
  10  16 -10    1.73    0.66
  10  16  -9   -0.42    1.92
  10  16  -9    2.11    1.24
 -10 -16   9    0.14    0.69
  10  16  -9   -0.21    0.59
  10  16  -8   37.33    4.82
  10  16  -8   40.68    5.11
 -10 -16   8   32.49    2.04
  10  16  -8   28.64    1.84
 -10 -16   7   12.94    1.10
  10  16  -7   14.03    1.10
 -10 -16   6    1.36    0.63
  10  16  -6    1.18    0.70
 -10 -16   5   29.02    1.85
  10  16  -5   26.42    1.70
 -10 -16   4    0.42    0.61
  10  16  -4    0.95    0.70
 -10 -16   3    9.74    0.98
  10  16  -3    7.98    0.88
 -10 -16   2    5.97    0.83
  10  16  -2    6.86    0.83
 -10 -16   1    9.84    1.01
  10  16  -1    8.87    0.96
 -10 -16   0    1.21    0.71
  10  16   0    0.64    0.67
 -10 -16  -1   13.28    1.08
  10  16   1   12.81    1.06
 -10 -16  -2    0.72    0.68
  10  16   2    0.28    0.74
 -10 -16  -3   25.29    1.67
  10  16   3   23.75    1.60
 -10 -16  -4    1.75    0.67
  10  16   4    0.32    0.69
 -10 -16  -5    1.08    0.79
  10  16   5   -0.51    0.67
 -10 -16  -6    2.64    0.93
  10  16   6    4.21    0.98
 -10 -16  -7    2.11    1.01
  10  16   7    1.87    0.90
   9  15 -17    1.08    1.41
  -9 -15  17   -0.09    0.75
   9  15 -17    0.44    0.64
   9  15 -16   -0.85    1.59
  -9 -15  16   -0.36    0.72
   9  15 -16    0.09    0.70
   9  15 -15   24.23    3.45
  -9 -15  15   26.55    1.74
   9  15 -15   26.26    1.66
   9  15 -14    1.98    1.64
  -9 -15  14    0.39    0.70
   9  15 -14    1.34    0.69
   9  15 -13   22.91    3.34
  -9 -15  13   16.03    1.21
   9  15 -13   16.74    1.20
   9  15 -12   -0.90    1.64
  -9 -15  12    1.63    0.70
   9  15 -12    1.69    0.69
   9  15 -11   -0.24    1.68
  -9 -15  11    0.60    0.75
   9  15 -11    1.06    0.57
   9  15 -10    4.32    1.74
  -9 -15  10    4.07    0.83
   9  15 -10    4.23    0.74
   9  15  -9   97.96   12.01
  -9 -15   9   88.02    4.92
   9  15  -9   89.10    4.99
   9  15  -8    8.53    1.97
   9  15  -8    8.19    1.45
  -9 -15   8   10.79    0.97
   9  15  -8   10.47    0.93
   9  15  -7   84.02   10.28
   9  15  -7   77.05    9.39
  -9 -15   7   71.01    4.03
   9  15  -7   69.29    3.94
  -9 -15   6    5.14    0.79
   9  15  -6    5.42    0.83
  -9 -15   5   -0.56    0.74
   9  15  -5    1.10    0.74
  -9 -15   4    9.13    0.97
   9  15  -4   10.66    1.02
  -9 -15   3   30.07    1.93
   9  15  -3   29.69    1.91
  -9 -15   2    3.70    0.80
   9  15  -2    3.22    0.67
  -9 -15   1   66.53    3.82
   9  15  -1   65.17    3.73
  -9 -15   0    3.29    0.82
   9  15   0    3.86    0.73
  -9 -15  -1   21.28    1.51
   9  15   1   18.09    1.31
  -9 -15  -2    9.62    0.97
   9  15   2    6.80    0.90
  -9 -15  -3   14.44    1.17
   9  15   3   17.17    1.29
  -9 -15  -4    1.70    0.74
   9  15   4    1.18    0.69
  -9 -15  -5   35.61    2.22
   9  15   5   36.99    2.24
  -9 -15  -6    0.00    0.88
   9  15   6    0.19    0.72
  -9 -15  -7   20.53    1.50
   9  15   7   20.04    1.45
  -9 -15  -8    0.73    0.94
   9  15   8    1.20    0.86
  -9 -15  -9    0.69    1.62
  -9 -15  -9    1.37    2.13
  -9 -15  -9    3.11    0.98
   9  15   9    2.58    0.90
   8  14 -18   -1.54    1.40
  -8 -14  18    0.49    0.83
   8  14 -18    0.68    0.77
  -8 -14  17    5.09    0.87
   8  14 -17    4.14    0.78
  -8 -14  16   18.25    1.34
   8  14 -16   19.88    1.41
  -8 -14  15    0.83    0.64
   8  14 -15    0.60    0.70
   8  14 -14   25.77    3.64
  -8 -14  14   23.51    1.54
   8  14 -14   21.50    1.48
   8  14 -13    3.47    1.58
  -8 -14  13    1.48    0.70
   8  14 -13    3.07    0.77
   8  14 -12    3.59    1.55
  -8 -14  12    2.41    0.66
   8  14 -12    2.36    0.63
   8  14 -11   20.08    2.97
  -8 -14  11   12.99    1.10
   8  14 -11   14.50    1.16
   8  14 -10   28.83    3.83
  -8 -14  10   33.54    2.10
   8  14 -10   32.99    2.03
   8  14  -9    2.77    1.36
  -8 -14   9    1.77    0.65
   8  14  -9    2.38    0.68
   8  14  -8  103.80   12.67
  -8 -14   8  107.30    5.94
   8  14  -8   99.57    5.57
   8  14  -7   19.94    2.83
  -8 -14   7   19.67    1.47
   8  14  -7   20.91    1.45
   8  14  -6   73.03    8.88
   8  14  -6   80.73    9.85
  -8 -14   6   77.18    4.39
   8  14  -6   76.47    4.34
  -8 -14   5   45.81    2.76
   8  14  -5   49.15    2.92
  -8 -14   4   11.42    1.11
   8  14  -4   12.50    1.10
  -8 -14   3    4.39    0.77
   8  14  -3    2.78    0.74
  -8 -14   2   27.12    1.83
   8  14  -2   25.96    1.74
  -8 -14   1    1.87    0.78
   8  14  -1    1.51    0.71
  -8 -14   0    5.57    0.90
   8  14   0    8.90    0.96
  -8 -14  -1   67.68    3.87
   8  14   1   66.47    3.79
  -8 -14  -2   30.44    1.98
   8  14   2   31.57    2.00
  -8 -14  -3   30.20    1.94
   8  14   3   28.96    1.86
  -8 -14  -4   34.12    2.11
   8  14   4   30.19    1.92
  -8 -14  -5    0.24    0.68
   8  14   5    0.73    0.68
  -8 -14  -6   34.30    2.14
   8  14   6   36.14    2.22
  -8 -14  -7    2.87    1.58
  -8 -14  -7    3.45    1.14
  -8 -14  -7    3.96    0.84
   8  14   7    3.04    0.82
  -8 -14  -8    3.91    1.74
  -8 -14  -8    2.72    0.90
   8  14   8    2.67    0.82
  -8 -14  -9    5.67    2.27
  -8 -14  -9    3.77    0.91
   8  14   9    5.62    0.99
  -8 -14 -10    9.47    2.49
  -8 -14 -10   13.96    1.38
   8  14  10   11.19    1.19
  -8 -14 -11    3.17    2.43
  -8 -14 -11    6.21    1.12
   8  14  11    5.39    1.22
  -7 -13  18    6.71    0.96
   7  13 -18    6.72    0.87
  -7 -13  17    1.30    0.75
   7  13 -17    0.64    0.71
  -7 -13  16   13.31    1.13
   7  13 -16   13.36    1.09
  -7 -13  15    7.29    0.81
   7  13 -15    7.24    0.79
  -7 -13  14   12.03    1.08
   7  13 -14   14.04    1.17
  -7 -13  13    3.12    0.77
   7  13 -13    2.24    0.57
  -7 -13  12   26.28    1.76
   7  13 -12   26.68    1.71
  -7 -13  11    1.32    0.69
   7  13 -11    0.49    0.54
   7  13 -10   41.64    5.34
  -7 -13  10   35.44    2.21
   7  13 -10   34.37    2.20
   7  13  -9    3.44    1.21
  -7 -13   9    3.13    0.79
   7  13  -9    2.75    0.67
   7  13  -8    6.21    1.40
  -7 -13   8    5.71    0.89
   7  13  -8    4.58    0.70
   7  13  -7   15.78    2.30
  -7 -13   7   20.74    1.47
   7  13  -7   20.08    1.43
   7  13  -6   66.22    8.12
  -7 -13   6   61.90    3.58
   7  13  -6   67.91    3.87
   7  13  -5   -0.99    0.69
   7  13  -5   -1.37    0.91
  -7 -13   5    0.01    0.79
   7  13  -5   -0.14    0.65
  -7 -13   4   58.50    3.41
   7  13  -4   57.67    3.37
  -7 -13   3    8.88    1.03
   7  13  -3    9.00    0.96
  -7 -13   2    6.62    0.97
   7  13  -2    7.85    0.89
  -7 -13   1    7.89    0.98
   7  13  -1    8.11    0.92
  -7 -13   0    5.51    0.83
   7  13   0    6.12    0.88
  -7 -13  -1    4.15    0.89
   7  13   1    4.58    0.83
  -7 -13  -2  241.50   13.11
   7  13   2  240.80   13.08
  -7 -13  -3   -0.60    0.73
   7  13   3    0.76    0.69
  -7 -13  -4   27.45    1.78
   7  13   4   26.62    1.74
  -7 -13  -5    0.99    0.78
  -7 -13  -5    0.19    0.62
  -7 -13  -5   -0.52    0.72
   7  13   5    0.73    0.71
  -7 -13  -6    1.88    1.13
  -7 -13  -6    1.95    0.79
   7  13   6    0.67    0.68
  -7 -13  -7    2.34    1.40
  -7 -13  -7    3.67    0.80
   7  13   7    4.07    0.81
  -7 -13  -8   32.95    4.31
  -7 -13  -8   32.58    2.07
   7  13   8   30.05    1.93
  -7 -13  -9    1.45    1.69
  -7 -13  -9    0.00    0.86
   7  13   9    1.64    0.75
  -7 -13 -10   14.56    2.68
  -7 -13 -10   16.03    1.33
   7  13  10   13.91    1.18
  -7 -13 -11   -0.31    1.93
  -7 -13 -11    0.71    0.90
   7  13  11    0.96    0.97
  -7 -13 -12    4.27    2.04
  -7 -13 -12    0.62    0.98
   7  13  12    0.32    0.99
   6  12 -19    1.56    1.22
  -6 -12  19    5.20    1.05
   6  12 -19    4.96    0.88
  -6 -12  18   -0.44    0.81
   6  12 -18    0.53    0.70
  -6 -12  17   10.31    1.05
   6  12 -17   11.19    1.02
  -6 -12  16   11.39    1.06
   6  12 -16   12.13    1.03
  -6 -12  15    0.46    0.71
   6  12 -15    0.25    0.66
  -6 -12  14   12.64    1.07
   6  12 -14   10.20    0.90
  -6 -12  13    8.41    0.90
   6  12 -13    9.33    0.92
  -6 -12  12    3.96    0.78
   6  12 -12    4.70    0.68
  -6 -12  11   26.00    1.75
   6  12 -11   27.37    1.73
  -6 -12  10    0.84    0.69
   6  12 -10   -0.01    0.61
  -6 -12   9    1.28    0.71
   6  12  -9    2.02    0.74
  -6 -12   8   23.40    1.61
   6  12  -8   20.93    1.50
   6  12  -7   21.50    2.92
  -6 -12   7   26.59    1.78
   6  12  -7   23.93    1.61
   6  12  -6    1.50    1.06
  -6 -12   6    1.48    0.81
   6  12  -6    0.94    0.66
   6  12  -5   67.05    8.23
  -6 -12   5   71.69    4.12
   6  12  -5   72.26    4.10
  -6 -12   4    1.26    0.70
   6  12  -4    0.79    0.65
  -6 -12   3   39.40    2.40
   6  12  -3   36.12    2.24
  -6 -12   2   54.07    3.16
   6  12  -2   50.05    2.96
  -6 -12   1   13.95    1.16
   6  12  -1   14.35    1.18
  -6 -12   0   70.72    4.05
   6  12   0   63.49    3.66
  -6 -12  -1  115.40    6.41
   6  12   1  115.80    6.43
  -6 -12  -2    1.03    0.64
   6  12   2    1.34    0.74
  -6 -12  -3   63.88    3.66
   6  12   3   59.15    3.44
  -6 -12  -4   50.15    2.95
   6  12   4   45.93    2.73
  -6 -12  -5    2.04    0.95
  -6 -12  -5   -0.47    0.69
   6  12   5    0.98    0.67
  -6 -12  -6   51.53    6.38
  -6 -12  -6   43.49    2.59
   6  12   6   39.77    2.40
  -6 -12  -7   -0.04    1.06
  -6 -12  -7    0.65    0.68
   6  12   7    1.14    0.66
  -6 -12  -8    2.73    1.25
  -6 -12  -8    2.67    0.71
   6  12   8    1.48    0.66
  -6 -12  -9   66.73    8.24
  -6 -12  -9   61.21    3.50
   6  12   9   67.72    3.84
  -6 -12 -10    1.06    1.33
  -6 -12 -10    0.10    0.77
   6  12  10    1.04    0.74
  -6 -12 -11    2.24    1.61
  -6 -12 -11    2.92    0.90
   6  12  11    3.75    0.89
  -6 -12 -12    4.64    1.86
  -6 -12 -12    5.99    1.01
   6  12  12    3.65    0.97
  -6 -12 -13   -0.66    1.77
  -6 -12 -13    0.65    1.11
   6  12  13    0.42    0.91
   5  11 -19   -0.21    0.98
   5  11 -19   -1.69    0.89
   5  11 -18   -0.07    0.98
  -5 -11  18    0.42    0.85
   5  11 -18    0.58    0.80
  -5 -11  17    1.58    0.82
   5  11 -17    1.60    0.71
  -5 -11  16    1.12    0.77
   5  11 -16    0.64    0.62
  -5 -11  15   60.74    3.48
   5  11 -15   61.47    3.49
  -5 -11  14    3.56    0.75
   5  11 -14    2.24    0.60
  -5 -11  13   22.45    1.54
   5  11 -13   22.28    1.50
  -5 -11  12    0.03    0.68
   5  11 -12    0.14    0.52
  -5 -11  11    6.35    0.89
   5  11 -11    5.43    0.74
  -5 -11  10    9.20    1.03
   5  11 -10    8.87    0.83
  -5 -11   9   88.39    4.97
   5  11  -9   85.81    4.80
  -5 -11   8    3.26    0.77
   5  11  -8    3.53    0.79
  -5 -11   7   77.48    4.39
   5  11  -7   77.38    4.37
  -5 -11   6   10.33    0.99
   5  11  -6   11.52    1.04
   5  11  -5  139.60   16.90
  -5 -11   5  122.80    6.80
   5  11  -5  122.80    6.81
   5  11  -4   20.39    2.64
   5  11  -4   16.94    2.16
  -5 -11   4   12.23    1.09
   5  11  -4   12.93    1.09
   5  11  -3   27.89    3.43
   5  11  -3   27.42    3.39
  -5 -11   3   37.41    2.32
   5  11  -3   38.05    2.35
  -5 -11   2   22.33    1.55
   5  11  -2   24.57    1.64
  -5 -11   1  482.60   26.01
   5  11  -1  463.00   24.94
  -5 -11   0    0.75    0.62
   5  11   0    1.24    0.62
  -5 -11  -1   72.29    4.14
   5  11   1   70.97    4.05
  -5 -11  -2    3.18    0.71
   5  11   2    5.30    0.78
  -5 -11  -3  121.60    6.72
   5  11   3  125.20    6.91
  -5 -11  -4   24.07    3.04
  -5 -11  -4   18.21    1.31
   5  11   4   18.34    1.34
  -5 -11  -5  112.70   13.65
  -5 -11  -5  119.50    6.58
   5  11   5  126.00    6.94
  -5 -11  -6    0.60    0.97
  -5 -11  -6    1.77    0.72
   5  11   6    0.88    0.66
  -5 -11  -7  135.00   16.38
  -5 -11  -7  134.60    7.40
   5  11   7  129.70    7.14
  -5 -11  -8    4.69    1.27
  -5 -11  -8    5.71    0.79
   5  11   8   13.39    1.10
  -5 -11  -9    7.80    1.56
  -5 -11  -9    6.18    0.87
   5  11   9    6.78    0.87
  -5 -11 -10    2.72    1.29
  -5 -11 -10    2.91    0.73
   5  11  10    3.37    0.72
  -5 -11 -11   14.68    2.30
  -5 -11 -11   15.58    1.22
   5  11  11   15.51    1.24
  -5 -11 -12    1.29    1.33
  -5 -11 -12    0.21    0.73
   5  11  12    0.78    0.82
  -5 -11 -13   20.79    3.08
  -5 -11 -13   26.11    1.75
   5  11  13   21.45    1.61
  -5 -11 -14   -0.22    1.59
  -5 -11 -14   -0.49    0.97
   5  11  14    0.31    0.83
  -5 -11 -15    0.96    1.90
  -5 -11 -15    1.80    1.35
   4  10 -19    4.45    1.30
   4  10 -19    3.81    0.86
   4  10 -18   -1.11    1.12
   4  10 -18    1.24    0.81
  -4 -10  17    9.17    1.03
   4  10 -17    9.51    1.00
  -4 -10  16    2.53    0.79
   4  10 -16    1.06    0.63
  -4 -10  15    1.10    0.71
   4  10 -15    0.59    0.64
  -4 -10  14   36.35    2.19
   4  10 -14   34.44    2.09
  -4 -10  13   61.41    3.53
   4  10 -13   56.11    3.23
  -4 -10  12   11.02    1.03
   4  10 -12    9.82    0.89
  -4 -10  11   55.70    3.23
   4  10 -11   54.36    3.15
  -4 -10  10   42.31    2.56
   4  10 -10   41.34    2.51
  -4 -10   9  107.50    5.97
   4  10  -9  107.10    5.91
  -4 -10   8   63.50    3.66
   4  10  -8   65.49    3.73
  -4 -10   7   15.87    1.26
   4  10  -7   16.74    1.32
  -4 -10   6   10.61    0.99
   4  10  -6    9.58    0.95
  -4 -10   5   37.80    2.34
   4  10  -5   39.39    2.42
  -4 -10   4   54.29    3.19
   4  10  -4   55.17    3.24
   4  10  -3  289.20   34.88
   4  10  -3  321.40   38.77
  -4 -10   3  307.40   16.65
   4  10  -3  300.20   16.25
  -4 -10   2   38.78    2.37
   4  10  -2   38.60    2.36
  -4 -10   1   36.31    2.24
   4  10  -1   35.09    2.16
  -4 -10   0  119.10    6.58
   4  10   0  119.20    6.59
  -4 -10  -1   66.17    3.78
   4  10   1   66.30    3.79
  -4 -10  -2   13.36    1.11
   4  10   2   12.47    1.04
  -4 -10  -3  223.90   27.10
  -4 -10  -3  239.90   29.03
  -4 -10  -3  198.90   10.86
   4  10   3  200.10   10.90
  -4 -10  -4  125.30   15.14
  -4 -10  -4  147.60    8.11
   4  10   4  151.00    8.28
  -4 -10  -5    5.38    1.08
  -4 -10  -5    5.22    0.76
   4  10   5    5.38    0.73
  -4 -10  -6   39.78    4.94
  -4 -10  -6   51.47    3.01
   4  10   6   50.77    2.95
  -4 -10  -7   39.56    4.93
  -4 -10  -7   39.52    2.39
   4  10   7   39.86    2.40
  -4 -10  -8   27.29    3.55
  -4 -10  -8   29.29    1.89
   4  10   8   29.67    1.86
  -4 -10  -9    0.59    0.96
  -4 -10  -9    1.04    0.69
   4  10   9    1.00    0.68
  -4 -10 -10    8.13    1.53
  -4 -10 -10    6.28    0.78
   4  10  10    7.33    0.83
  -4 -10 -11   -0.74    1.14
  -4 -10 -11    0.71    0.69
   4  10  11    1.01    0.74
  -4 -10 -12   10.79    1.83
  -4 -10 -12   13.74    1.13
   4  10  12   13.58    1.13
  -4 -10 -13    2.46    1.41
  -4 -10 -13    4.37    0.81
   4  10  13    3.58    0.80
  -4 -10 -14   17.71    2.62
  -4 -10 -14   17.15    1.40
   4  10  14   22.03    1.62
  -4 -10 -15   13.60    2.23
  -4 -10 -15    9.24    1.14
  -4 -10 -16    3.38    1.71
  -4 -10 -16    0.27    1.42
  -4 -10 -16    1.85    0.89
   3   9 -19    0.47    1.11
   3   9 -19    0.76    0.93
   3   9 -19   -0.05    0.84
   3   9 -18   38.34    4.82
   3   9 -18   42.15    2.52
   3   9 -17   -0.39    0.89
   3   9 -17    0.04    0.73
  -3  -9  16   16.66    1.31
   3   9 -16   16.70    1.24
  -3  -9  15    7.60    0.89
   3   9 -15    8.89    0.87
  -3  -9  14    8.12    0.88
   3   9 -14    9.65    0.90
  -3  -9  13   16.04    1.18
   3   9 -13   16.32    1.13
  -3  -9  12    0.53    0.65
   3   9 -12    2.36    0.65
  -3  -9  11   18.31    1.34
   3   9 -11   17.13    1.16
  -3  -9  10  308.00   16.65
   3   9 -10  293.10   15.86
  -3  -9   9    9.55    0.94
   3   9  -9   10.12    0.95
  -3  -9   8   20.86    1.46
   3   9  -8   21.71    1.40
  -3  -9   7    1.19    0.69
   3   9  -7    1.45    0.67
  -3  -9   6  117.20    6.49
   3   9  -6  117.10    6.48
  -3  -9   5   24.12    1.65
   3   9  -5   23.45    1.55
  -3  -9   4  295.80   16.02
   3   9  -4  247.60   13.46
   3   9  -3   19.00    2.42
  -3  -9   3   21.04    1.50
   3   9  -3   22.07    1.50
   3   9  -2  210.60   25.42
   3   9  -2  215.20   25.96
  -3  -9   2  204.70   11.16
   3   9  -2  210.90   11.50
  -3  -9   1   91.20    5.12
   3   9  -1   93.98    5.26
  -3  -9   0   38.15    2.34
   3   9   0   37.55    2.29
  -3  -9  -1   79.98    4.54
   3   9   1   83.51    4.70
  -3  -9  -2  115.00    6.37
   3   9   2  115.50    6.38
  -3  -9  -3    0.11    0.50
  -3  -9  -3    0.23    0.51
  -3  -9  -3    0.04    0.64
   3   9   3    0.44    0.60
  -3  -9  -4  254.50   30.70
  -3  -9  -4  265.60   14.39
   3   9   4  263.30   14.27
  -3  -9  -5    7.20    1.16
  -3  -9  -5    5.13    0.77
   3   9   5    5.04    0.73
  -3  -9  -6    6.73    1.16
  -3  -9  -6    7.02    0.85
   3   9   6    8.38    0.85
  -3  -9  -7    1.71    0.86
  -3  -9  -7    0.32    0.60
   3   9   7    1.20    0.57
  -3  -9  -8  175.60   21.26
  -3  -9  -8  192.30   10.48
   3   9   8  187.70   10.22
  -3  -9  -9    0.57    0.98
  -3  -9  -9    0.41    0.65
   3   9   9    0.30    0.65
  -3  -9 -10    5.59    1.22
  -3  -9 -10    6.37    0.85
   3   9  10    4.28    0.73
  -3  -9 -11   18.55    2.60
  -3  -9 -11   14.68    1.13
   3   9  11   16.73    1.25
  -3  -9 -12   11.60    1.79
  -3  -9 -12   12.42    1.03
   3   9  12    9.72    0.92
  -3  -9 -13   12.24    1.91
  -3  -9 -13   10.63    0.96
   3   9  13   13.17    1.11
  -3  -9 -14    1.38    1.13
  -3  -9 -14    1.38    0.76
  -3  -9 -15   -1.43    1.34
  -3  -9 -15    1.11    0.79
  -3  -9 -15    0.04    0.67
  -3  -9 -16   40.62    5.18
  -3  -9 -17   -1.24    1.68
  -3  -9 -17   -0.58    1.32
  -3  -9 -17   -0.32    0.77
   2   8 -19    1.18    1.11
   2   8 -19    0.15    0.84
   2   8 -19    1.45    1.08
   2   8 -18   14.29    2.19
   2   8 -18    9.53    1.03
   2   8 -18    9.39    0.96
   2   8 -17   11.39    1.77
   2   8 -17   13.59    1.13
   2   8 -17   15.33    1.16
   2   8 -16   -0.04    0.97
   2   8 -16    3.33    0.71
  -2  -8  15    1.21    0.72
   2   8 -15    0.57    0.63
  -2  -8  14    3.36    0.72
   2   8 -14    3.88    0.69
  -2  -8  13    7.84    0.85
   2   8 -13    8.65    0.82
  -2  -8  12   75.92    4.27
   2   8 -12   70.41    4.00
  -2  -8  11   32.75    2.04
   2   8 -11   31.48    1.91
  -2  -8  10    9.78    0.93
   2   8 -10    9.37    0.80
  -2  -8   9   25.10    1.66
   2   8  -9   23.28    1.56
  -2  -8   8  215.50   11.71
   2   8  -8  225.20   12.22
  -2  -8   7    1.74    0.64
   2   8  -7   -0.03    0.59
  -2  -8   6   22.93    1.53
   2   8  -6   23.45    1.55
  -2  -8   5  148.30    8.13
   2   8  -5  144.00    7.88
  -2  -8   4  149.10    8.19
   2   8  -4  124.00    6.83
   2   8  -3  101.70   12.33
  -2  -8   3  120.40    6.65
   2   8  -3  119.20    6.58
   2   8  -2  478.30   57.62
  -2  -8   2  479.40   25.82
   2   8  -2  476.20   25.62
   2   8  -1  234.80   28.36
  -2  -8   1  218.50   11.89
   2   8  -1  214.40   11.64
  -2  -8   0  399.00   21.52
   2   8   0  389.80   21.00
  -2  -8  -1  176.30    9.63
   2   8   1  182.10    9.93
  -2  -8  -2  446.70   24.07
   2   8   2  493.00   26.54
  -2  -8  -3  183.90   22.19
  -2  -8  -3  159.20   19.21
  -2  -8  -3  170.10    9.30
   2   8   3  200.10   10.89
  -2  -8  -4   36.83    2.24
   2   8   4   39.73    2.37
  -2  -8  -5   20.84    1.41
   2   8   5   23.04    1.51
  -2  -8  -6  225.90   12.26
   2   8   6  227.00   12.32
  -2  -8  -7    1.42    0.61
   2   8   7    2.00    0.60
  -2  -8  -8  202.10   10.97
   2   8   8  202.70   11.01
  -2  -8  -9   90.20    5.03
   2   8   9   90.99    5.07
  -2  -8 -10   16.61    1.21
   2   8  10   17.10    1.25
  -2  -8 -11    0.10    0.68
   2   8  11    0.55    0.62
  -2  -8 -12   39.90    2.37
   2   8  12   41.78    2.48
  -2  -8 -13    0.07    0.89
  -2  -8 -13    0.94    0.65
   2   8  13    0.25    0.68
  -2  -8 -14   52.18    6.50
  -2  -8 -14   50.90    2.94
  -2  -8 -15    3.09    1.33
  -2  -8 -15    2.03    0.77
  -2  -8 -15    2.94    0.69
  -2  -8 -16    1.14    1.24
  -2  -8 -16    1.25    0.78
  -2  -8 -16    1.35    0.71
  -2  -8 -17    0.90    1.16
  -2  -8 -17    1.22    1.03
  -2  -8 -17    1.90    0.82
  -2  -8 -18    6.81    1.95
  -2  -8 -18    1.62    0.78
  -2  -8 -18    0.41    1.26
   1   7 -19    2.66    1.04
   1   7 -19    1.89    0.69
   1   7 -18    1.87    1.24
   1   7 -18    0.71    1.01
   1   7 -18    0.32    0.70
   1   7 -17   11.89    1.93
   1   7 -17    5.18    0.76
   1   7 -17    4.77    0.79
   1   7 -16    6.23    1.30
   1   7 -16    4.56    0.74
   1   7 -16    4.89    0.74
   1   7 -15   67.31    8.28
   1   7 -15   81.28    4.52
  -1  -7  14    0.69    0.63
   1   7 -14    1.19    0.60
  -1  -7  13   26.74    1.68
   1   7 -13   25.42    1.63
  -1  -7  12   12.76    1.03
   1   7 -12   12.33    0.93
  -1  -7  11  104.00    5.74
   1   7 -11   98.52    5.44
  -1  -7  10   57.29    3.27
   1   7 -10   52.40    2.98
  -1  -7   9   73.68    4.14
   1   7  -9   74.53    4.19
  -1  -7   8   44.02    2.58
   1   7  -8   44.42    2.58
  -1  -7   7  268.70   14.53
   1   7  -7  267.90   14.46
  -1  -7   6    4.01    0.69
   1   7  -6    3.73    0.69
  -1  -7   5   90.78    5.05
   1   7  -5   88.43    4.92
   1   7  -4   55.79    6.87
  -1  -7   4   48.91    2.85
   1   7  -4   52.61    3.05
   1   7  -3  180.00   21.75
  -1  -7   3  184.20   10.04
   1   7  -3  183.30    9.99
   1   7  -2    1.61    0.76
  -1  -7   2    1.70    0.66
   1   7  -2    2.05    0.64
   1   7  -1  102.80   12.43
  -1  -7   1  100.50    5.58
   1   7  -1  102.70    5.71
   1   7   0   51.64    6.26
  -1  -7   0   59.20    3.41
   1   7   0   60.41    3.46
  -1  -7  -1  276.10   33.74
  -1  -7  -1  349.10   18.86
   1   7   1  332.20   17.94
  -1  -7  -2    8.76    1.21
  -1  -7  -2   10.96    0.98
   1   7   2    9.74    0.95
  -1  -7  -3   55.01    6.70
  -1  -7  -3   48.64    2.84
   1   7   3   59.64    3.43
  -1  -7  -4   17.06    1.24
   1   7   4   16.41    1.19
  -1  -7  -5    5.19    0.72
   1   7   5    5.76    0.73
  -1  -7  -6    2.41    0.67
   1   7   6    2.56    0.63
  -1  -7  -7  425.80   22.93
   1   7   7  433.80   23.35
  -1  -7  -8   33.29    2.00
   1   7   8   35.78    2.15
  -1  -7  -9   54.58    3.12
   1   7   9   56.82    3.26
  -1  -7 -10   20.64    1.40
   1   7  10   21.04    1.43
  -1  -7 -11   27.84    1.76
   1   7  11   26.43    1.71
  -1  -7 -12    2.31    0.68
   1   7  12    3.40    0.68
  -1  -7 -13   20.57    1.42
  -1  -7 -14   12.02    1.00
  -1  -7 -15   20.16    1.40
  -1  -7 -15   22.78    1.50
  -1  -7 -16   13.17    2.08
  -1  -7 -16   10.07    1.02
  -1  -7 -16   10.95    1.00
  -1  -7 -17    3.55    1.35
  -1  -7 -17    2.33    0.96
  -1  -7 -17    3.07    0.75
  -1  -7 -18    5.80    1.48
   0   6 -19   13.62    2.07
   0   6 -18    6.30    1.47
   0   6 -17   25.67    3.37
   0   6 -17   18.34    1.21
   0   6 -17   19.34    1.29
   0   6 -16    5.75    1.29
   0   6 -16    7.02    0.74
   0   6 -16    6.21    0.72
   0   6 -15  115.00   14.00
   0   6 -15  100.70    5.54
   0   6 -15   98.56    5.40
   0   6 -14    2.93    1.20
   0   6 -14    2.94    0.62
   0   6 -14    4.05    0.62
   0   6 -13    4.33    1.21
   0   6 -13    1.87    0.56
   0  -6  12    0.88    0.56
   0   6 -12    0.75    0.49
   0  -6  11  284.60   15.35
   0   6 -11  294.50   15.91
   0  -6  10    0.70    0.48
   0   6 -10    0.22    0.44
   0  -6   9  464.30   24.97
   0   6  -9  460.30   24.74
   0  -6   8  146.60    8.00
   0   6  -8  149.30    8.16
   0  -6   7    3.61    0.62
   0   6  -7    3.88    0.64
   0  -6   6   54.57    3.09
   0   6  -6   59.45    3.37
   0   6  -5   13.73    1.96
   0  -6   5   10.26    0.90
   0   6  -5   12.07    0.98
   0   6  -4    2.28    0.96
   0  -6   4    2.30    0.60
   0   6  -4    1.96    0.55
   0   6  -3  316.40   38.18
   0  -6   3  310.00   16.73
   0   6  -3  308.70   16.66
   0   6  -2  301.80   36.40
   0  -6   2  313.10   16.90
   0   6  -2  308.50   16.64
   0   6  -1    6.05    1.05
   0  -6   1    7.31    0.80
   0   6  -1    7.96    0.75
   0  -6   0  377.00   45.42
   0   6   0  389.40   46.91
   0  -6   0  369.80   19.95
   0   6   0  374.70   20.20
   0  -6  -1    6.13    0.94
   0   6   1    6.88    1.02
   0  -6  -1    7.15    0.86
   0   6   1    7.80    0.80
   0  -6  -2  322.00   38.80
   0  -6  -2  298.30   16.12
   0   6   2  305.40   16.51
   0  -6  -3  361.00   43.51
   0  -6  -3  300.40   16.22
   0   6   3  298.90   16.16
   0  -6  -4    2.35    0.61
   0   6   4    2.27    0.68
   0  -6  -5   11.30    0.92
   0   6   5   12.39    1.01
   0  -6  -6   54.16    3.12
   0   6   6   55.46    3.17
   0  -6  -7    3.13    0.64
   0   6   7    3.33    0.62
   0  -6  -8  142.70    7.79
   0   6   8  145.50    7.95
   0  -6  -9  462.10   24.85
   0   6   9  458.00   24.64
   0  -6 -10    0.21    0.56
   0   6  10   -0.14    0.57
   0  -6 -11  297.30   16.05
   0   6  11  286.00   15.45
   0  -6 -12    1.23    0.63
   0   6  12    0.82    0.58
   0  -6 -13    2.88    0.69
   0  -6 -14    3.56    0.69
   0  -6 -14    3.37    0.60
   0  -6 -15  100.70    5.55
   0  -6 -15   90.87    5.01
   0  -6 -16    5.95    0.81
   0  -6 -16    6.73    0.79
   0  -6 -17   25.04    1.67
   0  -6 -17   25.26    1.62
   0  -6 -18    3.79    1.03
   0  -6 -18    2.82    0.76
   0  -6 -19   10.90    1.99
  -1   5 -19    1.56    1.39
  -1   5 -18    7.18    1.45
  -1   5 -17    4.81    1.27
  -1   5 -16   16.34    2.42
  -1   5 -15    0.62    1.11
  -1   5 -15    0.00    0.43
  -1   5 -15    0.78    0.45
  -1   5 -14  114.30   13.92
  -1   5 -14  110.30    6.02
  -1   5 -14  110.60    6.03
  -1   5 -13   90.85   11.14
  -1   5 -13   84.65    4.67
  -1   5 -13   80.48    4.45
  -1   5 -12   59.56    7.39
  -1   5 -12   62.90    3.48
  -1   5 -11    8.30    1.65
   1  -5  11    6.49    0.64
  -1   5 -11    6.58    0.65
  -1   5 -10  356.40   43.04
   1  -5  10  348.50   18.76
  -1   5 -10  370.60   19.93
  -1   5  -9   14.24    2.10
   1  -5   9   15.28    1.02
  -1   5  -9   12.45    0.87
  -1   5  -8   82.66   10.14
   1  -5   8   79.01    4.36
  -1   5  -8   75.09    4.16
  -1   5  -7   52.61    6.55
   1  -5   7   45.93    2.62
  -1   5  -7   51.14    2.88
  -1   5  -6  216.00   26.14
   1  -5   6  237.00   12.79
  -1   5  -6  238.90   12.88
  -1   5  -5    2.30    1.06
   1  -5   5    1.62    0.53
  -1   5  -5    2.12    0.54
  -1   5  -4  307.90   37.16
   1  -5   4  323.10   17.39
  -1   5  -4  261.00   14.09
  -1   5  -3  261.50   31.57
   1  -5   3  258.40   13.95
  -1   5  -3  254.50   13.74
  -1   5  -2  306.50   36.98
   1  -5   2  311.90   16.82
  -1   5  -2  323.60   17.45
   1  -5   1  132.40   16.02
  -1   5  -1  141.90   17.18
   1  -5   1  129.30    7.08
  -1   5  -1  132.20    7.23
   1  -5   0    6.02    1.08
  -1   5   0    7.60    1.26
   1  -5   0    7.08    0.78
  -1   5   0    8.07    0.85
   1  -5  -1   54.82    6.70
  -1   5   1   64.00    7.80
   1  -5  -1   76.57    4.30
  -1   5   1   82.14    4.61
   1  -5  -2  180.90   21.84
  -1   5   2  185.50   22.39
   1  -5  -2  173.10    9.44
  -1   5   2  169.40    9.25
   1  -5  -3  160.30   19.37
   1  -5  -3  161.60    8.82
  -1   5   3  152.40    8.34
   1  -5  -5  100.70    5.55
  -1   5   5  101.70    5.63
   1  -5  -6   80.94    4.51
  -1   5   6   82.02    4.58
   1  -5  -7   84.36    4.70
  -1   5   7   89.97    5.00
   1  -5  -8    3.88    0.62
  -1   5   8    2.22    0.60
   1  -5  -9   27.83    1.71
  -1   5   9   30.61    1.88
   1  -5 -10  217.50   11.78
  -1   5  10  215.80   11.70
   1  -5 -11    4.31    0.65
  -1   5  11    3.27    0.60
   1  -5 -12  269.20   14.55
   1  -5 -13   23.98    1.58
   1  -5 -13   23.52    1.48
   1  -5 -14   49.35    2.84
   1  -5 -14   47.79    2.76
   1  -5 -15   17.93    1.28
   1  -5 -15   18.90    1.27
   1  -5 -16   79.44    4.44
   1  -5 -16   77.21    4.29
   1  -5 -17    2.30    0.79
   1  -5 -17    2.13    0.66
   1  -5 -18   10.38    0.98
   1  -5 -18   11.10    1.05
   1  -5 -19    0.27    0.82
   1  -5 -19   -0.32    0.96
   1  -5 -20    0.86    0.90
   1  -5 -20   -0.06    1.23
  -2   4 -18    2.40    1.15
  -2   4 -17    2.42    1.24
  -2   4 -16    1.84    1.18
  -2   4 -15    0.42    1.04
  -2   4 -14   55.22    6.85
  -2   4 -13    8.28    1.55
  -2   4 -12  198.60   24.06
  -2   4 -12  188.30   10.20
  -2   4 -12  178.50    9.67
  -2   4 -11   66.18    8.22
  -2   4 -11   66.82    3.66
  -2   4 -11   67.50    3.69
  -2   4 -10    4.17    1.34
  -2   4 -10    4.88    0.47
  -2   4  -9   81.94   10.06
   2  -4   9   76.21    4.17
  -2   4  -9   83.77    4.55
  -2   4  -8  453.80   54.75
   2  -4   8  437.50   23.51
  -2   4  -8  455.50   24.47
  -2   4  -7   66.00    8.14
   2  -4   7   61.50    3.40
  -2   4  -7   63.65    3.51
  -2   4  -6  164.90   20.02
   2  -4   6  168.40    9.11
  -2   4  -6  173.10    9.35
  -2   4  -5   10.48    1.77
   2  -4   5    6.80    0.62
  -2   4  -5    8.28    0.68
  -2   4  -4  118.50   14.40
   2  -4   4  122.00    6.62
  -2   4  -4  121.80    6.63
  -2   4  -3   26.36    3.40
   2  -4   3   32.49    1.89
  -2   4  -3   36.55    2.09
   2  -4   2  962.20  115.90
  -2   4  -2  884.70  106.50
   2  -4   2  948.20   50.80
   2  -4   1   11.86    1.80
  -2   4  -1   10.48    1.66
   2  -4   1   13.20    0.98
  -2   4  -1   14.94    1.07
   2  -4   0  341.70   41.21
  -2   4   0  344.70   41.56
   2  -4   0  347.40   18.70
  -2   4   0  346.20   18.64
   2  -4  -1  297.80   35.91
  -2   4   1  306.50   36.96
   2  -4  -1  267.00   14.43
  -2   4   1  270.30   14.61
   2  -4  -3  215.30   26.00
  -2   4   3  200.10   24.19
   2  -4  -3  185.50   10.10
  -2   4   3  173.50    9.45
   2  -4  -4  151.10   18.30
   2  -4  -4  162.70    8.89
  -2   4   4  161.20    8.80
   2  -4  -5  210.60   11.43
  -2   4   5  204.10   11.07
   2  -4  -6  481.60   25.90
  -2   4   6  473.10   25.46
   2  -4  -7   28.46    1.78
  -2   4   7   29.41    1.83
   2  -4  -8  325.70   17.59
  -2   4   8  321.60   17.35
   2  -4  -9    1.44    0.55
  -2   4   9    1.44    0.60
   2  -4 -10   44.46    2.58
  -2   4  10   48.45    2.84
   2  -4 -11    2.88    0.59
   2  -4 -12  103.90    5.74
   2  -4 -12   96.79    5.33
   2  -4 -13   13.04    1.04
   2  -4 -13   12.08    0.99
   2  -4 -14   79.12    4.44
   2  -4 -14   81.53    4.52
   2  -4 -15    3.50    0.68
   2  -4 -15    3.11    0.66
   2  -4 -16    4.96    0.77
   2  -4 -16    4.62    0.66
   2  -4 -17   17.98    1.27
   2  -4 -17   17.40    1.22
   2  -4 -18   14.26    1.18
   2  -4 -18   15.82    1.15
  -3   3 -18    1.48    1.36
  -3   3 -17   -1.05    1.46
  -3   3 -16   23.71    3.24
  -3   3 -15   34.20    4.41
  -3   3 -14    3.28    1.30
  -3   3 -13   41.49    5.29
  -3   3 -12   26.33    3.49
  -3   3 -11  112.00   13.70
  -3   3 -10   77.56    9.56
  -3   3  -9   41.56    5.26
  -3   3  -8   13.15    2.07
  -3   3  -8    8.95    0.56
  -3   3  -8    8.75    0.53
  -3   3  -7  115.80   14.11
  -3   3  -7  109.00    5.91
  -3   3  -6    1.65    0.96
   3  -3   6    1.69    0.30
  -3   3  -6    1.53    0.25
  -3   3  -5  716.50   86.33
   3  -3   5  737.50   39.60
  -3   3  -5  710.90   38.17
  -3   3  -4  338.40   40.84
   3  -3   4  262.80   14.14
  -3   3  -4  273.10   14.69
  -3   3  -3    3.63    1.28
   3  -3   3    2.77    0.40
  -3   3  -3    2.37    0.39
   3  -3   2  386.60   46.64
  -3   3  -2  404.10   48.73
   3  -3   2  355.60   19.10
  -3   3  -2  369.80   19.86
   3  -3   1  430.40   51.90
  -3   3  -1  407.60   49.14
   3  -3   1  418.90   22.50
  -3   3  -1  397.90   21.37
   3  -3   0   71.39    8.75
  -3   3   0   77.23    9.45
   3  -3   0   72.40    4.02
  -3   3   0   73.76    4.08
   3  -3  -1   40.86    5.13
  -3   3   1   47.67    5.93
   3  -3  -1   41.56    2.41
  -3   3   1   47.37    2.71
   3  -3  -2    5.97    1.32
  -3   3   2    3.05    1.20
   3  -3  -2    4.82    0.72
  -3   3   2    3.55    0.66
   3  -3  -5    4.82    1.15
   3  -3  -5    7.98    0.81
  -3   3   5    6.99    0.80
   3  -3  -6  156.90    8.56
  -3   3   6  157.60    8.60
   3  -3  -7   76.53    4.27
  -3   3   7   81.65    4.58
   3  -3  -8   87.16    4.85
  -3   3   8   87.94    4.90
   3  -3  -9   55.38    3.21
   3  -3 -10  159.70    8.72
   3  -3 -11    3.35    0.67
   3  -3 -11    3.32    0.66
   3  -3 -12   72.25    4.03
   3  -3 -12   69.33    3.91
   3  -3 -13  109.30    6.04
   3  -3 -13  108.00    5.94
   3  -3 -14    2.13    0.70
   3  -3 -14    0.55    0.64
   3  -3 -15  105.30    5.83
   3  -3 -15  101.30    5.57
   3  -3 -16   34.31    2.07
   3  -3 -16   37.33    2.20
   3  -3 -17    0.32    0.66
   3  -3 -17    0.13    0.58
   3  -3 -18   11.08    0.96
   3  -3 -18   10.48    1.04
   3  -3 -19   17.45    1.32
   3  -3 -19   17.70    1.31
   3  -3 -20    0.93    0.87
   3  -3 -20    0.20    0.83
  -4   2 -18    0.29    1.23
  -4   2 -17   50.86    6.36
  -4   2 -16    1.28    1.31
  -4   2 -15   98.55   12.06
  -4   2 -14    3.04    1.23
  -4   2 -13    3.56    1.42
  -4   2 -12   -0.38    1.22
  -4   2 -11   46.57    5.90
  -4   2 -10    1.85    1.14
  -4   2  -9  368.80   44.54
  -4   2  -8   13.94    2.19
  -4   2  -7   44.83    5.67
  -4   2  -6   16.47    2.45
  -4   2  -5  439.30   52.99
  -4   2  -4   25.10    3.32
   4  -2   4   23.79    1.35
   4  -2   4   21.64    1.23
   4  -2   3 1290.00  155.40
  -4   2  -3 1153.00  138.80
   4  -2   2   12.30    1.89
  -4   2  -2   12.01    2.00
   4  -2   2   11.31    0.74
  -4   2  -2   10.82    0.71
   4  -2   1  212.80   25.74
  -4   2  -1  229.70   27.76
   4  -2   1  251.40   13.53
  -4   2  -1  242.10   13.04
   4  -2   0   24.47    3.23
  -4   2   0   24.53    3.23
   4  -2   0   24.23    1.47
  -4   2   0   23.43    1.43
   4  -2  -1  340.50   41.08
  -4   2   1  359.00   43.30
   4  -2  -1  429.20   23.07
  -4   2   1  424.40   22.80
   4  -2  -2   23.62    3.24
  -4   2   2   24.01    3.23
   4  -2  -2   20.79    1.41
  -4   2   2   23.24    1.51
   4  -2  -4   27.85    3.68
  -4   2   4   31.50    4.07
   4  -2  -4   28.09    1.78
  -4   2   4   26.82    1.72
   4  -2  -5   17.14    2.52
   4  -2  -5    9.09    0.91
  -4   2   5    9.39    0.88
   4  -2  -6   31.53    4.09
   4  -2  -6   27.03    1.72
   4  -2  -7   36.23    2.18
   4  -2  -8    9.92    0.90
   4  -2  -9   77.59    4.36
   4  -2  -9   74.88    4.20
   4  -2 -10    2.90    0.67
   4  -2 -10    3.68    0.60
   4  -2 -11  267.60   14.50
   4  -2 -11  257.80   13.96
   4  -2 -12    0.79    0.62
   4  -2 -12    0.89    0.66
   4  -2 -13   19.74    1.35
   4  -2 -13   17.89    1.18
   4  -2 -14    6.66    0.83
   4  -2 -14    6.78    0.79
   4  -2 -15   12.63    1.06
   4  -2 -15   12.37    0.96
   4  -2 -16    1.72    0.68
   4  -2 -16    0.58    0.64
   4  -2 -17   54.73    3.15
   4  -2 -17   52.73    3.03
   4  -2 -18    2.00    0.71
   4  -2 -18    2.74    0.71
   4  -2 -19   24.19    1.67
   4  -2 -19   25.25    1.62
   4  -2 -20   -0.23    0.82
   4  -2 -20    0.89    0.83
   4  -2 -21   -0.45    0.96
   4  -2 -21   -0.41    0.99
  -5   1 -17    0.51    1.46
  -5   1 -16   34.33    4.51
  -5   1 -15    2.84    1.47
  -5   1 -14   21.00    2.93
  -5   1 -13  114.00   13.93
  -5   1 -12   17.54    2.52
  -5   1 -11   27.29    3.69
  -5   1 -10   99.04   12.15
  -5   1  -9    5.02    1.51
  -5   1  -8  419.20   50.59
  -5   1  -7   73.49    9.05
  -5   1  -6   10.46    1.84
  -5   1  -5   92.58   11.35
  -5   1  -4  209.20   25.31
   5  -1   3  649.70   78.31
  -5   1  -3  626.30   75.48
   5  -1   3  635.40   34.36
   5  -1   3  606.80   32.81
   5  -1   2  827.40   99.67
  -5   1  -2  675.80   81.43
   5  -1   2  741.70   39.78
   5  -1   2  768.30   41.22
   5  -1   1  194.00   23.49
  -5   1  -1  183.20   22.18
   5  -1   1  168.60    9.11
   5  -1   1  168.80    9.11
   5  -1   0  198.30   24.01
  -5   1   0  184.30   22.32
   5  -1  -1  743.50   89.57
  -5   1   1  742.60   89.46
   5  -1  -1  727.60   39.01
   5  -1  -1  729.50   39.12
   5  -1  -2  811.80   97.79
  -5   1   2  762.90   91.89
   5  -1  -2  770.20   41.31
   5  -1  -2  785.60   42.13
   5  -1  -3  586.50   70.69
  -5   1   3  616.70   74.32
   5  -1  -3  548.60   29.49
   5  -1  -3  550.00   29.55
   5  -1  -4 1133.00  136.40
  -5   1   4 1124.00  135.30
   5  -1  -4 1188.00   63.68
   5  -1  -4 1172.00   62.79
   5  -1  -5  227.00   27.46
  -5   1   5  200.60   24.29
   5  -1  -5  196.60   10.70
   5  -1  -5  198.20   10.78
   5  -1  -6  114.70   13.99
   5  -1  -6  112.00    6.19
   5  -1  -6  111.20    6.12
   5  -1  -7   54.95    6.88
   5  -1  -7   60.77    3.47
   5  -1  -7   61.63    3.52
   5  -1  -8   39.80    2.40
   5  -1  -8   41.03    2.42
   5  -1  -9   37.53    2.27
   5  -1  -9   35.15    2.11
   5  -1 -10  227.00   12.32
   5  -1 -10  222.50   12.07
   5  -1 -11  125.50    6.91
   5  -1 -11  124.80    6.85
   5  -1 -12   33.60    2.08
   5  -1 -12   33.59    2.08
   5  -1 -13   32.08    2.00
   5  -1 -13   33.61    2.02
   5  -1 -14    1.02    0.74
   5  -1 -14    1.13    0.60
   5  -1 -16   36.12    2.19
   5  -1 -16   32.65    1.97
   5  -1 -17    0.12    0.77
   5  -1 -17    0.29    0.64
   5  -1 -18   17.29    1.28
   5  -1 -18   18.32    1.29
   5  -1 -19    4.00    0.81
   5  -1 -19    4.13    0.76
   5  -1 -20    4.18    0.90
   5  -1 -20    2.83    0.78
   5  -1 -21   18.68    1.49
   5  -1 -21   20.02    1.54
  -6   0 -16    3.51    1.59
  -6   0 -15    1.17    1.45
  -6   0 -14   95.25   11.67
  -6   0 -13    1.27    1.39
  -6   0 -12  226.80   27.46
  -6   0 -11   -0.14    1.14
  -6   0 -10   25.02    3.36
  -6   0  -9    0.87    1.13
  -6   0  -8    2.30    1.41
  -6   0  -7    3.54    1.39
  -6   0  -6  259.20   31.35
  -6   0  -5    1.31    1.19
  -6   0  -4  166.80   20.23
   6   0   3    2.70    1.07
  -6   0  -3    4.42    1.27
   6   0   3    3.46    0.36
   6   0   3    3.47    0.34
   6   0   2    1.90    1.15
  -6   0  -2    3.58    1.20
   6   0   2    4.31    0.44
   6   0   2    5.03    0.47
   6   0   1    1.49    1.32
  -6   0  -1    0.80    1.00
   6   0   1    0.49    0.43
   6   0   0  412.90   49.80
  -6   0   0  419.20   50.56
   6   0   0  393.60   21.15
   6   0  -1    3.56    1.18
  -6   0   1    4.08    1.39
   6   0  -1    2.38    0.53
   6   0  -2  259.40   31.36
  -6   0   2  249.30   30.14
   6   0  -2  284.50   15.36
   6   0  -3    0.40    1.32
  -6   0   3    0.95    1.26
   6   0  -3    0.17    0.57
   6   0  -4 1541.00  185.50
  -6   0   4 1630.00  196.20
   6   0  -4 1557.00   83.41
   6   0  -5    2.71    1.26
  -6   0   5    0.39    1.11
   6   0  -5    1.04    0.71
   6   0  -6  158.50   19.26
   6   0  -6  141.90    7.79
   6   0  -7    1.95    1.39
   6   0  -7    1.29    0.58
   6   0  -8  111.60   13.64
   6   0  -8  111.90    6.18
   6   0  -9    0.32    1.16
   6   0  -9    0.64    0.63
   6   0  -9    0.91    0.59
   6   0 -10    8.56    0.89
   6   0 -10    6.76    0.83
   6   0 -11   -0.26    0.64
   6   0 -11    0.99    0.62
   6   0 -12  149.20    8.14
   6   0 -12  155.90    8.53
   6   0 -13    0.44    0.66
   6   0 -13   -0.18    0.63
   6   0 -14  295.80   16.02
   6   0 -14  290.90   15.71
   6   0 -15    0.08    0.67
   6   0 -15   -0.07    0.62
   6   0 -16  112.60    6.23
   6   0 -16  111.70    6.16
   6   0 -17    0.44    0.69
   6   0 -17   -0.26    0.71
   6   0 -18    3.11    0.78
   6   0 -18    5.11    0.80
   6   0 -19   -0.41    0.75
   6   0 -19    0.27    0.68
   6   0 -20   27.22    1.82
   6   0 -20   28.72    1.82
   6   0 -21   -0.90    0.92
   6   0 -21   -0.44    0.80
   6   0 -22   11.25    1.29
   6   0 -22   10.16    1.17
  -7  -1 -16   27.82    3.75
  -7  -1 -15    1.06    1.33
  -7  -1 -14   25.65    3.59
  -7  -1 -13   49.98    6.34
  -7  -1 -12   -0.23    1.50
  -7  -1 -11   55.42    6.97
  -7  -1 -10   15.88    2.50
  -7  -1  -9   12.37    2.07
  -7  -1  -8  305.60   36.93
  -7  -1  -7   60.34    7.53
  -7  -1  -6   10.39    1.89
  -7  -1  -5  154.40   18.74
  -7  -1  -4   91.76   11.23
   7   1   4   78.30    4.26
   7   1   4   78.04    4.25
   7   1   3    1.73    1.20
  -7  -1  -3    3.24    1.22
   7   1   3    2.23    0.36
   7   1   2  514.50   62.03
  -7  -1  -2  453.40   54.68
   7   1   2  519.60   27.89
  -7  -1  -2  489.00   26.25
   7   1   1   76.69    9.45
  -7  -1  -1   71.00    8.75
   7   1   1   58.42    3.25
  -7  -1  -1   51.77    2.91
   7   1   0   91.11   11.16
  -7  -1   0   82.13   10.09
   7   1   0  100.80    5.53
  -7  -1   0  102.70    5.61
   7   1  -1  263.10   31.81
  -7  -1   1  254.00   30.70
   7   1  -1  234.10   12.64
  -7  -1   1  238.80   12.91
   7   1  -2   33.88    4.45
  -7  -1   2   34.89    4.52
   7   1  -2   31.60    1.92
  -7  -1   2   30.25    1.85
   7   1  -3   74.68    9.23
  -7  -1   3   70.18    8.66
   7   1  -3   79.49    4.45
  -7  -1   3   87.44    4.85
   7   1  -4  253.40   30.66
  -7  -1   4  272.60   32.95
   7   1  -4  287.60   15.56
  -7  -1   4  238.20   12.91
   7   1  -5  613.90   74.02
  -7  -1   5  596.60   71.93
   7   1  -5  529.80   28.49
  -7  -1   5  556.90   29.95
   7   1  -6   91.04   11.19
   7   1  -6  111.40    6.16
  -7  -1   6  116.10    6.41
   7   1  -7  233.10   28.21
   7   1  -7  209.30   11.36
  -7  -1   7  221.90   12.07
   7   1  -8   26.81    3.63
   7   1  -8   20.35    1.42
   7   1  -9   86.56   10.67
   7   1  -9   83.85    4.71
   7   1 -10  238.10   28.85
   7   1 -10  214.70   11.67
   7   1 -11    2.55    0.64
   7   1 -12  129.70    7.17
   7   1 -12  125.90    6.90
   7   1 -13   21.68    1.50
   7   1 -13   20.73    1.43
   7   1 -14   50.76    2.96
   7   1 -14   52.92    3.09
   7   1 -15  104.10    5.78
   7   1 -15  102.70    5.68
   7   1 -16   25.79    1.73
   7   1 -16   25.79    1.69
   7   1 -17   28.50    1.81
   7   1 -17   28.11    1.76
   7   1 -18   44.45    2.67
   7   1 -18   45.32    2.63
   7   1 -19   15.11    1.20
   7   1 -19   14.43    1.12
   7   1 -20    1.74    0.81
   7   1 -20    1.34    0.70
   7   1 -21   15.45    1.33
   7   1 -21   14.96    1.20
   7   1 -22    0.10    0.87
   7   1 -22    0.90    0.95
  -8  -2 -15   20.44    3.04
  -8  -2 -14    1.25    1.50
  -8  -2 -13    6.03    1.77
  -8  -2 -12    1.99    1.58
  -8  -2 -11    3.74    1.46
  -8  -2 -10   25.68    3.54
  -8  -2  -9   92.63   11.37
  -8  -2  -8    7.55    1.67
  -8  -2  -7   71.19    8.78
  -8  -2  -6    6.23    1.50
  -8  -2  -5    3.34    1.30
   8   2   5    3.52    0.34
   8   2   5    3.55    0.34
  -8  -2  -4    3.49    1.15
   8   2   4    2.48    0.40
  -8  -2  -4    2.96    0.35
   8   2   3  190.50   23.11
  -8  -2  -3  173.30   21.01
   8   2   3  161.00    8.72
  -8  -2  -3  160.40    8.67
   8   2   2    0.72    1.25
  -8  -2  -2   -0.52    1.22
   8   2   2    0.26    0.43
  -8  -2  -2    0.49    0.39
   8   2   1  586.70   70.74
  -8  -2  -1  554.40   66.85
   8   2   1  576.00   30.92
  -8  -2  -1  571.80   30.69
   8   2   0   12.68    2.09
  -8  -2   0   12.32    2.03
   8   2   0   12.09    0.92
  -8  -2   0   10.94    0.87
   8   2  -1    3.43    1.33
  -8  -2   1    3.19    1.24
   8   2  -1    1.41    0.55
  -8  -2   1    0.67    0.55
   8   2  -2  133.50   16.24
  -8  -2   2  131.90   16.06
   8   2  -2  127.70    7.01
  -8  -2   2  133.10    7.28
   8   2  -3  103.40   12.64
  -8  -2   3  109.10   13.34
   8   2  -3  102.80    5.70
  -8  -2   3  103.60    5.74
   8   2  -4   65.32    8.12
  -8  -2   4   62.82    7.81
   8   2  -4   58.76    3.38
  -8  -2   4   60.00    3.44
   8   2  -5  377.10   45.53
  -8  -2   5  362.30   43.75
   8   2  -5  360.00   19.42
  -8  -2   5  393.10   21.20
   8   2  -6    0.16    1.33
  -8  -2   6    1.08    1.09
   8   2  -6   -0.06    0.60
  -8  -2   6    0.87    0.64
   8   2  -7  186.50   22.62
   8   2  -7  252.90   13.73
  -8  -2   7  245.10   13.30
   8   2  -8    5.43    1.59
   8   2  -8    4.17    0.72
  -8  -2   8    3.93    0.76
   8   2  -9   24.94    3.41
   8   2  -9   15.51    1.21
  -8  -2   9   15.00    1.20
   8   2 -10   27.21    3.75
   8   2 -10   31.50    1.94
  -8  -2  10   31.07    1.95
   8   2 -11  279.20   33.81
   8   2 -11  226.80   12.35
   8   2 -12    1.35    1.39
   8   2 -12    0.56    0.61
   8   2 -13   27.26    3.80
   8   2 -13   35.18    2.12
   8   2 -14   16.64    1.29
   8   2 -14   15.76    1.27
   8   2 -15    8.39    0.93
   8   2 -15    8.03    0.89
   8   2 -16    1.22    0.69
   8   2 -16    1.02    0.66
   8   2 -17   73.32    4.18
   8   2 -17   72.31    4.05
   8   2 -18    0.51    0.69
   8   2 -18    0.53    0.66
   8   2 -19   20.38    1.46
   8   2 -19   20.53    1.41
   8   2 -20   -0.62    0.75
   8   2 -20   -1.06    0.71
   8   2 -21    1.94    0.99
   8   2 -21   -0.07    0.70
   8   2 -22    0.01    0.84
   8   2 -22   -0.26    0.81
  -9  -3 -14    3.17    1.72
  -9  -3 -13   15.20    2.63
  -9  -3 -12   -0.60    1.39
  -9  -3 -11   25.11    3.48
  -9  -3 -10   40.48    5.25
  -9  -3  -9    7.30    1.65
  -9  -3  -8   18.57    2.75
  -9  -3  -7   28.80    3.86
  -9  -3  -6    3.64    1.38
  -9  -3  -5   12.48    2.04
   9   3   5   13.72    0.90
  -9  -3  -5   13.96    0.87
  -9  -3  -4   28.67    3.79
   9   3   4   21.67    1.30
  -9  -3  -4   20.24    1.22
   9   3   3   16.49    2.41
  -9  -3  -3   18.28    2.62
   9   3   3   24.66    1.50
  -9  -3  -3   22.94    1.41
   9   3   2   63.67    7.89
  -9  -3  -2   64.51    8.00
   9   3   2   61.93    3.46
  -9  -3  -2   55.89    3.14
   9   3   1  440.40   53.13
  -9  -3  -1  407.50   49.18
   9   3   1  387.70   20.87
  -9  -3  -1  406.70   21.89
   9   3   0  189.80   23.00
  -9  -3   0  167.10   20.28
   9   3   0  200.30   10.86
  -9  -3   0  197.10   10.69
   9   3  -1   57.43    7.18
  -9  -3   1   50.97    6.39
   9   3  -1   54.75    3.13
  -9  -3   1   56.60    3.23
   9   3  -2    2.99    1.41
  -9  -3   2    3.85    1.46
   9   3  -2    6.53    0.76
  -9  -3   2    5.68    0.74
   9   3  -3   20.67    3.02
  -9  -3   3   18.58    2.68
   9   3  -3   19.45    1.36
  -9  -3   3   21.49    1.46
   9   3  -4  140.80   17.18
  -9  -3   4  131.10   15.96
   9   3  -4  131.50    7.24
  -9  -3   4  114.00    6.30
   9   3  -5   31.20    4.20
  -9  -3   5   32.12    4.21
   9   3  -5   21.97    1.52
  -9  -3   5   23.19    1.58
   9   3  -6    3.43    1.57
  -9  -3   6    2.86    1.18
   9   3  -6    0.41    0.60
  -9  -3   6    0.91    0.68
   9   3  -7  298.00   36.05
   9   3  -7  251.40   13.66
  -9  -3   7  268.70   14.57
   9   3  -8    7.95    1.94
   9   3  -8    7.96    0.85
  -9  -3   8    8.58    0.93
   9   3  -9  359.10   43.40
   9   3  -9  375.50   20.31
  -9  -3   9  359.00   19.39
   9   3 -10    5.88    1.83
   9   3 -10    4.27    0.84
  -9  -3  10    5.78    0.80
   9   3 -11   24.81    3.54
   9   3 -11   33.30    2.05
  -9  -3  11   31.26    1.96
   9   3 -12   20.98    3.03
   9   3 -12   21.05    1.51
  -9  -3  12   19.23    1.37
   9   3 -13   71.13    8.85
   9   3 -13   53.28    3.09
   9   3 -14   -1.14    1.42
   9   3 -14   -0.06    0.65
   9   3 -15   74.76    9.28
   9   3 -15   69.44    3.97
   9   3 -16    7.52    1.81
   9   3 -16    6.06    0.86
   9   3 -16    4.54    0.71
   9   3 -17   15.43    2.53
   9   3 -17   21.15    1.52
   9   3 -17   19.95    1.42
   9   3 -18   13.03    2.22
   9   3 -18    8.67    0.94
   9   3 -18    8.88    0.86
   9   3 -19    1.15    1.37
   9   3 -19    2.14    0.71
   9   3 -19    1.32    0.65
   9   3 -20   -0.07    1.35
   9   3 -20    0.77    0.76
   9   3 -20    0.18    0.67
   9   3 -21    5.83    1.77
   9   3 -21    4.68    0.91
   9   3 -21    4.30    0.75
   9   3 -22    0.78    1.23
   9   3 -22   -0.08    1.01
   9   3 -22    1.48    0.78
 -10  -4 -13    0.99    1.48
 -10  -4 -12   30.92    4.22
 -10  -4 -11   -0.71    1.42
 -10  -4 -10   29.26    3.95
 -10  -4  -9    3.35    1.30
 -10  -4  -8   21.21    3.02
 -10  -4  -7    7.72    1.64
 -10  -4  -6   53.09    6.67
  10   4   6   40.23    2.26
 -10  -4  -5   10.57    1.87
  10   4   5    7.23    0.65
 -10  -4  -5    6.76    0.58
 -10  -4  -4   32.17    4.21
  10   4   4   36.07    2.09
 -10  -4  -4   34.80    2.01
 -10  -4  -3    9.19    1.84
  10   4   3   10.42    0.83
 -10  -4  -3   11.43    0.89
  10   4   2    0.89    1.24
 -10  -4  -2    0.14    1.27
  10   4   2    2.10    0.54
 -10  -4  -2    2.06    0.51
  10   4   1   18.94    2.79
 -10  -4  -1   17.44    2.62
  10   4   1   25.68    1.61
 -10  -4  -1   22.78    1.48
  10   4   0  198.70   24.11
 -10  -4   0  185.00   22.44
  10   4   0  170.80    9.29
 -10  -4   0  178.50    9.71
  10   4  -1    5.20    1.61
 -10  -4   1    4.48    1.43
  10   4  -1    5.22    0.71
 -10  -4   1    4.08    0.69
  10   4  -2  231.60   28.06
 -10  -4   2  197.40   23.92
  10   4  -2  195.80   10.65
 -10  -4   2  207.50   11.28
  10   4  -3   -0.51    1.37
 -10  -4   3   -0.58    1.30
  10   4  -3    0.29    0.60
 -10  -4   3   -0.05    0.63
  10   4  -4   27.36    3.74
 -10  -4   4   28.33    3.80
  10   4  -4   38.40    2.31
 -10  -4   4   41.26    2.49
  10   4  -5   10.36    2.05
 -10  -4   5   11.10    1.99
  10   4  -5    8.42    0.87
 -10  -4   5    9.09    0.96
  10   4  -6   45.21    5.84
 -10  -4   6   41.53    5.34
  10   4  -6   35.91    2.20
 -10  -4   6   35.69    2.22
  10   4  -7  227.60   27.59
  10   4  -7  252.20   13.69
 -10  -4   7  267.10   14.50
  10   4  -8  572.60   69.06
  10   4  -8  558.00   30.04
 -10  -4   8  532.80   28.68
  10   4  -9   32.99    4.38
  10   4  -9   32.05    2.01
 -10  -4   9   29.72    1.92
  10   4 -10  109.60   13.48
  10   4 -10  120.60    6.69
 -10  -4  10  124.80    6.91
  10   4 -11   33.66    4.47
  10   4 -11   42.08    2.52
 -10  -4  11   39.72    2.43
  10   4 -12    0.49    1.68
  10   4 -12    1.97    0.71
 -10  -4  12    0.49    0.70
  10   4 -13   22.32    3.40
  10   4 -13   20.18    1.48
 -10  -4  13   24.39    1.68
  10   4 -14   71.28    9.02
  10   4 -14   55.02    3.17
  10   4 -15    6.07    1.96
  10   4 -15    5.37    0.74
  10   4 -16   47.13    6.06
  10   4 -16   48.36    2.83
  10   4 -17   -1.09    1.26
  10   4 -17    0.55    0.65
  10   4 -17    0.34    0.65
  10   4 -18    2.49    1.56
  10   4 -18   -0.36    0.71
  10   4 -18    0.12    0.61
  10   4 -19    0.61    1.46
  10   4 -19    0.44    0.69
  10   4 -19    0.00    0.62
  10   4 -20   -0.09    1.40
  10   4 -20    0.34    0.75
  10   4 -20   -0.05    0.66
  10   4 -21    1.54    1.30
  10   4 -21    1.36    0.79
  10   4 -21    1.03    0.80
  10   4 -22    5.97    1.40
  10   4 -22    6.46    0.78
  10   4 -22    6.64    1.07
 -11  -5 -12    5.14    1.59
 -11  -5 -11    3.40    1.70
 -11  -5 -10   43.83    5.68
 -11  -5  -9    6.55    1.91
 -11  -5  -8   83.97   10.37
 -11  -5  -7    1.87    1.51
 -11  -5  -6    9.89    1.98
  11   5   6    6.04    0.66
 -11  -5  -6    7.32    0.63
 -11  -5  -5    3.22    1.51
  11   5   5    0.99    0.52
 -11  -5  -5    0.00    0.50
 -11  -5  -4    0.32    1.36
  11   5   4    0.76    0.56
 -11  -5  -4    1.54    0.57
 -11  -5  -3    1.82    1.53
  11   5   3    0.30    0.58
 -11  -5  -3    0.58    0.54
  11   5   2  175.30   21.27
 -11  -5  -2  158.40   19.28
  11   5   2  161.90    8.83
 -11  -5  -2  164.40    8.94
  11   5   1   -0.02    1.12
 -11  -5  -1    1.66    1.38
  11   5   1    3.43    0.61
 -11  -5  -1    3.87    0.62
  11   5   0   82.39   10.19
 -11  -5   0   76.46    9.44
  11   5   0   88.68    4.94
 -11  -5   0   77.77    4.36
  11   5  -1   37.66    4.97
 -11  -5   1   38.82    5.02
  11   5  -1   33.23    2.03
 -11  -5   1   28.69    1.83
  11   5  -2   15.45    2.52
 -11  -5   2   14.18    2.33
  11   5  -2   18.81    1.37
 -11  -5   2   14.58    1.12
  11   5  -3   47.93    6.18
 -11  -5   3   47.22    6.01
  11   5  -3   44.34    2.64
 -11  -5   3   44.61    2.68
  11   5  -4  177.20   21.60
 -11  -5   4  162.80   19.80
  11   5  -4  147.50    8.09
 -11  -5   4  152.00    8.33
  11   5  -5    1.37    1.83
 -11  -5   5   -1.03    1.40
  11   5  -5    0.44    0.66
 -11  -5   5    0.47    0.59
  11   5  -6  114.70   14.11
 -11  -5   6  115.40   14.13
  11   5  -6  125.40    6.92
 -11  -5   6  132.10    7.29
  11   5  -7    2.89    1.66
  11   5  -7    4.60    0.74
 -11  -5   7    4.89    0.82
 -11  -5   8   23.46    1.61
  11   5  -9   61.51    7.76
  11   5  -9   70.43    4.02
 -11  -5   9   67.77    3.88
  11   5 -10   24.09    3.47
  11   5 -10   16.88    1.28
 -11  -5  10   17.12    1.31
  11   5 -11    4.89    1.65
  11   5 -11    4.96    0.82
 -11  -5  11    5.31    0.79
  11   5 -12   17.00    2.65
  11   5 -12   21.46    1.49
 -11  -5  12   15.38    1.23
  11   5 -13   -1.57    1.64
  11   5 -13    0.52    0.71
 -11  -5  13    0.61    0.73
  11   5 -14   44.00    5.68
  11   5 -14   56.72    3.30
 -11  -5  14   59.95    3.48
  11   5 -15   44.01    5.70
  11   5 -15   38.69    2.31
  11   5 -16   79.80    9.92
  11   5 -16   60.49    3.49
  11   5 -17    7.44    1.89
  11   5 -17    6.71    0.79
  11   5 -18    1.25    1.74
  11   5 -18    1.00    0.69
  11   5 -19    0.24    1.42
  11   5 -19   -0.66    0.70
  11   5 -19    0.40    0.67
  11   5 -20    2.36    1.56
  11   5 -20    2.24    0.77
  11   5 -20    3.57    0.76
  11   5 -21    1.09    1.36
  11   5 -21   -0.21    0.74
  11   5 -21   -0.28    0.69
  11   5 -22    1.31    1.21
  11   5 -22    0.85    0.91
  11   5 -22    0.55    0.70
 -12  -6 -11   -0.25    1.69
 -12  -6 -10    0.24    1.68
 -12  -6  -9   20.58    3.02
 -12  -6  -8    1.94    1.46
 -12  -6  -7   31.22    4.19
 -12  -6  -6   37.97    4.97
  12   6   6   44.65    2.55
 -12  -6  -6   41.48    2.35
 -12  -6  -5   11.10    2.06
  12   6   5    8.37    0.81
 -12  -6  -5    6.49    0.66
 -12  -6  -4   25.24    3.52
  12   6   4   25.62    1.62
 -12  -6  -4   26.70    1.64
 -12  -6  -3    4.20    1.62
  12   6   3    3.99    0.75
 -12  -6  -3    3.47    0.64
  12   6   2    6.22    1.61
 -12  -6  -2    2.85    1.57
  12   6   2    5.22    0.77
 -12  -6  -2    4.89    0.73
  12   6   1  153.20   18.66
 -12  -6  -1  151.00   18.39
  12   6   1  147.00    8.04
 -12  -6  -1  152.40    8.32
  12   6   0   43.72    5.64
 -12  -6   0   44.20    5.71
  12   6   0   40.02    2.37
 -12  -6   0   35.61    2.17
  12   6  -1   19.95    2.92
 -12  -6   1   19.95    3.01
  12   6  -1   24.73    1.60
 -12  -6   1   26.13    1.70
  12   6  -2   50.23    6.32
 -12  -6   2   65.08    8.16
  12   6  -2   58.10    3.35
 -12  -6   2   66.05    3.76
  12   6  -3    1.42    1.33
 -12  -6   3    2.34    1.46
  12   6  -3    1.37    0.61
 -12  -6   3    0.37    0.65
  12   6  -4   93.32   11.48
 -12  -6   4   95.49   11.74
  12   6  -4   92.22    5.17
 -12  -6   4  102.20    5.68
  12   6  -5  162.90   19.84
 -12  -6   5  156.30   19.04
  12   6  -5  140.80    7.75
 -12  -6   5  138.20    7.62
  12   6  -6   29.26    4.01
 -12  -6   6   27.43    3.74
  12   6  -6   29.64    1.88
 -12  -6   6   27.15    1.75
  12   6  -7   26.16    3.64
  12   6  -7   36.50    2.25
 -12  -6   7   38.07    2.35
  12   6  -8   16.06    2.72
  12   6  -8   19.64    1.40
 -12  -6   8   17.72    1.31
  12   6  -9   19.43    3.16
  12   6  -9   11.30    1.07
 -12  -6   9   11.76    1.13
  12   6 -10   40.63    5.43
  12   6 -10   43.45    2.62
 -12  -6  10   47.11    2.82
  12   6 -11  145.40   17.85
  12   6 -11  116.00    6.42
 -12  -6  11  123.50    6.84
  12   6 -12    5.73    2.11
  12   6 -12    4.71    0.79
 -12  -6  12    4.02    0.76
  12   6 -13   42.87    5.65
  12   6 -13   45.91    2.70
 -12  -6  13   39.88    2.43
  12   6 -14    6.26    2.00
  12   6 -14    4.10    0.81
 -12  -6  14    4.91    0.86
  12   6 -15    2.16    1.65
  12   6 -15    4.50    0.82
 -12  -6  15    5.15    0.89
  12   6 -16    1.61    1.88
  12   6 -16    2.61    0.69
  12   6 -17   59.99    7.59
  12   6 -17   45.87    2.70
  12   6 -18    0.33    1.65
  12   6 -18    0.51    0.63
  12   6 -19    4.85    1.71
  12   6 -19    3.61    0.77
  12   6 -20    3.06    1.67
  12   6 -20    0.95    0.81
  12   6 -20    2.50    0.70
  12   6 -21    1.60    1.45
  12   6 -21    1.41    0.82
  12   6 -21    2.06    0.72
 -13  -7 -10    0.03    1.70
 -13  -7  -9    0.75    1.57
 -13  -7  -8    2.62    1.75
 -13  -7  -7   14.93    2.62
  13   7   7    7.75    0.73
 -13  -7  -6    1.71    1.68
  13   7   6    1.33    0.70
 -13  -7  -6    1.26    0.56
 -13  -7  -5   93.16   11.49
  13   7   5   87.34    4.84
 -13  -7  -5   91.22    5.03
 -13  -7  -4    9.97    2.03
  13   7   4    9.50    0.88
 -13  -7  -4    7.71    0.82
 -13  -7  -3  119.40   14.58
  13   7   3  126.20    6.93
 -13  -7  -3  124.60    6.82
 -13  -7  -2    1.09    1.59
  13   7   2    0.58    0.65
 -13  -7  -2    0.45    0.58
  13   7   1    5.27    1.46
 -13  -7  -1    8.14    1.95
  13   7   1    3.51    0.72
 -13  -7  -1    3.56    0.69
  13   7   0   15.49    2.37
 -13  -7   0   15.37    2.67
  13   7   0   13.89    1.08
 -13  -7   0   12.66    1.08
  13   7  -1   85.55   10.59
 -13  -7   1   96.47   11.87
  13   7  -1   81.62    4.58
 -13  -7   1   66.79    3.82
  13   7  -2    1.51    1.68
 -13  -7   2    1.13    1.58
  13   7  -2    1.66    0.61
 -13  -7   2    1.88    0.67
  13   7  -3  126.80   15.53
 -13  -7   3  134.90   16.48
  13   7  -3  139.90    7.69
 -13  -7   3  115.00    6.38
  13   7  -4    7.15    2.06
 -13  -7   4    9.31    2.28
  13   7  -4    8.14    0.89
 -13  -7   4    7.35    0.91
  13   7  -5   71.76    9.04
 -13  -7   5   77.65    9.70
  13   7  -5   86.89    4.90
 -13  -7   5   88.67    4.99
  13   7  -6    1.14    2.08
 -13  -7   6    0.65    1.68
  13   7  -6    2.43    0.71
 -13  -7   6    2.05    0.76
  13   7  -7   79.95   10.05
  13   7  -7   72.20    4.11
 -13  -7   7   73.11    4.17
  13   7  -8   10.14    2.23
  13   7  -8   13.86    1.20
 -13  -7   8   13.93    1.16
  13   7  -9   53.95    6.92
  13   7  -9   56.33    3.27
 -13  -7   9   57.65    3.38
  13   7 -10   16.02    2.85
  13   7 -10    9.00    1.04
 -13  -7  10    9.76    1.03
  13   7 -11   32.86    4.50
  13   7 -11   45.88    2.73
 -13  -7  11   39.84    2.45
  13   7 -12   24.46    3.61
  13   7 -12   21.65    1.50
 -13  -7  12   20.45    1.49
  13   7 -13   20.86    3.10
  13   7 -13   14.94    1.24
 -13  -7  13   14.43    1.18
  13   7 -14    2.28    1.88
  13   7 -14    3.50    0.75
 -13  -7  14    1.41    0.73
  13   7 -15    7.76    2.16
  13   7 -15    7.82    0.85
 -13  -7  15    7.30    0.93
  13   7 -16   -0.13    1.75
  13   7 -16   -0.18    0.67
 -13  -7  16   -0.05    0.72
  13   7 -17   15.41    2.67
  13   7 -17   15.26    1.16
  13   7 -18    3.99    1.87
  13   7 -18    3.27    0.66
  13   7 -19    0.43    1.84
  13   7 -19    0.76    0.61
  13   7 -20    1.69    1.56
  13   7 -20    1.13    0.65
  13   7 -21   13.84    2.25
  13   7 -21   14.21    1.27
  13   7 -21   14.34    1.15
 -14  -8  -8    2.12    1.66
 -14  -8  -7    3.00    1.77
  14   8   7    2.26    0.71
 -14  -8  -6   10.45    2.26
  14   8   6   11.35    1.11
 -14  -8  -6   11.72    1.05
 -14  -8  -5   11.48    2.36
  14   8   5   13.50    1.18
 -14  -8  -5   13.25    1.06
 -14  -8  -4   56.72    7.15
  14   8   4   55.87    3.21
 -14  -8  -4   52.28    3.01
 -14  -8  -3    7.61    1.91
  14   8   3    4.94    0.84
 -14  -8  -3    4.59    0.81
 -14  -8  -2   13.61    2.39
  14   8   2   14.56    1.13
 -14  -8  -2   14.29    1.10
 -14  -8  -1   29.33    4.11
  14   8   1   25.82    1.67
 -14  -8  -1   27.71    1.78
  14   8   0   23.71    3.34
 -14  -8   0   30.33    4.14
  14   8   0   25.48    1.67
 -14  -8   0   24.10    1.58
  14   8  -1    1.59    1.52
 -14  -8   1    0.94    1.68
  14   8  -1    1.57    0.61
 -14  -8   1    1.51    0.68
  14   8  -2   32.03    4.34
 -14  -8   2   34.32    4.62
  14   8  -2   32.28    1.99
 -14  -8   2   34.35    2.15
  14   8  -3    6.94    1.86
 -14  -8   3    7.02    2.04
  14   8  -3    8.52    0.90
 -14  -8   3    7.47    0.93
  14   8  -4   39.21    5.13
 -14  -8   4   42.34    5.54
  14   8  -4   44.36    2.63
 -14  -8   4   43.45    2.60
  14   8  -5   44.75    5.78
 -14  -8   5   44.81    5.84
  14   8  -5   43.38    2.59
 -14  -8   5   47.30    2.80
  14   8  -6   11.82    2.46
  14   8  -6    7.37    0.82
 -14  -8   6    7.30    0.89
  14   8  -7    2.14    1.99
  14   8  -7    1.21    0.64
 -14  -8   7    1.44    0.69
  14   8  -8   20.02    3.34
  14   8  -8   18.65    1.35
 -14  -8   8   17.01    1.30
  14   8  -9    0.76    2.11
  14   8  -9    3.33    0.81
 -14  -8   9    3.55    0.73
  14   8 -10   28.44    4.14
  14   8 -10   33.36    2.09
 -14  -8  10   31.51    2.02
  14   8 -11    4.12    2.23
  14   8 -11    6.42    0.91
 -14  -8  11    6.16    0.89
  14   8 -12    0.53    2.10
  14   8 -12    0.00    0.68
 -14  -8  12    1.47    0.80
  14   8 -13    8.28    2.36
  14   8 -13    7.37    0.81
 -14  -8  13    6.26    0.85
  14   8 -14   28.35    4.12
  14   8 -14   22.25    1.52
 -14  -8  14   22.63    1.53
  14   8 -15    2.40    2.01
  14   8 -15    0.26    0.60
 -14  -8  15    0.76    0.68
  14   8 -16   13.29    2.52
  14   8 -16   12.14    0.99
 -14  -8  16   11.33    1.07
  14   8 -17    2.39    1.96
  14   8 -17    2.33    0.64
 -14  -8  17    2.62    0.77
  14   8 -18    0.92    1.68
  14   8 -18    1.97    0.72
  14   8 -19   11.07    2.31
  14   8 -19   12.11    1.05
  14   8 -20   -0.14    1.71
  14   8 -20    0.60    0.68
 -15  -9  -7    0.35    1.88
 -15  -9  -6    4.26    1.75
  15   9   6    4.72    1.01
 -15  -9  -5    4.10    2.05
  15   9   5    3.90    0.89
 -15  -9  -5    4.00    0.89
 -15  -9  -4    2.05    1.88
  15   9   4    1.75    0.79
 -15  -9  -4    2.14    0.79
 -15  -9  -3    0.86    1.81
  15   9   3   -0.18    0.75
 -15  -9  -3   -1.12    0.76
 -15  -9  -2   32.67    4.47
  15   9   2   32.19    2.01
 -15  -9  -2   35.17    2.20
 -15  -9  -1    1.55    1.66
  15   9   1    0.73    0.71
 -15  -9  -1    1.36    0.68
 -15  -9   0   11.02    2.28
  15   9   0   10.80    0.99
 -15  -9   0   10.57    0.97
  15   9  -1    3.21    1.67
 -15  -9   1    4.51    1.89
  15   9  -1    0.77    0.61
 -15  -9   1    2.07    0.69
  15   9  -2    0.43    1.64
 -15  -9   2   -0.35    1.90
  15   9  -2    0.12    0.60
 -15  -9   2    0.70    0.67
  15   9  -3    2.06    1.62
 -15  -9   3    2.07    1.86
  15   9  -3    1.45    0.65
 -15  -9   3    1.74    0.62
  15   9  -4  112.70   13.81
 -15  -9   4  110.70   13.60
  15   9  -4   99.87    5.55
 -15  -9   4   99.42    5.54
  15   9  -5    9.36    2.40
 -15  -9   5    9.84    2.11
  15   9  -5   12.50    1.07
 -15  -9   5   13.03    1.13
  15   9  -6   26.97    3.99
  15   9  -6   32.09    1.98
 -15  -9   6   31.25    1.97
  15   9  -7    6.20    2.31
  15   9  -7    5.89    0.81
 -15  -9   7    5.56    0.80
  15   9  -8    0.67    2.08
  15   9  -8    2.93    0.75
 -15  -9   8    3.35    0.74
  15   9  -9   -1.91    2.13
  15   9  -9    0.25    0.59
 -15  -9   9    0.27    0.63
  15   9 -10    8.78    2.50
  15   9 -10    9.09    0.95
 -15  -9  10    9.88    0.96
  15   9 -11    3.67    2.07
  15   9 -11    2.74    0.66
 -15  -9  11    1.56    0.74
  15   9 -12   92.73   11.60
  15   9 -12   81.16    4.57
 -15  -9  12   84.50    4.75
  15   9 -13    0.68    2.29
  15   9 -13    1.64    0.71
 -15  -9  13    0.13    0.74
  15   9 -14   25.90    3.97
  15   9 -14   29.47    1.82
 -15  -9  14   27.47    1.79
  15   9 -15    4.91    2.19
  15   9 -15    1.47    0.64
 -15  -9  15    0.98    0.65
  15   9 -16    0.57    2.01
  15   9 -16    0.21    0.65
 -15  -9  16   -0.33    0.63
  15   9 -17    1.87    2.13
  15   9 -17    0.95    0.70
 -15  -9  17   -0.14    0.66
  15   9 -18    6.71    2.30
  15   9 -18    2.94    0.64
 -15  -9  18    4.17    0.75
  15   9 -19    1.32    1.82
  15   9 -19    1.56    0.70
  15   9 -20   10.49    2.24
  15   9 -20   12.93    1.03
 -16 -10  -5    0.16    2.46
  16  10   5   -0.34    0.97
 -16 -10  -5    0.16    1.20
 -16 -10  -4    2.66    1.94
  16  10   4    3.95    0.92
 -16 -10  -4    3.67    0.91
 -16 -10  -3    5.40    2.43
  16  10   3    3.26    0.88
 -16 -10  -3    3.05    0.87
 -16 -10  -2   14.44    2.97
  16  10   2   12.56    1.11
 -16 -10  -2   11.65    1.14
 -16 -10  -1   38.85    5.28
  16  10   1   37.13    2.26
 -16 -10  -1   36.71    2.24
 -16 -10   0    6.25    1.98
  16  10   0    3.63    0.83
 -16 -10   0    3.68    0.76
  16  10  -1    6.83    1.90
 -16 -10   1    7.26    2.26
  16  10  -1    7.23    0.91
 -16 -10   1    8.28    0.88
  16  10  -2   25.07    3.65
 -16 -10   2   26.20    3.91
  16  10  -2   26.14    1.69
 -16 -10   2   27.38    1.77
  16  10  -3    2.56    1.87
 -16 -10   3    3.75    2.04
  16  10  -3    2.88    0.69
 -16 -10   3    1.55    0.69
  16  10  -4    0.86    1.77
 -16 -10   4    0.55    1.83
  16  10  -4    3.61    0.73
 -16 -10   4    4.89    0.78
  16  10  -5   40.36    5.36
  16  10  -5   35.79    2.16
 -16 -10   5   34.86    2.15
  16  10  -6    5.52    2.10
  16  10  -6    5.03    0.72
 -16 -10   6    5.88    0.82
  16  10  -7   26.31    3.99
  16  10  -7   26.15    1.67
 -16 -10   7   25.33    1.64
  16  10  -8   -1.09    2.29
  16  10  -8    0.69    0.66
 -16 -10   8    1.48    0.65
  16  10  -9    0.17    2.39
  16  10  -9    1.24    0.61
 -16 -10   9    1.12    0.66
  16  10 -10   20.87    3.61
  16  10 -10   25.10    1.64
 -16 -10  10   25.57    1.67
  16  10 -11   15.40    3.20
  16  10 -11   12.41    1.03
 -16 -10  11   12.12    1.03
  16  10 -12   -0.52    2.24
  16  10 -12    0.85    0.61
 -16 -10  12    0.43    0.71
  16  10 -13   34.88    4.96
  16  10 -13   32.94    2.00
 -16 -10  13   33.83    2.08
  16  10 -14    2.24    2.49
  16  10 -14    0.96    0.56
 -16 -10  14    0.06    0.67
  16  10 -15    1.40    2.26
  16  10 -15    1.37    0.65
 -16 -10  15    3.44    0.77
  16  10 -16   15.31    3.07
  16  10 -16   12.60    1.05
 -16 -10  16   14.13    1.17
  16  10 -17    3.75    2.08
  16  10 -17    1.58    0.70
 -16 -10  17    1.59    0.74
  16  10 -18   -1.13    2.00
  16  10 -18    0.68    0.56
 -16 -10  18    1.16    0.73
  16  10 -19    1.26    1.99
  16  10 -19    1.17    0.69
 -17 -11  -3   11.63    3.57
  17  11   3   14.21    1.38
 -17 -11  -3   13.51    1.23
 -17 -11  -2    1.56    2.69
  17  11   2    0.85    0.91
 -17 -11  -2    0.31    0.86
 -17 -11  -1    0.64    2.58
  17  11   1    2.81    0.88
 -17 -11  -1    2.62    0.86
 -17 -11   0    4.83    2.51
  17  11   0    5.90    0.86
 -17 -11   0    4.89    0.90
 -17 -11   1    3.83    2.72
  17  11  -1    2.03    0.71
 -17 -11   1    3.04    0.78
  17  11  -2   -0.01    1.89
 -17 -11   2   -0.87    2.23
  17  11  -2    0.34    0.70
 -17 -11   2    0.15    0.62
  17  11  -3   29.95    4.32
 -17 -11   3   33.13    4.67
  17  11  -3   30.48    1.90
 -17 -11   3   34.08    2.07
  17  11  -4    0.12    1.97
  17  11  -4   -0.20    0.64
 -17 -11   4   -1.72    0.63
  17  11  -5   -3.14    2.05
  17  11  -5    2.20    0.68
 -17 -11   5    2.13    0.73
  17  11  -6    0.72    2.06
  17  11  -6    0.61    0.64
 -17 -11   6    0.21    0.67
  17  11  -7    7.38    2.48
  17  11  -7    5.75    0.80
 -17 -11   7    5.51    0.77
  17  11  -8    2.08    2.31
  17  11  -8    2.75    0.63
 -17 -11   8    2.10    0.71
  17  11  -9   16.84    3.22
  17  11  -9   15.72    1.21
 -17 -11   9   16.55    1.26
  17  11 -10    0.18    2.29
  17  11 -10    0.39    0.66
 -17 -11  10    0.37    0.69
  17  11 -11    3.15    2.34
  17  11 -11    8.59    0.85
 -17 -11  11    8.67    0.90
  17  11 -12    1.47    2.56
  17  11 -12   -0.53    0.68
 -17 -11  12    1.08    0.65
  17  11 -13    2.03    2.48
  17  11 -13    0.33    0.64
 -17 -11  13    0.59    0.61
  17  11 -14    2.61    2.25
  17  11 -14    0.69    0.67
 -17 -11  14    0.60    0.70
  17  11 -15    7.43    2.68
  17  11 -15    7.04    0.76
 -17 -11  15    7.34    0.83
  17  11 -16    4.12    2.34
  17  11 -16    0.60    0.59
 -17 -11  16   -0.25    0.66
  17  11 -17    5.11    2.24
  17  11 -17    7.38    0.89
 -17 -11  17    8.04    0.93
 -18 -12   0    0.00    3.09
  18  12   0    1.34    0.85
 -18 -12   0    1.47    0.90
 -18 -12   1   -0.81    2.69
  18  12  -1    0.49    0.89
 -18 -12   1   -0.35    0.87
 -18 -12   2    1.44    2.64
  18  12  -2    1.68    0.75
 -18 -12   2    3.24    0.86
  18  12  -3    0.64    0.77
 -18 -12   3    0.72    0.76
  18  12  -4    4.28    2.21
  18  12  -4    4.59    0.79
 -18 -12   4    2.76    0.84
  18  12  -5    5.14    2.40
  18  12  -5    5.46    0.79
 -18 -12   5    6.50    0.83
  18  12  -6   -1.33    2.49
  18  12  -6   -0.66    0.63
 -18 -12   6    1.16    0.70
  18  12  -7    2.92    2.62
  18  12  -7    4.96    0.76
 -18 -12   7    5.21    0.77
  18  12  -8    5.16    2.69
  18  12  -8    1.32    0.69
 -18 -12   8    0.83    0.68
  18  12  -9    2.14    2.58
  18  12  -9    4.16    0.71
 -18 -12   9    3.58    0.73
  18  12 -10    9.46    3.02
  18  12 -10    7.53    0.83
 -18 -12  10    7.39    0.83
  18  12 -11    6.43    2.80
  18  12 -11    6.44    0.78
 -18 -12  11    5.78    0.79
  18  12 -12    2.88    2.44
  18  12 -12    0.34    0.57
 -18 -12  12    0.09    0.66
  18  12 -13    1.58    2.33
  18  12 -13    2.54    0.61
 -18 -12  13    3.30    0.69
  18  12 -14    0.32    2.32
  18  12 -14   -0.44    0.65
 -18 -12  14    0.45    0.62
  18  12 -15   -0.41    2.24
  18  12 -15    2.12    0.65
 -18 -12  15    1.36    0.69
  18  12 -16    1.18    0.58
 -18 -12  16    2.17    0.70
  19  13  -4    0.72    0.75
 -19 -13   4    1.77    0.82
  19  13  -5    0.62    2.47
  19  13  -5    2.56    0.87
 -19 -13   5    3.77    0.84
  19  13  -6   10.97    3.09
  19  13  -6   10.04    0.94
 -19 -13   6    9.64    0.99
  19  13  -7   -0.32    2.79
  19  13  -7    0.11    0.64
 -19 -13   7   -0.41    0.75
  19  13  -8    5.02    3.06
  19  13  -8    6.63    0.76
 -19 -13   8    8.07    0.84
  19  13  -9   -1.74    2.84
  19  13  -9    0.80    0.69
 -19 -13   9    1.23    0.71
  19  13 -10    1.10    2.63
  19  13 -10    3.09    0.66
 -19 -13  10    2.03    0.66
  19  13 -11    2.30    2.71
  19  13 -11    2.81    0.70
 -19 -13  11    3.02    0.69
  19  13 -12    8.07    2.96
  19  13 -12    8.66    0.96
 -19 -13  12    7.55    0.86
 -12 -20   7    0.89    0.73
  12  20  -7    1.04    0.58
 -12 -20   6   -0.33    0.67
  12  20  -6    1.04    0.61
 -12 -20   5    3.00    0.71
  12  20  -5    3.58    0.69
 -12 -20   4    1.06    0.75
  12  20  -4    1.25    0.65
  12  20  -3    4.44    0.83
  11  19 -11    0.95    1.81
  11  19 -11   -0.30    1.78
 -11 -19  11    1.26    0.78
  11  19 -11    1.41    0.69
 -11 -19  10    0.44    0.71
  11  19 -10   -0.64    0.57
 -11 -19   9   16.21    1.22
  11  19  -9   15.68    1.18
 -11 -19   8    1.03    0.73
  11  19  -8    1.20    0.64
 -11 -19   7    4.02    0.67
  11  19  -7    5.11    0.78
 -11 -19   6    0.43    0.66
  11  19  -6    0.50    0.60
 -11 -19   5    2.24    0.73
  11  19  -5    1.12    0.67
 -11 -19   4   11.49    1.04
  11  19  -4   12.65    1.07
 -11 -19   3   21.36    1.48
  11  19  -3   21.46    1.45
 -11 -19   2    2.57    0.76
  11  19  -2    2.50    0.67
 -11 -19   1   12.03    1.01
  11  19  -1   11.45    1.04
 -11 -19   0    8.99    1.01
  11  19   0    7.15    0.87
 -11 -19  -1    3.21    0.92
  11  19   1    1.78    0.78
 -11 -19  -2    2.00    0.89
  11  19   2    1.96    0.79
  10  18 -14    2.30    2.80
  10  18 -14    1.68    2.32
  10  18 -14    7.32    0.82
  10  18 -13    3.40    1.95
  10  18 -13    1.70    2.31
 -10 -18  13    0.88    0.61
  10  18 -13    1.16    0.63
  10  18 -12    1.77    1.90
  10  18 -12   -2.58    2.08
 -10 -18  12    0.82    0.74
  10  18 -12    0.36    0.61
 -10 -18  11    3.46    0.80
  10  18 -11    3.73    0.71
  10  18 -10    7.71    2.20
  10  18 -10    5.05    1.81
 -10 -18  10    7.72    0.90
  10  18 -10    8.02    0.87
 -10 -18   9    2.12    0.73
  10  18  -9    1.42    0.64
 -10 -18   8   29.43    1.85
  10  18  -8   32.31    2.00
 -10 -18   7    0.40    0.57
  10  18  -7   -0.01    0.64
 -10 -18   6    9.94    1.00
  10  18  -6   11.77    1.02
 -10 -18   5    6.50    0.82
  10  18  -5    7.07    0.87
 -10 -18   4    3.48    0.70
  10  18  -4    4.20    0.76
 -10 -18   3   -0.12    0.65
  10  18  -3    0.59    0.73
 -10 -18   2   37.72    2.28
  10  18  -2   36.69    2.23
 -10 -18   1    1.37    0.66
  10  18  -1    1.40    0.66
 -10 -18   0    7.41    0.91
  10  18   0    8.51    0.93
 -10 -18  -1    2.34    0.68
  10  18   1    0.23    0.67
 -10 -18  -2    0.02    0.70
  10  18   2    1.22    0.71
 -10 -18  -3    1.34    0.79
  10  18   3    2.03    0.71
 -10 -18  -4   11.39    1.16
  10  18   4   10.42    0.99
 -10 -18  -5   -0.40    0.88
  10  18   5    0.69    0.93
   9  17 -15    4.00    1.83
   9  17 -15    1.18    1.97
  -9 -17  15    1.04    0.75
   9  17 -15   -0.28    0.67
   9  17 -14    2.58    2.00
   9  17 -14    1.68    1.69
  -9 -17  14   -0.26    0.70
   9  17 -14    1.39    0.69
   9  17 -13    0.52    1.64
   9  17 -13    1.67    2.07
  -9 -17  13    1.69    0.74
   9  17 -13    1.17    0.66
   9  17 -12    9.37    1.99
   9  17 -12    8.03    2.25
  -9 -17  12   11.54    1.08
   9  17 -12   10.61    0.96
   9  17 -11    0.83    1.55
   9  17 -11    0.38    1.81
  -9 -17  11   -0.12    0.73
   9  17 -11   -0.66    0.66
   9  17 -10   24.80    3.54
   9  17 -10   22.54    3.18
  -9 -17  10   21.05    1.45
   9  17 -10   20.46    1.39
   9  17  -9    3.42    1.94
   9  17  -9    6.70    1.61
  -9 -17   9    8.18    0.84
   9  17  -9    8.42    0.83
   9  17  -8   -0.60    1.15
   9  17  -8    0.74    1.12
  -9 -17   8    1.77    0.64
   9  17  -8    1.35    0.72
  -9 -17   7    4.29    0.76
   9  17  -7    4.86    0.79
  -9 -17   6    7.28    0.93
   9  17  -6    6.72    0.80
  -9 -17   5    2.22    0.73
   9  17  -5    1.53    0.69
  -9 -17   4   24.19    1.63
   9  17  -4   25.67    1.65
  -9 -17   3    5.97    0.88
   9  17  -3    6.93    0.87
  -9 -17   2    2.41    0.69
   9  17  -2    3.17    0.70
  -9 -17   1    2.90    0.68
   9  17  -1    2.98    0.68
  -9 -17   0   27.88    1.80
   9  17   0   23.15    1.56
  -9 -17  -1    8.38    0.97
   9  17   1    9.92    0.97
  -9 -17  -2    8.54    0.94
   9  17   2    7.31    0.80
  -9 -17  -3    0.78    0.74
   9  17   3    0.08    0.59
  -9 -17  -4   11.46    1.05
   9  17   4   10.43    0.98
  -9 -17  -5    2.96    0.83
   9  17   5    3.82    0.80
  -9 -17  -6    5.08    0.95
   9  17   6    4.95    1.00
  -9 -17  -7    0.62    0.92
   9  17   7    0.83    0.98
   8  16 -16    0.18    1.42
   8  16 -16    2.50    1.75
  -8 -16  16    0.47    0.62
   8  16 -16    0.38    0.69
   8  16 -15    7.56    1.89
   8  16 -15    5.68    1.57
  -8 -16  15    6.24    0.84
   8  16 -15    8.20    0.91
   8  16 -14    6.41    1.88
   8  16 -14    9.47    1.87
  -8 -16  14    8.05    0.96
   8  16 -14    6.36    0.86
   8  16 -13    8.83    1.99
   8  16 -13    8.02    1.74
  -8 -16  13   10.18    0.94
   8  16 -13   11.58    0.99
   8  16 -12    2.65    1.79
   8  16 -12    2.59    1.30
  -8 -16  12    1.06    0.71
   8  16 -12    1.65    0.63
   8  16 -11   13.64    2.40
   8  16 -11   15.41    2.36
  -8 -16  11   13.56    1.14
   8  16 -11   15.51    1.20
   8  16 -10   -1.28    1.58
   8  16 -10    1.35    1.33
  -8 -16  10    1.16    0.67
   8  16 -10    0.47    0.59
   8  16  -9   35.56    4.63
   8  16  -9   31.71    4.12
  -8 -16   9   29.60    1.89
   8  16  -9   28.56    1.81
   8  16  -8    8.05    1.78
   8  16  -8    9.47    1.71
  -8 -16   8    3.90    0.80
   8  16  -8    4.58    0.77
   8  16  -7   46.09    5.73
   8  16  -7   50.36    6.22
  -8 -16   7   48.97    2.88
   8  16  -7   50.19    2.90
  -8 -16   6    4.82    0.89
   8  16  -6    4.83    0.81
  -8 -16   5   11.15    1.06
   8  16  -5   13.40    1.10
  -8 -16   4    4.22    0.75
   8  16  -4    3.17    0.77
  -8 -16   3   29.37    1.91
   8  16  -3   30.62    1.95
  -8 -16   2   21.59    1.54
   8  16  -2   21.19    1.50
  -8 -16   1    3.14    0.81
   8  16  -1    4.53    0.77
  -8 -16   0    6.73    0.89
   8  16   0    7.16    0.82
  -8 -16  -1    6.89    0.88
   8  16   1    8.26    0.91
  -8 -16  -2   -0.11    0.72
   8  16   2    0.70    0.69
  -8 -16  -3   46.86    2.76
   8  16   3   47.29    2.76
  -8 -16  -4    0.92    0.71
   8  16   4    1.87    0.70
  -8 -16  -5   -0.39    0.75
   8  16   5    0.86    0.66
  -8 -16  -6   18.06    1.36
   8  16   6   18.10    1.33
  -8 -16  -7    4.08    0.83
   8  16   7    3.75    0.82
  -8 -16  -8    2.02    0.93
   8  16   8    3.55    0.93
  -8 -16  -9    7.28    1.14
   8  16   9    6.39    1.03
   7  15 -17    1.40    1.53
  -7 -15  17    0.52    0.82
   7  15 -17    0.24    0.74
   7  15 -16    1.97    1.35
  -7 -15  16    0.20    0.72
   7  15 -16    0.53    0.71
   7  15 -15   24.03    3.29
  -7 -15  15   28.59    1.84
   7  15 -15   25.29    1.63
   7  15 -14    0.14    1.25
  -7 -15  14    1.00    0.68
   7  15 -14    0.24    0.70
   7  15 -13   34.79    4.52
  -7 -15  13   28.49    1.78
   7  15 -13   30.38    1.87
   7  15 -12    1.38    1.22
  -7 -15  12    1.82    0.64
   7  15 -12    3.77    0.69
   7  15 -11   -0.08    1.27
   7  15 -11   -0.32    1.11
  -7 -15  11    0.71    0.67
   7  15 -11    0.79    0.61
   7  15 -10    1.93    1.30
   7  15 -10   -0.42    1.08
  -7 -15  10    0.81    0.70
   7  15 -10    0.30    0.67
   7  15  -9   45.29    5.75
   7  15  -9   36.99    4.69
  -7 -15   9   40.89    2.44
   7  15  -9   39.88    2.39
   7  15  -8    0.35    1.28
   7  15  -8   -0.26    1.10
  -7 -15   8    0.86    0.78
   7  15  -8   -0.04    0.63
   7  15  -7   72.81    8.92
   7  15  -7   66.60    8.16
  -7 -15   7   59.61    3.45
   7  15  -7   59.54    3.46
   7  15  -6    2.92    1.09
   7  15  -6    4.30    1.07
  -7 -15   6    3.30    0.83
   7  15  -6    1.87    0.66
  -7 -15   5   19.13    1.44
   7  15  -5   20.14    1.48
  -7 -15   4    0.38    0.82
   7  15  -4    0.49    0.67
  -7 -15   3   10.95    1.03
   7  15  -3   13.14    1.16
  -7 -15   2    3.60    0.83
   7  15  -2    4.05    0.74
  -7 -15   1   73.66    4.18
   7  15  -1   75.55    4.30
  -7 -15   0   10.61    0.99
   7  15   0    9.39    0.91
  -7 -15  -1    0.33    0.82
   7  15   1    0.32    0.66
  -7 -15  -2    5.38    0.88
   7  15   2    5.33    0.81
  -7 -15  -3    1.38    0.81
   7  15   3    0.91    0.65
  -7 -15  -4    9.08    1.00
   7  15   4    9.61    0.98
  -7 -15  -5   17.75    1.33
   7  15   5   19.93    1.41
  -7 -15  -6    1.48    0.75
   7  15   6    1.71    0.76
  -7 -15  -7   43.03    2.57
   7  15   7   40.03    2.41
  -7 -15  -8    3.01    0.83
   7  15   8    3.57    0.83
  -7 -15  -9    1.68    1.62
  -7 -15  -9    0.02    1.47
  -7 -15  -9    1.81    0.94
   7  15   9    0.26    0.81
  -7 -15 -10    3.08    2.01
  -7 -15 -10    1.83    1.67
  -7 -15 -10    1.97    0.91
   7  15  10    1.95    0.94
  -7 -15 -11   18.30    1.53
   7  15  11   18.98    1.51
   6  14 -17    3.94    1.40
  -6 -14  17    1.81    0.82
   6  14 -17    2.40    0.72
   6  14 -16    2.90    1.35
  -6 -14  16    3.74    0.72
   6  14 -16    4.01    0.75
   6  14 -15    5.60    1.38
  -6 -14  15    1.98    0.73
   6  14 -15    3.11    0.73
   6  14 -14   30.76    3.99
  -6 -14  14   39.44    2.37
   6  14 -14   37.03    2.25
   6  14 -13    8.85    1.65
  -6 -14  13    9.27    0.94
   6  14 -13    7.92    0.93
   6  14 -12    5.69    1.32
  -6 -14  12    3.97    0.72
   6  14 -12    3.83    0.74
   6  14 -11   10.36    1.71
  -6 -14  11   10.06    1.03
   6  14 -11   10.65    1.04
   6  14 -10    8.55    1.53
  -6 -14  10   12.53    1.08
   6  14 -10   12.18    1.00
   6  14  -9    5.24    1.28
  -6 -14   9    3.88    0.79
   6  14  -9    3.25    0.82
   6  14  -8    0.96    0.99
   6  14  -8    2.01    1.26
  -6 -14   8    2.57    0.70
   6  14  -8    2.86    0.74
   6  14  -7    1.01    0.95
   6  14  -7    0.09    1.16
  -6 -14   7    1.65    0.82
   6  14  -7    2.32    0.71
   6  14  -6   20.97    2.81
   6  14  -6   21.18    2.79
  -6 -14   6   16.31    1.30
   6  14  -6   19.92    1.45
   6  14  -5  118.30   14.34
   6  14  -5  108.10   13.10
  -6 -14   5   95.71    5.37
   6  14  -5   91.38    5.11
  -6 -14   4    5.07    0.91
   6  14  -4    4.93    0.84
  -6 -14   3    0.91    0.83
   6  14  -3    2.11    0.72
  -6 -14   2   91.67    5.15
   6  14  -2   93.30    5.23
  -6 -14   1    2.30    0.73
   6  14  -1    3.25    0.78
  -6 -14   0   18.44    1.44
   6  14   0   19.56    1.40
  -6 -14  -1   20.44    1.50
   6  14   1   22.74    1.52
  -6 -14  -2    9.15    0.99
   6  14   2   10.19    1.01
  -6 -14  -3   60.03    3.48
   6  14   3   62.74    3.62
  -6 -14  -4   30.80    1.96
   6  14   4   30.80    1.94
  -6 -14  -5    0.26    0.74
   6  14   5   -0.34    0.70
  -6 -14  -6   39.19    2.38
   6  14   6   34.44    2.15
  -6 -14  -7    0.59    0.95
  -6 -14  -7   -0.35    1.01
  -6 -14  -7    0.78    0.69
   6  14   7    0.82    0.68
  -6 -14  -8   18.18    2.56
  -6 -14  -8   16.50    2.50
  -6 -14  -8   18.59    1.36
   6  14   8   16.47    1.26
  -6 -14  -9    8.93    1.88
  -6 -14  -9   11.03    1.93
  -6 -14  -9    6.58    0.93
   6  14   9    7.87    0.95
  -6 -14 -10    2.50    1.44
  -6 -14 -10    3.93    2.00
  -6 -14 -10    0.27    0.87
   6  14  10    1.93    0.84
  -6 -14 -11    1.56    2.16
  -6 -14 -11    1.42    1.64
  -6 -14 -11    1.56    1.02
   6  14  11    0.84    0.81
  -6 -14 -12   14.27    2.46
  -6 -14 -12   13.03    2.51
  -6 -14 -12   17.89    1.47
   6  14  12   16.08    1.50
   5  13 -18    6.82    1.64
  -5 -13  18    5.69    0.97
   5  13 -18    6.20    0.87
   5  13 -17    2.26    1.22
  -5 -13  17    2.21    0.81
   5  13 -17    1.47    0.69
   5  13 -16   12.44    1.99
  -5 -13  16    9.50    1.00
   5  13 -16    9.23    0.97
   5  13 -15    0.39    1.12
  -5 -13  15    0.70    0.67
   5  13 -15    0.61    0.67
   5  13 -14    7.09    1.47
  -5 -13  14   10.99    1.03
   5  13 -14   10.14    0.96
   5  13 -13    5.14    1.30
  -5 -13  13    5.45    0.82
   5  13 -13    8.04    0.81
   5  13 -12   35.29    4.47
  -5 -13  12   45.80    2.74
   5  13 -12   48.39    2.85
   5  13 -11    0.17    0.90
  -5 -13  11   -0.21    0.69
   5  13 -11    0.82    0.74
   5  13 -10   43.82    5.50
  -5 -13  10   44.14    2.65
   5  13 -10   51.52    3.04
   5  13  -9    9.73    1.61
  -5 -13   9   14.50    1.21
   5  13  -9   12.88    1.06
   5  13  -8    6.50    1.36
  -5 -13   8    8.64    0.92
   5  13  -8    8.04    0.91
   5  13  -7    1.30    0.91
  -5 -13   7    0.44    0.66
   5  13  -7    0.79    0.68
   5  13  -6  103.50   12.57
  -5 -13   6  121.70    6.75
   5  13  -6  124.00    6.86
   5  13  -5   22.30    2.90
   5  13  -5   22.27    2.94
  -5 -13   5   24.03    1.69
   5  13  -5   27.32    1.82
   5  13  -4  422.40   50.97
   5  13  -4  377.70   45.57
  -5 -13   4  394.30   21.29
   5  13  -4  325.80   17.60
  -5 -13   3   13.71    1.25
   5  13  -3   13.71    1.14
  -5 -13   2    9.30    1.04
   5  13  -2   10.56    0.97
  -5 -13   1    1.67    0.80
   5  13  -1    0.93    0.70
  -5 -13   0   22.61    1.57
   5  13   0   19.60    1.44
  -5 -13  -1   16.11    1.31
   5  13   1   15.24    1.25
  -5 -13  -2  421.80   22.75
   5  13   2  392.00   21.16
  -5 -13  -3    1.47    0.72
   5  13   3    2.40    0.68
  -5 -13  -4   55.90    3.25
   5  13   4   55.99    3.26
  -5 -13  -5    0.93    0.64
   5  13   5   -0.58    0.66
  -5 -13  -6    3.30    1.01
  -5 -13  -6    3.30    0.91
  -5 -13  -6    2.90    0.77
   5  13   6    3.43    0.78
  -5 -13  -7    5.18    1.24
  -5 -13  -7    7.62    1.38
  -5 -13  -7    5.99    0.89
   5  13   7    4.87    0.77
  -5 -13  -8    2.98    1.24
  -5 -13  -8    4.09    1.20
  -5 -13  -8    2.68    0.72
   5  13   8    3.36    0.71
  -5 -13  -9    3.62    1.39
  -5 -13  -9    3.68    0.78
   5  13   9    4.68    0.78
  -5 -13 -10   36.42    4.72
  -5 -13 -10   36.99    2.25
   5  13  10   37.53    2.32
  -5 -13 -11    3.19    1.60
  -5 -13 -11    1.49    0.83
   5  13  11    0.86    0.80
  -5 -13 -12    1.24    1.66
  -5 -13 -12    0.55    0.81
   5  13  12   -0.36    0.82
  -5 -13 -13   -0.18    1.79
  -5 -13 -13    0.34    0.93
   5  13  13   -0.77    0.91
  -5 -13 -14    3.05    2.17
  -5 -13 -14    2.94    1.18
   5  13  14    3.93    1.14
   4  12 -18    0.11    1.12
  -4 -12  18   -0.07    0.86
   4  12 -18   -0.17    0.76
   4  12 -17    7.02    1.51
  -4 -12  17    9.23    1.02
   4  12 -17    9.22    0.95
   4  12 -16    3.01    1.20
  -4 -12  16    4.91    0.89
   4  12 -16    4.67    0.76
   4  12 -15    7.14    1.52
  -4 -12  15    6.79    0.83
   4  12 -15    7.12    0.81
   4  12 -14   50.75    6.34
  -4 -12  14   49.82    2.92
   4  12 -14   48.74    2.82
   4  12 -13   25.44    3.35
  -4 -12  13   28.60    1.85
   4  12 -13   30.64    1.89
   4  12 -12    0.62    1.01
  -4 -12  12   -0.08    0.67
   4  12 -12    1.08    0.71
   4  12 -11   46.58    5.91
  -4 -12  11   67.23    3.85
   4  12 -11   68.62    3.89
   4  12 -10   12.00    1.92
  -4 -12  10   15.07    1.22
   4  12 -10   15.34    1.27
   4  12  -9   89.03   10.89
  -4 -12   9  113.30    6.29
   4  12  -9  115.90    6.40
   4  12  -8  120.60   14.65
  -4 -12   8  126.00    6.97
   4  12  -8  130.90    7.21
   4  12  -7   23.76    3.09
  -4 -12   7   30.45    1.93
   4  12  -7   29.95    1.92
   4  12  -6   78.78    9.63
  -4 -12   6   79.65    4.50
   4  12  -6   85.79    4.80
   4  12  -5    8.60    1.41
  -4 -12   5    9.13    0.97
   4  12  -5   14.03    1.14
   4  12  -4   26.00    3.27
   4  12  -4   24.95    3.17
  -4 -12   4   17.78    1.34
   4  12  -4   17.37    1.34
   4  12  -3  130.10   15.74
   4  12  -3  134.00   16.23
  -4 -12   3  150.80    8.32
   4  12  -3  138.90    7.63
  -4 -12   2  157.80    8.66
   4  12  -2  166.70    9.14
  -4 -12   1    1.20    0.73
   4  12  -1    0.53    0.68
  -4 -12   0  168.40    9.23
   4  12   0  165.80    9.09
  -4 -12  -1   30.83    1.97
   4  12   1   29.95    1.90
  -4 -12  -2   22.77    1.58
   4  12   2   23.17    1.58
  -4 -12  -3  196.50   10.73
   4  12   3  200.50   10.94
  -4 -12  -4   96.27    5.38
   4  12   4   93.56    5.23
  -4 -12  -5    0.22    0.67
  -4 -12  -5    0.51    0.60
  -4 -12  -5   -0.40    0.73
   4  12   5    1.21    0.68
  -4 -12  -6   63.90    7.81
  -4 -12  -6   54.33    6.66
  -4 -12  -6   51.80    3.03
   4  12   6   46.92    2.77
  -4 -12  -7    0.45    0.83
  -4 -12  -7    2.06    1.09
  -4 -12  -7    2.54    0.75
   4  12   7    1.26    0.68
  -4 -12  -8    5.19    1.22
  -4 -12  -8    6.12    0.81
   4  12   8    5.94    0.82
  -4 -12  -9   28.32    3.68
  -4 -12  -9   28.77    1.86
   4  12   9   29.50    1.88
  -4 -12 -10    8.24    1.60
  -4 -12 -10    8.51    0.95
   4  12  10    8.49    0.89
  -4 -12 -11    5.81    1.45
  -4 -12 -11    6.45    0.82
   4  12  11    5.88    0.90
  -4 -12 -12    8.16    1.72
  -4 -12 -12    4.78    0.91
   4  12  12    6.39    0.95
  -4 -12 -13   -0.68    1.56
  -4 -12 -13    0.00    0.83
   4  12  13   -0.33    0.80
  -4 -12 -14   10.52    2.04
  -4 -12 -14    7.95    0.98
   4  12  14    7.57    1.03
  -4 -12 -15   10.46    2.23
  -4 -12 -15   14.80    1.51
   3  11 -18    0.87    0.93
   3  11 -18    0.12    0.83
   3  11 -17    0.91    1.07
  -3 -11  17    1.05    0.80
   3  11 -17    0.62    0.77
   3  11 -16    1.56    1.07
  -3 -11  16    0.22    0.76
   3  11 -16    0.47    0.74
   3  11 -15   25.06    3.29
  -3 -11  15   29.33    1.88
   3  11 -15   27.84    1.74
   3  11 -14    2.60    1.06
  -3 -11  14    0.89    0.62
   3  11 -14    2.60    0.63
   3  11 -13   83.27   10.20
  -3 -11  13   85.24    4.77
   3  11 -13   88.03    4.88
   3  11 -12    4.14    1.16
  -3 -11  12    2.78    0.76
   3  11 -12    2.99    0.79
   3  11 -11    3.31    1.11
  -3 -11  11    1.36    0.72
   3  11 -11    1.21    0.66
   3  11 -10    8.24    1.55
  -3 -11  10    7.07    0.87
   3  11 -10    6.70    0.87
   3  11  -9   31.90    4.11
  -3 -11   9   34.93    2.16
   3  11  -9   37.35    2.34
   3  11  -8    1.27    0.96
  -3 -11   8    1.09    0.65
   3  11  -8    0.86    0.60
   3  11  -7  170.80   20.69
  -3 -11   7  178.20    9.74
   3  11  -7  178.50    9.73
   3  11  -6    0.04    0.87
  -3 -11   6    0.78    0.68
   3  11  -6    1.67    0.72
   3  11  -5   46.13    5.70
  -3 -11   5   52.79    3.09
   3  11  -5   52.55    3.05
   3  11  -4    0.30    0.78
  -3 -11   4    1.37    0.78
   3  11  -4    1.59    0.67
   3  11  -3    7.06    1.15
  -3 -11   3    9.02    0.98
   3  11  -3   10.19    1.04
   3  11  -2   51.15    6.24
   3  11  -2   48.37    5.89
  -3 -11   2   35.10    2.18
   3  11  -2   37.12    2.28
  -3 -11   1  427.00   23.02
   3  11  -1  422.30   22.79
  -3 -11   0    2.69    0.74
   3  11   0    2.06    0.68
  -3 -11  -1   97.52    5.47
   3  11   1   95.53    5.33
  -3 -11  -2    1.76    0.73
   3  11   2    0.54    0.61
  -3 -11  -3    2.26    0.61
   3  11   3    2.79    0.73
  -3 -11  -4    2.64    0.56
  -3 -11  -4    3.20    0.65
  -3 -11  -4    5.68    0.78
   3  11   4    5.31    0.80
  -3 -11  -5  328.50   39.62
  -3 -11  -5  389.20   46.93
  -3 -11  -5  342.80   18.52
   3  11   5  333.30   18.01
  -3 -11  -6    1.09    0.86
  -3 -11  -6    1.52    0.84
  -3 -11  -6    0.82    0.70
   3  11   6    1.04    0.72
  -3 -11  -7   87.95   10.70
  -3 -11  -7   97.12    5.40
   3  11   7   94.16    5.25
  -3 -11  -8    5.82    1.16
  -3 -11  -8    2.83    0.75
   3  11   8    3.02    0.73
  -3 -11  -9    1.50    1.01
  -3 -11  -9    1.24    0.69
   3  11   9    1.88    0.69
  -3 -11 -10    1.03    0.98
  -3 -11 -10    2.16    0.69
   3  11  10    2.16    0.66
  -3 -11 -11   39.54    4.95
  -3 -11 -11   39.17    2.34
   3  11  11   39.06    2.37
  -3 -11 -12    3.07    1.20
  -3 -11 -12    3.26    0.78
   3  11  12    4.58    0.81
  -3 -11 -13   28.07    3.74
  -3 -11 -13   28.57    1.88
   3  11  13   30.18    1.90
  -3 -11 -14    3.50    1.45
  -3 -11 -14    2.37    0.91
   3  11  14    2.10    0.84
  -3 -11 -15   16.86    2.58
  -3 -11 -15   19.26    1.50
  -3 -11 -16   -0.79    1.74
  -3 -11 -16    0.10    1.26
   2  10 -19    1.37    1.10
   2  10 -19    3.97    1.48
   2  10 -19    1.28    1.15
   2  10 -18    3.54    1.22
   2  10 -18    3.67    0.90
   2  10 -17   24.04    3.22
   2  10 -17   22.91    1.56
   2  10 -16    6.32    1.39
  -2 -10  16    6.96    0.92
   2  10 -16    8.14    0.91
   2  10 -15    9.98    1.70
  -2 -10  15   10.77    1.07
   2  10 -15    8.56    0.89
   2  10 -14    5.70    1.35
  -2 -10  14    6.61    0.83
   2  10 -14    5.66    0.75
   2  10 -13   40.29    5.07
  -2 -10  13   40.58    2.43
   2  10 -13   41.60    2.46
   2  10 -12   11.00    1.81
  -2 -10  12   12.06    1.05
   2  10 -12   12.29    1.01
   2  10 -11    1.03    0.88
  -2 -10  11    1.06    0.68
   2  10 -11    1.31    0.69
   2  10 -10    8.53    1.50
  -2 -10  10    8.16    0.92
   2  10 -10   11.61    0.97
   2  10  -9  161.80   19.62
  -2 -10   9  143.20    7.87
   2  10  -9  166.80    9.15
   2  10  -8   48.85    6.10
  -2 -10   8   64.39    3.69
   2  10  -8   65.84    3.77
   2  10  -7   15.43    2.19
  -2 -10   7   12.64    1.07
   2  10  -7   12.96    1.00
   2  10  -6   82.15   10.03
  -2 -10   6   95.70    5.35
   2  10  -6   98.56    5.49
   2  10  -5  133.90   16.23
  -2 -10   5  139.40    7.67
   2  10  -5  132.60    7.29
   2  10  -4   17.85    2.36
  -2 -10   4   19.80    1.44
   2  10  -4   16.63    1.20
   2  10  -3  271.20   32.71
  -2 -10   3  216.50   11.79
   2  10  -3  247.60   13.44
   2  10  -2   99.78   12.09
  -2 -10   2  104.20    5.82
   2  10  -2  100.60    5.60
  -2 -10   1  226.70   12.35
   2  10  -1  221.70   12.05
  -2 -10   0  284.80   15.45
   2  10   0  278.40   15.09
  -2 -10  -1  223.40   12.16
   2  10   1  219.50   11.93
  -2 -10  -2   53.65    3.13
   2  10   2   58.01    3.35
  -2 -10  -3   35.51    2.20
   2  10   3   37.28    2.26
  -2 -10  -4    2.17    0.54
  -2 -10  -4    3.09    0.80
  -2 -10  -4    2.16    0.69
   2  10   4    2.97    0.68
  -2 -10  -5   22.30    2.80
  -2 -10  -5   25.90    3.28
  -2 -10  -5   21.97    1.54
   2  10   5   22.05    1.51
  -2 -10  -6  110.10   13.36
  -2 -10  -6  133.10    7.34
   2  10   6  132.00    7.26
  -2 -10  -7   42.63    2.55
   2  10   7   41.28    2.47
  -2 -10  -8   54.32    3.17
   2  10   8   55.24    3.20
  -2 -10  -9  146.80    8.05
   2  10   9  141.50    7.76
  -2 -10 -10    0.14    0.74
   2  10  10    0.32    0.68
  -2 -10 -11    2.03    0.97
  -2 -10 -11    1.30    0.70
   2  10  11    0.84    0.72
  -2 -10 -12    5.18    1.28
  -2 -10 -12    6.34    0.82
   2  10  12    7.30    0.86
  -2 -10 -13    2.16    1.20
  -2 -10 -13    1.02    0.73
   2  10  13    1.59    0.70
  -2 -10 -14    1.50    1.22
  -2 -10 -14    4.62    0.84
   2  10  14    4.52    0.81
  -2 -10 -15    9.89    1.80
  -2 -10 -15    9.84    1.04
  -2 -10 -16    2.41    1.30
  -2 -10 -16    3.57    0.78
  -2 -10 -16    3.21    1.03
  -2 -10 -17   24.60    3.47
   1   9 -19    0.23    1.07
   1   9 -19    1.13    0.83
   1   9 -19   -0.47    1.55
   1   9 -18   17.67    2.47
   1   9 -17   -0.21    1.09
   1   9 -17    0.00    0.74
   1   9 -17    0.29    0.75
   1   9 -16   29.00    3.79
   1   9 -16   28.09    1.77
   1   9 -15    0.19    1.10
  -1  -9  15    0.88    0.74
   1   9 -15   -0.11    0.65
   1   9 -14    5.31    1.30
  -1  -9  14    4.91    0.78
   1   9 -14    4.39    0.73
   1   9 -13    3.07    1.06
  -1  -9  13    2.96    0.68
   1   9 -13    3.17    0.72
   1   9 -12   92.20   11.28
  -1  -9  12  100.20    5.55
   1   9 -12   99.74    5.50
   1   9 -11   15.73    2.28
  -1  -9  11   12.01    1.04
   1   9 -11   10.51    0.97
   1   9 -10  221.50   26.80
  -1  -9  10  241.40   13.10
   1   9 -10  237.20   12.85
   1   9  -9    4.07    1.14
  -1  -9   9    2.59    0.72
   1   9  -9    3.23    0.60
   1   9  -8   50.63    6.31
  -1  -9   8   48.77    2.85
   1   9  -8   48.57    2.84
   1   9  -7   23.08    3.06
  -1  -9   7   18.46    1.32
   1   9  -7   18.68    1.29
   1   9  -6    1.46    0.92
  -1  -9   6    0.81    0.67
   1   9  -6    1.42    0.65
   1   9  -5    7.58    1.31
  -1  -9   5    6.85    0.84
   1   9  -5    6.90    0.85
   1   9  -4  457.90   55.19
  -1  -9   4  514.00   27.67
   1   9  -4  517.90   27.87
   1   9  -3   34.88    4.35
  -1  -9   3   29.62    1.89
   1   9  -3   31.32    1.97
   1   9  -2 1357.00  163.30
  -1  -9   2 1434.00   76.89
   1   9  -2 1383.00   74.13
  -1  -9   1   29.18    1.86
   1   9   0   19.21    2.39
  -1  -9   0   19.93    1.47
   1   9   0   23.10    1.58
  -1  -9  -1   61.75    3.59
   1   9   1   63.95    3.67
  -1  -9  -2  396.80   48.21
  -1  -9  -2  412.00   22.24
   1   9   2  422.90   22.80
  -1  -9  -3   24.15    3.01
  -1  -9  -3   22.32    1.55
   1   9   3   21.22    1.44
  -1  -9  -4   77.86    9.46
  -1  -9  -4   74.50    4.22
   1   9   4   73.66    4.15
  -1  -9  -5    1.33    0.83
  -1  -9  -5    0.60    0.64
   1   9   5    0.63    0.56
  -1  -9  -6    7.63    1.32
  -1  -9  -6    9.23    0.89
   1   9   6    7.79    0.85
  -1  -9  -7    9.29    0.88
   1   9   7    9.29    0.91
  -1  -9  -8   44.86    2.65
   1   9   8   45.61    2.69
  -1  -9  -9   -0.77    0.65
   1   9   9    0.25    0.63
  -1  -9 -10  229.80   12.47
   1   9  10  225.80   12.26
  -1  -9 -11   10.13    0.98
   1   9  11   11.64    1.04
  -1  -9 -12    4.16    0.80
   1   9  12    6.46    0.79
  -1  -9 -13    6.10    0.83
   1   9  13    6.38    0.84
  -1  -9 -14   16.07    1.25
   1   9  14   14.69    1.17
  -1  -9 -15    2.00    0.83
  -1  -9 -16   28.50    3.76
  -1  -9 -16   30.05    1.94
  -1  -9 -16   29.12    1.85
  -1  -9 -17    0.41    1.23
  -1  -9 -17    0.27    0.78
  -1  -9 -17    0.43    1.02
  -1  -9 -18   10.21    2.03
  -1  -9 -18    6.79    1.48
  -1  -9 -18   11.12    1.36
   0   8 -18    5.17    1.21
   0   8 -18    1.11    0.63
   0   8 -18    0.11    0.82
   0   8 -17    7.31    1.43
   0   8 -17    6.51    0.99
   0   8 -17    5.74    0.76
   0   8 -16    2.40    1.05
   0   8 -16    4.94    0.77
   0   8 -16    4.44    0.74
   0   8 -15   10.00    1.62
   0   8 -15   11.86    1.01
   0   8 -14   38.35    4.85
   0  -8  14   40.72    2.39
   0   8 -14   40.80    2.39
   0   8 -13    8.49    1.62
   0  -8  13    5.71    0.75
   0   8 -13    5.38    0.71
   0   8 -12   27.83    3.68
   0  -8  12   25.10    1.60
   0   8 -12   26.29    1.67
   0   8 -11   65.52    8.13
   0  -8  11   70.20    3.95
   0   8 -11   67.87    3.81
   0   8 -10   13.48    2.01
   0  -8  10    8.88    0.92
   0   8 -10    8.17    0.80
   0   8  -9   58.07    7.22
   0  -8   9   62.75    3.57
   0   8  -9   61.04    3.43
   0   8  -8  113.40   13.82
   0  -8   8  117.30    6.44
   0   8  -8  115.40    6.36
   0   8  -7    1.93    1.07
   0  -8   7    1.10    0.60
   0   8  -7    0.94    0.55
   0   8  -6   26.35    3.42
   0  -8   6   24.71    1.61
   0   8  -6   23.95    1.51
   0   8  -5   11.72    1.77
   0  -8   5    9.04    0.89
   0   8  -5    9.51    0.87
   0   8  -4   16.02    2.23
   0  -8   4   15.31    1.14
   0   8  -4   14.73    1.11
   0   8  -3  155.60   18.82
   0  -8   3  180.70    9.85
   0   8  -3  180.10    9.80
   0   8  -2   38.78    4.83
   0  -8   2   29.47    1.88
   0   8  -2   30.19    1.90
   0   8  -1   51.77    6.35
   0  -8   1   57.63    3.33
   0   8  -1   55.13    3.19
   0  -8   0   31.10    3.83
   0   8   0   38.76    4.77
   0  -8   0   39.75    2.43
   0   8   0   36.22    2.20
   0  -8  -1   47.17    5.75
   0   8   1   45.18    5.51
   0  -8  -1   50.05    2.94
   0   8   1   52.69    3.05
   0  -8  -2   36.46    4.47
   0  -8  -2   33.20    2.05
   0   8   2   26.16    1.68
   0  -8  -3  168.40   20.33
   0  -8  -3  175.10    9.56
   0   8   3  182.10    9.93
   0  -8  -4   19.10    2.50
   0  -8  -4   14.04    1.12
   0   8   4   14.66    1.13
   0  -8  -5   11.87    1.71
   0  -8  -5    8.30    0.87
   0   8   5   10.46    0.95
   0  -8  -6   26.53    3.39
   0  -8  -6   24.93    1.63
   0   8   6   23.77    1.57
   0  -8  -7    0.77    0.60
   0   8   7    0.26    0.61
   0  -8  -8  126.20    6.95
   0   8   8  119.00    6.57
   0  -8  -9   63.75    3.64
   0   8   9   59.22    3.38
   0  -8 -10    9.13    0.89
   0   8  10    8.78    0.89
   0  -8 -11   72.27    4.10
   0   8  11   66.04    3.77
   0  -8 -12   23.60    1.55
   0   8  12   23.83    1.57
   0  -8 -13    6.41    0.86
   0   8  13    7.50    0.87
   0  -8 -14   37.47    2.25
   0  -8 -15   13.50    1.12
   0  -8 -16    4.80    0.77
   0  -8 -16    4.03    0.85
   0  -8 -17    6.77    0.97
   0  -8 -17    7.19    0.93
   0  -8 -18    5.67    1.38
   0  -8 -18    3.73    1.07
   0  -8 -18    2.87    0.91
   0  -8 -19    1.29    1.56
   0  -8 -19    0.78    1.19
  -1   7 -18    8.80    1.71
  -1   7 -17    5.98    1.53
  -1   7 -16   13.46    2.09
  -1   7 -16   10.94    0.89
  -1   7 -16   10.60    0.83
  -1   7 -15   16.94    2.44
  -1   7 -15   23.10    1.45
  -1   7 -15   21.00    1.33
  -1   7 -14   15.18    2.23
  -1   7 -14   11.50    0.89
  -1   7 -13   22.00    2.95
   1  -7  13   24.56    1.50
  -1   7 -13   22.19    1.39
  -1   7 -12    3.61    1.28
   1  -7  12    2.94    0.62
  -1   7 -12    4.25    0.63
  -1   7 -11   30.85    4.02
   1  -7  11   26.28    1.62
  -1   7 -11   28.52    1.73
  -1   7 -10   30.07    3.96
   1  -7  10   22.33    1.44
  -1   7 -10   22.46    1.46
  -1   7  -9   51.60    6.45
   1  -7   9   53.86    3.07
  -1   7  -9   60.54    3.37
  -1   7  -8   46.48    5.84
   1  -7   8   34.30    2.05
  -1   7  -8   38.10    2.21
  -1   7  -7  405.60   48.94
   1  -7   7  441.70   23.76
  -1   7  -7  448.20   24.12
  -1   7  -6    5.41    1.28
   1  -7   6    1.89    0.60
  -1   7  -6    4.32    0.63
  -1   7  -5    4.62    1.19
   1  -7   5    5.59    0.68
  -1   7  -5    5.10    0.69
  -1   7  -4   19.43    2.65
   1  -7   4   18.57    1.25
  -1   7  -4   16.21    1.20
  -1   7  -3   54.30    6.72
   1  -7   3   61.70    3.52
  -1   7  -3   54.71    3.12
  -1   7  -2    7.69    1.42
   1  -7   2   11.05    0.94
  -1   7  -2   11.97    1.00
   1  -7   1  306.80   36.99
  -1   7  -1  316.50   38.17
   1  -7   1  334.90   18.08
  -1   7  -1  351.30   18.96
   1  -7   0   48.26    5.93
  -1   7   0   52.15    6.42
   1  -7   0   47.15    2.77
  -1   7   0   43.89    2.58
   1  -7  -1   99.76   12.09
  -1   7   1  104.00   12.59
   1  -7  -1  104.00    5.78
  -1   7   1  105.80    5.88
   1  -7  -2    1.81    0.77
  -1   7   2    1.90    0.75
   1  -7  -2    1.70    0.68
  -1   7   2    1.66    0.62
   1  -7  -3  188.60   22.77
   1  -7  -3  177.40    9.69
  -1   7   3  184.10   10.04
   1  -7  -4   57.15    7.01
   1  -7  -4   45.89    2.69
  -1   7   4   47.56    2.79
   1  -7  -5  101.00   12.28
   1  -7  -5   91.17    5.10
  -1   7   5   86.05    4.82
   1  -7  -6    4.00    1.02
   1  -7  -6    4.77    0.73
  -1   7   6    4.87    0.74
   1  -7  -7  252.40   13.67
  -1   7   7  273.90   14.83
   1  -7  -8   39.92    2.38
  -1   7   8   44.27    2.62
   1  -7  -9   77.84    4.40
  -1   7   9   75.20    4.24
   1  -7 -10   51.31    2.99
  -1   7  10   57.77    3.30
   1  -7 -11  104.50    5.79
  -1   7  11  104.90    5.81
   1  -7 -12   12.60    1.08
  -1   7  12   11.55    1.01
   1  -7 -13   26.05    1.69
  -1   7  13   26.42    1.69
   1  -7 -14    1.80    0.68
   1  -7 -15   77.28    4.33
   1  -7 -15   76.68    4.28
   1  -7 -16    6.15    0.80
   1  -7 -16    4.87    0.84
   1  -7 -17    5.48    0.81
   1  -7 -17    5.01    0.88
   1  -7 -18    0.98    0.86
   1  -7 -18    1.18    0.78
   1  -7 -19    7.97    1.02
   1  -7 -19    7.28    1.13
  -2   6 -18    1.41    1.12
  -2   6 -17   18.60    2.62
  -2   6 -16    1.31    1.10
  -2   6 -15   38.16    4.83
  -2   6 -14   24.35    3.25
  -2   6 -14   22.58    1.33
  -2   6 -14   23.44    1.37
  -2   6 -13    4.19    1.29
  -2   6 -13    1.36    0.47
  -2   6 -13    1.98    0.48
  -2   6 -12    2.93    1.12
  -2   6 -12    2.15    0.51
  -2   6 -11    4.81    1.22
   2  -6  11    4.87    0.55
  -2   6 -11    3.45    0.48
  -2   6 -10    2.68    1.22
   2  -6  10    2.62    0.55
  -2   6 -10    2.04    0.50
  -2   6  -9  329.20   39.77
   2  -6   9  299.60   16.15
  -2   6  -9  311.80   16.78
  -2   6  -8   34.38    4.40
   2  -6   8   41.31    2.38
  -2   6  -8   41.98    2.39
  -2   6  -7    4.56    1.14
   2  -6   7    5.04    0.59
  -2   6  -7    5.28    0.60
  -2   6  -6  104.30   12.75
   2  -6   6  114.10    6.24
  -2   6  -6  117.30    6.42
  -2   6  -5  651.60   78.52
   2  -6   5  656.30   35.22
  -2   6  -5  658.30   35.31
  -2   6  -4    1.42    1.15
   2  -6   4    3.45    0.55
  -2   6  -4    3.23    0.58
  -2   6  -3   43.12    5.39
   2  -6   3   38.09    2.23
  -2   6  -3   38.36    2.25
   2  -6   2   22.67    2.98
  -2   6  -2   25.60    3.35
   2  -6   2   24.65    1.56
  -2   6  -2   25.98    1.61
   2  -6   1   58.94    7.25
  -2   6  -1   59.92    7.37
   2  -6   1   65.68    3.70
  -2   6  -1   63.75    3.60
   2  -6   0   35.51    4.44
  -2   6   0   36.01    4.53
   2  -6   0   35.42    2.13
  -2   6   0   36.10    2.15
   2  -6  -1  209.90   25.34
  -2   6   1  208.80   25.23
   2  -6  -1  197.20   10.73
  -2   6   1  192.10   10.44
   2  -6  -2  152.90   18.50
  -2   6   2  155.70   18.83
   2  -6  -2  147.10    8.07
  -2   6   2  148.10    8.13
   2  -6  -3  101.90   12.38
  -2   6   3  106.70   12.95
   2  -6  -3   89.94    5.04
  -2   6   3   88.20    4.93
   2  -6  -4   92.59   11.27
   2  -6  -4  103.00    5.73
  -2   6   4  101.70    5.67
   2  -6  -5 1164.00  140.10
   2  -6  -5 1055.00   56.58
  -2   6   5 1048.00   56.23
   2  -6  -6   82.67   10.11
   2  -6  -6   82.55    4.64
  -2   6   6   79.79    4.47
   2  -6  -7   25.64    1.65
  -2   6   7   25.23    1.62
   2  -6  -8   22.07    1.46
  -2   6   8   24.58    1.61
   2  -6  -9  235.30   12.78
  -2   6   9  227.90   12.37
   2  -6 -10    3.78    0.72
  -2   6  10    3.88    0.67
   2  -6 -11  167.90    9.16
  -2   6  11  165.70    9.05
   2  -6 -12    7.41    0.81
  -2   6  12    7.87    0.83
   2  -6 -13   99.80    5.55
   2  -6 -14   34.85    2.10
   2  -6 -15   46.95    2.74
   2  -6 -15   43.84    2.54
   2  -6 -16   -0.59    0.67
   2  -6 -16   -0.02    0.59
   2  -6 -17   29.10    1.82
   2  -6 -17   31.25    1.96
   2  -6 -18    6.59    0.91
   2  -6 -18    7.88    0.86
   2  -6 -19    1.75    0.91
   2  -6 -19    1.78    0.80
   2  -6 -20    1.66    1.05
   2  -6 -20    2.36    1.19
  -3   5 -18    8.67    1.71
  -3   5 -17    1.31    1.21
  -3   5 -16   34.17    4.41
  -3   5 -15    0.48    1.13
  -3   5 -14   62.71    7.77
  -3   5 -13   50.59    6.31
  -3   5 -12  131.70   16.04
  -3   5 -11   17.74    2.52
  -3   5 -11   14.47    0.87
  -3   5 -11   15.40    0.93
  -3   5 -10   22.89    3.10
  -3   5 -10   24.77    1.43
  -3   5  -9   39.08    4.97
   3  -5   9   34.39    1.94
  -3   5  -9   37.59    2.10
  -3   5  -8  334.10   40.35
   3  -5   8  333.20   17.93
  -3   5  -8  270.30   14.54
  -3   5  -7  335.50   40.54
   3  -5   7  294.20   15.84
  -3   5  -7  232.90   12.56
  -3   5  -6   74.94    9.25
   3  -5   6   72.53    3.99
  -3   5  -6   61.44    3.41
  -3   5  -5   48.72    6.13
   3  -5   5   42.23    2.40
  -3   5  -5   48.20    2.70
  -3   5  -4  306.80   37.06
   3  -5   4  311.60   16.77
  -3   5  -4  322.00   17.34
  -3   5  -3   45.51    5.72
   3  -5   3   38.54    2.23
  -3   5  -3   40.97    2.37
   3  -5   2   85.26   10.41
  -3   5  -2   78.22    9.58
   3  -5   2   82.38    4.55
  -3   5  -2   86.76    4.79
   3  -5   1   94.78   11.56
  -3   5  -1   96.43   11.75
   3  -5   1   69.40    3.87
  -3   5  -1   66.84    3.77
   3  -5   0  131.70   15.97
  -3   5   0  137.40   16.66
   3  -5   0  115.50    6.35
  -3   5   0  124.10    6.81
   3  -5  -1    5.56    1.20
  -3   5   1    4.64    1.28
   3  -5  -1    4.78    0.71
  -3   5   1    6.18    0.74
   3  -5  -2  185.00   22.37
  -3   5   2  175.60   21.26
   3  -5  -2  210.20   11.42
  -3   5   2  208.40   11.32
   3  -5  -3   43.47    5.44
  -3   5   3   45.93    5.74
   3  -5  -3   31.07    1.97
  -3   5   3   30.24    1.91
   3  -5  -4  645.60   77.78
  -3   5   4  525.70   63.35
   3  -5  -4  494.50   26.63
  -3   5   4  511.30   27.50
   3  -5  -5   30.40    3.92
   3  -5  -5   19.17    1.35
  -3   5   5   21.04    1.45
   3  -5  -6  337.30   40.71
   3  -5  -6  361.10   19.49
  -3   5   6  357.60   19.30
   3  -5  -7   62.89    7.78
   3  -5  -7   52.47    3.05
  -3   5   7   52.83    3.06
   3  -5  -8   16.30    1.20
  -3   5   8   16.33    1.20
   3  -5  -9   43.80    2.58
  -3   5   9   43.10    2.54
   3  -5 -10  278.30   15.07
  -3   5  10  272.40   14.74
   3  -5 -11   12.44    1.04
  -3   5  11   14.21    1.06
   3  -5 -12   36.20    2.20
   3  -5 -13   19.89    1.38
   3  -5 -14    0.51    0.58
   3  -5 -14    1.53    0.67
   3  -5 -15    3.24    0.71
   3  -5 -15    2.89    0.68
   3  -5 -16   12.06    0.96
   3  -5 -16   12.09    1.05
   3  -5 -17    0.07    0.69
   3  -5 -17   -0.10    0.57
   3  -5 -18   17.81    1.35
   3  -5 -18   17.72    1.26
   3  -5 -19    5.47    0.91
   3  -5 -19    4.85    0.81
   3  -5 -20    3.04    1.00
   3  -5 -20    1.14    0.87
  -4   4 -17    4.76    1.52
  -4   4 -16    4.28    1.64
  -4   4 -15    6.80    1.75
  -4   4 -14   92.87   11.39
  -4   4 -13   10.68    1.80
  -4   4 -12  276.40   33.42
  -4   4 -11   40.57    5.21
  -4   4 -10    4.52    1.57
  -4   4  -9    0.88    1.34
  -4   4  -8  171.60   20.82
  -4   4  -7    4.33    1.21
   4  -4   7    4.47    0.39
  -4   4  -7    4.03    0.36
  -4   4  -6  220.70   26.72
   4  -4   6  217.20   11.71
  -4   4  -6  215.20   11.61
  -4   4  -5   32.41    4.23
   4  -4   5   32.02    1.81
  -4   4  -5   34.36    1.93
  -4   4  -4  588.40   70.92
   4  -4   4  654.70   35.13
  -4   4  -4  655.70   35.17
   4  -4   3  192.30   23.28
  -4   4  -3  154.30   18.71
   4  -4   3  175.50    9.48
  -4   4  -3  170.10    9.21
   4  -4   1   21.22    2.93
  -4   4  -1   21.90    2.95
   4  -4   1   22.92    1.42
  -4   4  -1   21.61    1.37
   4  -4   0  535.90   64.59
  -4   4   0  525.30   63.32
   4  -4   0  507.50   27.26
  -4   4   0  519.20   27.90
   4  -4  -1  231.60   27.99
  -4   4   1  236.90   28.64
   4  -4  -1  234.30   12.68
  -4   4   1  236.30   12.79
   4  -4  -2  212.50   25.70
  -4   4   2  214.80   25.98
   4  -4  -2  183.20    9.97
  -4   4   2  178.40    9.70
   4  -4  -3   38.36    4.85
  -4   4   3   45.80    5.75
   4  -4  -3   33.12    2.03
  -4   4   3   32.89    2.02
   4  -4  -4  719.90   86.72
  -4   4   4  776.40   93.52
   4  -4  -4  802.20   43.07
  -4   4   4  780.40   41.89
   4  -4  -5   84.17   10.30
   4  -4  -5   79.29    4.48
  -4   4   5   79.30    4.47
   4  -4  -6  348.40   42.05
   4  -4  -6  312.90   16.91
  -4   4   6  314.00   16.98
   4  -4  -7    5.24    1.29
   4  -4  -7    6.11    0.80
  -4   4   7    4.94    0.72
   4  -4  -8  147.80   17.95
   4  -4  -8  150.40    8.24
  -4   4   8  147.60    8.09
   4  -4  -9   11.31    0.97
  -4   4   9   12.71    1.04
   4  -4 -10    1.07    0.65
   4  -4 -11   46.67    2.74
   4  -4 -12  179.30    9.79
   4  -4 -12  178.80    9.74
   4  -4 -13   21.79    1.47
   4  -4 -13   22.26    1.42
   4  -4 -14  114.50    6.32
   4  -4 -14  110.90    6.13
   4  -4 -15    1.61    0.67
   4  -4 -15    2.06    0.62
   4  -4 -16    0.22    0.62
   4  -4 -16    0.07    0.61
   4  -4 -17    3.90    0.72
   4  -4 -17    1.99    0.64
   4  -4 -18    1.33    0.75
   4  -4 -18    1.40    0.65
   4  -4 -19    0.38    0.77
   4  -4 -19   -0.04    0.69
   4  -4 -20   22.68    1.63
   4  -4 -20   22.59    1.57
   4  -4 -21   -0.54    0.94
   4  -4 -21    0.09    0.92
  -5   3 -17    2.66    1.43
  -5   3 -16    9.48    1.88
  -5   3 -15   16.91    2.53
  -5   3 -14   36.05    4.70
  -5   3 -13  127.60   15.55
  -5   3 -12    3.93    1.46
  -5   3 -11  242.80   29.39
  -5   3 -10   58.67    7.30
  -5   3  -9   92.05   11.32
  -5   3  -8   41.00    5.23
  -5   3  -7  171.60   20.82
  -5   3  -6    3.72    1.36
  -5   3  -5  175.10   21.24
  -5   3  -4   51.30    6.40
   5  -3   4   38.81    2.16
  -5   3  -4   37.22    2.05
   5  -3   3  323.80   39.13
  -5   3  -3  318.30   38.45
   5  -3   3  321.80   17.30
  -5   3  -3  311.50   16.75
   5  -3   2  342.70   41.40
  -5   3  -2  313.70   37.88
   5  -3   2  301.20   16.20
  -5   3  -2  308.70   16.61
   5  -3   1  308.90   37.33
  -5   3  -1  301.40   36.40
   5  -3   1  283.20   15.25
  -5   3  -1  300.20   16.16
   5  -3   0    2.07    1.05
  -5   3   0    2.12    1.11
   5  -3   0    2.21    0.51
  -5   3   0    2.75    0.52
   5  -3  -1    8.78    1.67
  -5   3   1    9.22    1.67
   5  -3  -1    8.65    0.79
  -5   3   1    5.72    0.71
   5  -3  -2  104.40   12.75
  -5   3   2   99.78   12.17
   5  -3  -2  109.30    6.02
  -5   3   2  108.20    5.96
   5  -3  -3   92.45   11.31
  -5   3   3  108.10   13.18
   5  -3  -3  121.80    6.71
  -5   3   3  117.50    6.46
   5  -3  -4  967.70  116.50
  -5   3   4  979.90  118.00
   5  -3  -4  993.60   53.29
  -5   3   4  971.40   52.09
   5  -3  -5   53.90    6.74
  -5   3   5   47.11    5.90
   5  -3  -5   46.54    2.76
  -5   3   5   46.76    2.77
   5  -3  -6    6.82    1.62
   5  -3  -6   11.01    1.02
  -5   3   6   11.04    1.01
   5  -3  -7   71.76    8.86
   5  -3  -7   71.07    4.03
  -5   3   7   69.34    4.00
   5  -3  -8   78.45    9.66
   5  -3  -8   68.45    3.90
   5  -3  -9   80.21    9.87
   5  -3  -9   79.73    4.49
   5  -3 -10  121.30    6.69
   5  -3 -11   31.53    1.93
   5  -3 -11   28.93    1.82
   5  -3 -12   87.15    4.89
   5  -3 -12   84.33    4.71
   5  -3 -13  174.40    9.51
   5  -3 -13  182.70    9.98
   5  -3 -14    6.22    0.92
   5  -3 -14    7.04    0.75
   5  -3 -15   91.90    5.13
   5  -3 -15   95.43    5.33
   5  -3 -16    4.87    0.83
   5  -3 -16    5.99    0.68
   5  -3 -17    5.67    0.73
   5  -3 -17    6.10    0.85
   5  -3 -18   17.99    1.32
   5  -3 -18   16.43    1.20
   5  -3 -19    9.50    0.98
   5  -3 -19    9.52    0.91
   5  -3 -20    1.50    0.76
   5  -3 -20    1.89    0.85
   5  -3 -21   18.47    1.51
   5  -3 -21   16.94    1.37
  -6   2 -16    0.92    1.48
  -6   2 -15   42.54    5.50
  -6   2 -14    5.21    1.48
  -6   2 -13   20.34    2.94
  -6   2 -12    5.26    1.41
  -6   2 -11    0.85    1.19
  -6   2 -10   81.64   10.05
  -6   2  -9  547.00   65.97
  -6   2  -8   19.95    2.84
  -6   2  -7  160.40   19.49
  -6   2  -6    7.96    1.70
  -6   2  -5    5.21    1.44
  -6   2  -4   13.07    2.01
   6  -2   3  376.70   45.48
  -6   2  -3  281.80   34.06
   6  -2   3  313.60   16.87
   6  -2   3  345.60   18.60
   6  -2   2    1.70    1.34
  -6   2  -2    1.18    1.06
   6  -2   2    1.53    0.37
   6  -2   2    1.69    0.37
   6  -2   1  622.90   75.11
  -6   2  -1  549.40   66.22
   6  -2   1  556.10   29.84
   6  -2   1  581.30   31.19
   6  -2   0   30.22    4.02
  -6   2   0   35.43    4.55
   6  -2   0   35.50    2.07
   6  -2  -1   33.51    4.37
  -6   2   1   32.56    4.25
   6  -2  -1   39.33    2.29
   6  -2  -2   24.84    3.42
  -6   2   2   25.58    3.49
   6  -2  -2   21.35    1.42
   6  -2  -3 1730.00  208.20
  -6   2   3 1673.00  201.40
   6  -2  -3 1710.00   91.55
   6  -2  -4    2.11    1.29
  -6   2   4    1.95    1.23
   6  -2  -4    2.28    0.69
   6  -2  -5  334.10   40.35
  -6   2   5  326.70   39.47
   6  -2  -5  366.00   19.75
   6  -2  -6   86.21   10.59
  -6   2   6   81.53   10.03
   6  -2  -6   85.77    4.82
   6  -2  -7   16.45    2.47
   6  -2  -7    8.01    0.81
   6  -2  -7    7.88    0.88
   6  -2  -8    0.82    1.13
   6  -2  -8    0.87    0.66
   6  -2  -8    1.88    0.66
   6  -2  -9   35.92    4.67
   6  -2  -9   29.44    1.84
   6  -2  -9   28.76    1.83
   6  -2 -10    1.68    1.27
   6  -2 -10    1.12    0.67
   6  -2 -10    1.09    0.66
   6  -2 -11  401.00   48.44
   6  -2 -11  334.50   18.10
   6  -2 -11  333.60   18.01
   6  -2 -12   12.84    1.08
   6  -2 -12   13.01    1.04
   6  -2 -13   76.16    4.32
   6  -2 -13   74.87    4.23
   6  -2 -14    7.49    0.79
   6  -2 -14    7.10    0.89
   6  -2 -15   13.01    1.04
   6  -2 -15   11.97    1.09
   6  -2 -16    9.57    0.89
   6  -2 -16    9.89    0.89
   6  -2 -17  100.80    5.57
   6  -2 -17  103.10    5.71
   6  -2 -18    0.62    0.65
   6  -2 -18   -0.33    0.71
   6  -2 -19   12.26    1.08
   6  -2 -19   14.26    1.10
   6  -2 -20   -1.03    0.75
   6  -2 -20   -0.09    0.76
   6  -2 -21   -0.46    0.83
   6  -2 -21    0.78    0.93
   6  -2 -22    0.43    1.00
   6  -2 -22    0.65    1.02
  -7   1 -16   32.16    4.20
  -7   1 -15   -1.49    1.51
  -7   1 -14   30.29    4.08
  -7   1 -13   52.82    6.68
  -7   1 -12    2.64    1.32
  -7   1 -11   73.90    9.12
  -7   1 -10   20.15    2.87
  -7   1  -9   13.52    2.24
  -7   1  -8  308.20   37.25
  -7   1  -7   66.00    8.24
  -7   1  -6   15.89    2.44
  -7   1  -5  165.70   20.12
   7  -1   4  107.40   13.17
  -7   1  -4   91.99   11.28
   7  -1   3    2.59    1.20
  -7   1  -3    1.29    1.25
   7  -1   3    2.34    0.32
   7  -1   3    2.33    0.33
   7  -1   2  547.40   66.01
  -7   1  -2  472.30   56.96
   7  -1   2  486.10   26.10
   7  -1   2  486.80   26.14
   7  -1   1   65.73    8.18
  -7   1  -1   72.53    8.95
   7  -1   1   58.98    3.28
   7  -1   1   57.67    3.21
   7  -1   0   88.70   10.90
  -7   1   0   87.59   10.76
   7  -1   0  100.40    5.50
   7  -1   0   99.53    5.45
   7  -1  -1  254.10   30.73
  -7   1   1  251.00   30.35
   7  -1  -1  242.70   13.11
   7  -1  -1  237.40   12.82
   7  -1  -2   37.19    4.83
  -7   1   2   36.53    4.69
   7  -1  -2   31.79    1.92
   7  -1  -2   32.34    1.96
   7  -1  -3   73.04    9.06
  -7   1   3   68.25    8.47
   7  -1  -3   85.23    4.75
   7  -1  -3   81.12    4.53
   7  -1  -4  273.00   33.02
  -7   1   4  273.50   33.06
   7  -1  -4  289.70   15.67
   7  -1  -4  301.50   16.30
   7  -1  -5  570.40   68.78
  -7   1   5  593.10   71.52
   7  -1  -5  557.30   29.97
   7  -1  -5  544.10   29.27
   7  -1  -6  100.40   12.34
  -7   1   6   99.33   12.17
   7  -1  -6  111.20    6.15
   7  -1  -6  108.40    6.01
   7  -1  -7  238.20   28.86
   7  -1  -7  204.80   11.12
   7  -1  -7  210.40   11.45
   7  -1  -8   26.93    3.65
   7  -1  -8   18.59    1.34
   7  -1  -8   21.57    1.53
   7  -1  -9   82.27   10.15
   7  -1  -9   83.33    4.71
   7  -1  -9   85.08    4.79
   7  -1 -10  234.20   28.36
   7  -1 -10  215.00   11.70
   7  -1 -10  210.50   11.45
   7  -1 -11    2.70    1.61
   7  -1 -11    1.74    0.66
   7  -1 -11    2.13    0.65
   7  -1 -12  127.80   15.63
   7  -1 -12  131.10    7.18
   7  -1 -12  126.80    7.01
   7  -1 -13   28.66    3.89
   7  -1 -13   19.35    1.36
   7  -1 -13   20.11    1.45
   7  -1 -14   52.83    3.08
   7  -1 -14   53.84    3.15
   7  -1 -15  101.30    5.62
   7  -1 -15  101.10    5.59
   7  -1 -16   25.41    1.68
   7  -1 -16   26.99    1.80
   7  -1 -17   26.78    1.66
   7  -1 -17   28.90    1.86
   7  -1 -18   46.67    2.76
   7  -1 -18   48.33    2.81
   7  -1 -19   13.94    1.11
   7  -1 -19   14.00    1.16
   7  -1 -20    0.46    0.75
   7  -1 -20    2.29    0.79
   7  -1 -21   13.96    1.26
   7  -1 -21   13.48    1.17
   7  -1 -22    0.66    1.19
   7  -1 -22    0.99    0.93
   7  -1 -22    1.00    0.97
  -8   0 -15   -0.18    1.50
  -8   0 -14   23.56    3.30
  -8   0 -13    0.95    1.47
  -8   0 -12   43.80    5.62
  -8   0 -11   -1.54    1.55
  -8   0 -10   25.51    3.53
  -8   0  -9   -0.57    1.34
  -8   0  -8  150.70   18.34
  -8   0  -7    3.00    1.43
  -8   0  -6  519.70   62.69
  -8   0  -5   -0.19    1.06
  -8   0  -4  164.10   19.92
   8   0   3    1.49    1.22
  -8   0  -3    0.41    1.13
   8   0   3    0.85    0.32
   8   0   3    0.61    0.32
   8   0   2   71.39    8.85
  -8   0  -2   66.88    8.29
   8   0   2   48.00    2.68
   8   0   2   50.37    2.81
   8   0   1    1.72    1.35
  -8   0  -1    0.93    1.11
   8   0   1    0.31    0.43
   8   0   1    0.73    0.44
   8   0   0  248.70   30.08
  -8   0   0  220.30   26.68
   8   0   0  213.50   11.54
   8   0  -1    0.61    1.30
  -8   0   1    0.11    1.20
   8   0  -1   -0.12    0.50
   8   0  -2  126.40   15.42
  -8   0   2  120.70   14.72
   8   0  -2  152.10    8.28
   8   0  -3   -0.52    1.30
  -8   0   3    1.53    1.33
   8   0  -3    1.29    0.61
   8   0  -4   16.06    2.58
  -8   0   4   18.84    2.77
   8   0  -4   23.84    1.58
   8   0  -5    3.43    1.68
  -8   0   5    2.94    1.44
   8   0  -5    6.18    0.83
   8   0  -6 1189.00  143.20
  -8   0   6 1164.00  140.20
   8   0  -6 1091.00   58.46
   8   0  -7    0.79    1.50
   8   0  -7    0.45    0.67
   8   0  -8  333.60   40.34
   8   0  -8  328.70   17.76
   8   0  -9    2.09    1.31
   8   0  -9    1.33    0.70
   8   0 -10  152.70   18.61
   8   0 -10  177.90    9.69
   8   0 -10  173.80    9.51
   8   0 -11   -1.18    1.40
   8   0 -11   -0.48    0.65
   8   0 -11   -0.08    0.67
   8   0 -12   45.99    5.86
   8   0 -12   25.87    1.71
   8   0 -12   27.08    1.78
   8   0 -13    0.14    1.38
   8   0 -13   -0.45    0.55
   8   0 -13   -0.18    0.63
   8   0 -14   88.81   10.99
   8   0 -14   68.16    3.90
   8   0 -14   70.98    4.06
   8   0 -15   -0.16    1.43
   8   0 -15   -0.32    0.75
   8   0 -15    0.47    0.66
   8   0 -16  153.00   18.66
   8   0 -16  165.30    9.04
   8   0 -16  162.90    8.89
   8   0 -17   -0.10    1.22
   8   0 -17    1.41    0.71
   8   0 -17    0.19    0.71
   8   0 -18   25.54    3.49
   8   0 -18   32.25    1.98
   8   0 -18   31.78    2.02
   8   0 -19    0.36    1.37
   8   0 -20   48.52    6.13
   8   0 -20   38.39    2.34
   8   0 -20   39.18    2.36
   8   0 -21   -0.23    1.32
   8   0 -21   -0.21    0.72
   8   0 -21    0.11    0.79
   8   0 -22   14.29    2.32
   8   0 -22   14.17    1.19
   8   0 -22   15.01    1.34
  -9  -1 -14   14.00    2.25
  -9  -1 -13   21.25    3.13
  -9  -1 -12    1.71    1.59
  -9  -1 -11   15.44    2.56
  -9  -1 -10    1.84    1.62
  -9  -1  -9    2.62    1.54
  -9  -1  -8   80.66    9.98
  -9  -1  -7   11.37    1.93
  -9  -1  -6   12.67    2.12
  -9  -1  -5  154.50   18.79
  -9  -1  -4    8.50    1.81
   9   1   4    6.73    0.51
   9   1   4    6.29    0.49
   9   1   3   25.58    3.52
  -9  -1  -3   27.55    3.70
   9   1   3   33.41    1.90
   9   1   3   32.54    1.86
   9   1   2  104.10   12.77
  -9  -1  -2   98.55   12.08
   9   1   2  115.40    6.30
   9   1   1  165.00   20.07
  -9  -1  -1  158.80   19.29
   9   1   1  125.60    6.84
   9   1   0   65.93    8.21
  -9  -1   0   58.68    7.34
   9   1   0   78.86    4.38
  -9  -1   0   84.48    4.68
   9   1  -1  198.40   24.05
  -9  -1   1  184.50   22.38
   9   1  -1  180.60    9.81
  -9  -1   1  186.80   10.13
   9   1  -2  219.80   26.60
  -9  -1   2  217.70   26.36
   9   1  -2  222.50   12.05
  -9  -1   2  210.50   11.43
   9   1  -3    5.95    1.55
  -9  -1   3    4.09    1.34
   9   1  -3    8.65    0.87
  -9  -1   3    8.03    0.81
   9   1  -4   80.18    9.89
  -9  -1   4   87.63   10.77
   9   1  -4   79.77    4.47
  -9  -1   4   79.75    4.48
  -9  -1   5    3.12    1.47
  -9  -1   5    9.56    0.95
   9   1  -6  178.50   21.69
  -9  -1   6  172.20   20.92
   9   1  -6  206.10   11.21
  -9  -1   6  208.70   11.37
   9   1  -7  302.60   36.63
  -9  -1   7  312.30   37.76
   9   1  -7  314.40   17.02
  -9  -1   7  318.50   17.23
   9   1  -8   53.90    6.83
   9   1  -8   62.25    3.57
   9   1  -9  155.30   18.94
   9   1  -9  151.80    8.34
   9   1 -10   69.70    8.78
   9   1 -10   46.80    2.77
   9   1 -11   18.17    2.87
   9   1 -11   25.09    1.63
   9   1 -12  134.20   16.45
   9   1 -12  133.90    7.38
   9   1 -12  137.20    7.61
   9   1 -13   32.82    4.54
   9   1 -13   24.36    1.59
   9   1 -13   21.91    1.58
   9   1 -14    4.02    1.65
   9   1 -14    9.07    0.90
   9   1 -14    9.79    1.00
   9   1 -15   18.90    2.81
   9   1 -15   18.69    1.35
   9   1 -15   18.76    1.35
   9   1 -16    1.32    1.36
   9   1 -16    1.51    0.68
   9   1 -16    1.14    0.75
   9   1 -17   42.13    5.46
   9   1 -17   39.34    2.41
   9   1 -17   39.88    2.41
   9   1 -18   39.89    5.28
   9   1 -18   37.12    2.20
   9   1 -18   37.65    2.29
   9   1 -19    0.23    1.36
   9   1 -19    0.35    0.60
   9   1 -19    1.02    0.70
   9   1 -20   11.06    2.19
   9   1 -21   17.15    2.66
   9   1 -21   15.40    1.20
   9   1 -21   14.73    1.29
   9   1 -22   -0.26    1.28
   9   1 -22    0.20    0.83
   9   1 -22   -0.62    0.73
 -10  -2 -13   13.64    2.30
 -10  -2 -12    0.53    1.58
 -10  -2 -11   17.11    2.62
 -10  -2 -10    2.23    1.56
 -10  -2  -9  114.70   14.05
 -10  -2  -8    1.52    1.39
 -10  -2  -7    1.44    1.27
 -10  -2  -6   27.28    3.70
 -10  -2  -5   -0.83    1.42
 -10  -2  -4   28.57    3.85
  10   2   4   22.12    1.31
  10   2   4   22.76    1.36
  10   2   3  144.50   17.58
 -10  -2  -3  139.70   17.00
  10   2   3  125.10    6.80
  10   2   2   19.69    2.71
 -10  -2  -2   22.73    3.18
  10   2   2   21.99    1.36
  10   2   1  367.10   44.32
 -10  -2  -1  329.60   39.82
  10   2   1  349.40   18.81
 -10  -2  -1  344.00   18.51
  10   2   0   75.58    9.38
 -10  -2   0   67.46    8.38
  10   2   0   78.35    4.36
 -10  -2   0   80.84    4.50
  10   2  -1    5.71    1.69
 -10  -2   1    6.15    1.53
  10   2  -1    3.55    0.66
 -10  -2   1    3.09    0.56
  10   2  -2    0.25    1.57
 -10  -2   2    0.67    1.42
  10   2  -2    0.15    0.57
 -10  -2   2    0.55    0.56
  10   2  -3  173.90   21.17
 -10  -2   3  158.60   19.27
  10   2  -3  129.20    7.10
 -10  -2   3  147.50    8.06
  10   2  -4   17.88    2.81
 -10  -2   4   20.10    2.86
  10   2  -4   18.68    1.30
 -10  -2   4   21.47    1.44
  10   2  -5  272.60   33.02
 -10  -2   5  266.10   32.20
  10   2  -5  303.60   16.41
 -10  -2   5  267.80   14.50
  10   2  -6    4.75    1.80
 -10  -2   6    4.48    1.56
  10   2  -6    3.84    0.77
 -10  -2   6    3.86    0.74
  10   2  -7    6.89    1.94
 -10  -2   7    4.95    1.44
  10   2  -7    3.29    0.76
 -10  -2   7    2.24    0.68
  10   2  -8    4.62    1.63
  10   2  -8    3.22    0.78
 -10  -2   8    4.78    0.80
  10   2  -9   12.12    2.12
  10   2  -9   14.49    1.18
 -10  -2   9   16.94    1.29
  10   2 -10   20.24    3.09
  10   2 -10   25.80    1.74
  10   2 -11  200.60   24.36
  10   2 -11  171.80    9.38
  10   2 -12    1.24    1.44
  10   2 -12    4.22    0.74
  10   2 -13   43.38    5.60
  10   2 -13   44.33    2.67
  10   2 -14    1.23    1.57
  10   2 -14    2.03    0.78
  10   2 -14    2.13    0.70
  10   2 -15    5.49    1.76
  10   2 -15    1.42    0.77
  10   2 -15    0.78    0.69
  10   2 -16   -1.37    1.56
  10   2 -16    0.57    0.70
  10   2 -16    0.72    0.68
  10   2 -17   21.06    3.06
  10   2 -17   14.83    1.21
  10   2 -17   15.91    1.18
  10   2 -18    0.68    1.28
  10   2 -18    0.90    0.68
  10   2 -18   -0.29    0.66
  10   2 -19   16.64    2.72
  10   2 -19   14.02    1.16
  10   2 -19   14.07    1.14
  10   2 -20    0.92    1.43
  10   2 -20    0.42    0.71
  10   2 -20    0.40    0.64
  10   2 -21    0.49    1.48
  10   2 -21    1.45    0.77
  10   2 -21    0.94    0.70
  10   2 -22    0.71    1.18
  10   2 -22    2.14    1.09
  10   2 -22    0.06    0.70
 -11  -3 -12    1.81    1.55
 -11  -3 -11   21.40    3.22
 -11  -3 -10   10.39    1.95
 -11  -3  -9    1.09    1.53
 -11  -3  -8   43.39    5.62
 -11  -3  -7  104.90   12.87
 -11  -3  -6    1.14    1.54
 -11  -3  -5  147.90   18.00
  11   3   5  144.50    7.84
  11   3   5  144.70    7.85
 -11  -3  -4    1.12    1.32
  11   3   4    0.95    0.49
  11   3   3   20.74    3.11
 -11  -3  -3   20.73    3.02
  11   3   3   24.39    1.50
  11   3   2  101.20   12.43
 -11  -3  -2  103.10   12.66
  11   3   2   93.44    5.14
 -11  -3  -2   90.52    4.99
  11   3   1   72.56    9.05
 -11  -3  -1   72.51    8.97
  11   3   1   52.70    3.02
 -11  -3  -1   58.49    3.28
  11   3   0   32.07    4.25
 -11  -3   0   32.04    4.27
  11   3   0   34.69    2.08
 -11  -3   0   31.84    1.94
  11   3  -1  253.10   30.64
 -11  -3   1  215.60   26.11
  11   3  -1  237.10   12.84
 -11  -3   1  242.20   13.10
  11   3  -2    3.04    1.29
 -11  -3   2    2.11    1.52
  11   3  -2    1.16    0.60
 -11  -3   2    1.95    0.64
  11   3  -3  229.50   27.81
 -11  -3   3  223.50   27.08
  11   3  -3  239.70   13.00
 -11  -3   3  234.00   12.68
  11   3  -4  148.10   18.06
 -11  -3   4  157.80   19.21
  11   3  -4  135.30    7.44
 -11  -3   4  142.20    7.83
  11   3  -5    4.53    1.70
 -11  -3   5    5.26    1.66
  11   3  -5    2.02    0.66
 -11  -3   5    3.67    0.71
  11   3  -6   86.94   10.79
 -11  -3   6   92.00   11.35
  11   3  -6   95.47    5.31
 -11  -3   6   91.67    5.11
  11   3  -7   44.55    5.80
 -11  -3   7   49.49    6.34
  11   3  -7   39.94    2.42
 -11  -3   7   41.13    2.49
  11   3  -8   17.84    2.86
  11   3  -8   17.76    1.35
 -11  -3   8   17.23    1.29
  11   3  -9  201.20   24.48
  11   3  -9  202.60   11.05
 -11  -3   9  196.10   10.69
  11   3 -10   49.17    6.42
  11   3 -10   42.92    2.55
 -11  -3  10   41.80    2.54
 -11  -3  11   18.12    1.35
  11   3 -12   60.03    7.64
  11   3 -12   46.57    2.77
  11   3 -13   14.79    2.77
  11   3 -13   11.18    1.08
  11   3 -14    4.16    1.83
  11   3 -14    5.14    0.88
  11   3 -15   27.48    3.83
  11   3 -15   26.99    1.72
  11   3 -16    3.48    1.52
  11   3 -16    4.60    0.80
  11   3 -16    3.06    0.72
  11   3 -17    0.80    1.42
  11   3 -17    2.17    0.78
  11   3 -17    1.86    0.65
  11   3 -18   23.54    3.47
  11   3 -18   18.24    1.31
  11   3 -18   18.91    1.37
  11   3 -19   21.07    3.08
  11   3 -20    5.92    1.80
  11   3 -20    4.75    0.88
  11   3 -20    5.35    0.73
  11   3 -21    1.60    1.38
  11   3 -21    0.92    0.79
  11   3 -21    1.87    0.68
  11   3 -22    0.04    1.21
  11   3 -22    0.61    0.87
  11   3 -22   -0.62    0.70
 -12  -4 -11    0.81    1.57
 -12  -4 -10   14.70    2.56
 -12  -4  -9   21.14    3.16
 -12  -4  -8    5.01    1.81
 -12  -4  -7   26.32    3.62
 -12  -4  -6  136.20   16.60
 -12  -4  -5    8.76    1.94
  12   4   5    7.85    0.65
  12   4   5    7.79    0.71
 -12  -4  -4   47.29    6.05
  12   4   4   40.94    2.37
 -12  -4  -3    0.46    1.60
  12   4   3    0.37    0.57
 -12  -4  -3    0.88    0.56
  12   4   2    4.94    1.62
 -12  -4  -2    5.55    1.64
  12   4   2    7.68    0.78
 -12  -4  -2    4.80    0.62
  12   4   1    3.58    1.62
 -12  -4  -1    0.66    1.62
  12   4   1    1.11    0.61
 -12  -4  -1    1.26    0.59
  12   4   0   70.57    8.82
 -12  -4   0   75.03    9.34
  12   4   0   61.59    3.51
 -12  -4   0   58.15    3.30
  12   4  -1    6.33    1.89
 -12  -4   1    4.79    1.60
  12   4  -1    9.37    0.92
 -12  -4   1    9.39    0.85
  12   4  -2  230.20   27.94
 -12  -4   2  211.50   25.66
  12   4  -2  210.80   11.45
 -12  -4   2  198.70   10.82
  12   4  -3   12.44    2.33
 -12  -4   3   11.60    2.21
  12   4  -3   12.19    1.02
 -12  -4   3   12.95    1.06
  12   4  -4  227.30   27.60
 -12  -4   4  228.70   27.72
  12   4  -4  234.60   12.74
 -12  -4   4  229.40   12.48
  12   4  -5   17.78    3.00
 -12  -4   5   16.13    2.60
  12   4  -5   17.43    1.29
 -12  -4   5   16.66    1.25
  12   4  -6   63.92    8.10
 -12  -4   6   62.83    7.88
  12   4  -6   49.14    2.90
 -12  -4   6   54.07    3.17
  12   4  -7   -0.06    1.63
 -12  -4   7   -0.06    1.42
  12   4  -7    0.55    0.68
 -12  -4   7   -0.27    0.64
  12   4  -8  116.70   14.33
  12   4  -8  121.80    6.72
 -12  -4   8  108.50    6.03
  12   4  -9    0.37    1.63
  12   4  -9    0.58    0.73
 -12  -4   9    0.72    0.67
  12   4 -10   96.22   11.87
  12   4 -10  113.00    6.29
 -12  -4  10  117.10    6.50
  12   4 -11    1.60    1.73
  12   4 -11    0.56    0.71
 -12  -4  11    0.51    0.77
  12   4 -12   -0.99    1.80
  12   4 -12    0.70    0.75
 -12  -4  12   -0.71    0.73
  12   4 -13   -1.44    1.93
  12   4 -13   -0.01    0.65
 -12  -4  13    0.77    0.69
  12   4 -14    4.10    1.96
  12   4 -14    0.89    0.74
  12   4 -15    0.45    2.00
  12   4 -15    0.01    0.67
  12   4 -16   69.88    8.86
  12   4 -16   66.59    3.75
  12   4 -17   32.19    4.43
  12   4 -17   30.27    1.90
  12   4 -18    5.54    1.79
  12   4 -19    0.36    1.72
  12   4 -19    0.52    0.75
  12   4 -19    0.28    0.68
  12   4 -20   13.12    2.36
  12   4 -20    8.70    0.93
  12   4 -20    7.80    0.87
  12   4 -21    0.01    1.55
  12   4 -21   -0.19    0.78
  12   4 -21    0.64    0.70
  12   4 -22    1.56    1.47
  12   4 -22    3.13    0.94
  12   4 -22    3.30    0.77
 -13  -5 -10    7.40    1.87
 -13  -5  -9   -1.58    1.56
 -13  -5  -8   44.94    5.77
 -13  -5  -7   10.29    2.07
 -13  -5  -6   37.80    5.02
 -13  -5  -5   27.59    3.85
  13   5   5   21.24    1.37
 -13  -5  -4   31.23    4.19
  13   5   4   28.44    1.75
 -13  -5  -3    0.78    1.60
  13   5   3    0.33    0.67
 -13  -5  -3    0.35    0.54
  13   5   2   20.11    3.05
 -13  -5  -2   15.17    2.59
  13   5   2   14.54    1.12
 -13  -5  -2   13.13    1.00
  13   5   1    5.83    1.78
 -13  -5  -1    4.27    1.75
  13   5   1    3.06    0.66
 -13  -5  -1    3.77    0.72
  13   5   0   62.41    7.82
 -13  -5   0   67.92    8.52
  13   5   0   75.06    4.22
 -13  -5   0   74.53    4.20
  13   5  -1    2.06    1.49
 -13  -5   1    3.63    1.74
  13   5  -1    2.87    0.70
 -13  -5   1    1.50    0.64
  13   5  -2    1.44    1.57
 -13  -5   2    3.07    1.72
  13   5  -2    1.15    0.63
 -13  -5   2   -0.05    0.69
  13   5  -3   30.60    4.15
 -13  -5   3   30.01    4.17
  13   5  -3   26.64    1.73
 -13  -5   3   26.46    1.73
  13   5  -4   19.00    2.99
 -13  -5   4   19.24    3.02
  13   5  -4   11.04    1.00
 -13  -5   4   12.76    1.09
  13   5  -5    7.06    1.96
 -13  -5   5   12.08    2.44
  13   5  -5    9.74    0.96
 -13  -5   5    8.04    0.89
  13   5  -6  216.00   26.28
 -13  -5   6  232.50   28.21
  13   5  -6  202.10   11.01
 -13  -5   6  196.80   10.74
  13   5  -7   24.27    3.78
 -13  -5   7   23.68    3.52
  13   5  -7   19.41    1.40
 -13  -5   7   18.99    1.38
  13   5  -8    4.48    1.94
  13   5  -8    8.30    0.94
 -13  -5   8    7.43    0.90
  13   5  -9    2.75    2.09
  13   5  -9    3.03    0.77
 -13  -5   9    2.90    0.79
  13   5 -10   76.70    9.72
  13   5 -10   52.91    3.13
 -13  -5  10   51.98    3.05
  13   5 -11    0.36    1.81
  13   5 -11    2.94    0.71
 -13  -5  11    2.22    0.79
  13   5 -12   38.12    5.20
  13   5 -12   33.17    2.07
 -13  -5  12   32.38    2.04
  13   5 -13    2.04    1.74
  13   5 -13    1.43    0.73
 -13  -5  13    1.26    0.72
  13   5 -14   11.52    2.49
  13   5 -14   15.06    1.13
 -13  -5  14   14.10    1.16
  13   5 -15    3.03    1.94
  13   5 -15    2.74    0.78
  13   5 -16    4.58    2.05
  13   5 -16    3.84    0.77
  13   5 -17    0.67    1.85
  13   5 -17    0.01    0.64
  13   5 -18   41.26    5.53
  13   5 -18   43.93    2.61
  13   5 -19    4.47    1.93
  13   5 -19    2.78    0.77
  13   5 -19    0.98    0.67
  13   5 -20    3.50    1.89
  13   5 -20    3.45    0.76
  13   5 -20    4.04    0.84
  13   5 -21    0.67    1.35
  13   5 -21    0.89    0.82
  13   5 -21    1.05    0.68
  13   5 -22    0.86    0.83
  13   5 -22    0.29    0.70
 -14  -6  -9    4.69    1.90
 -14  -6  -8    2.74    1.74
 -14  -6  -7   32.18    4.35
 -14  -6  -6    1.26    1.80
 -14  -6  -5    7.04    1.91
  14   6   5    8.82    0.87
 -14  -6  -4    0.89    1.55
  14   6   4    1.88    0.67
 -14  -6  -4    2.55    0.58
 -14  -6  -3    3.77    1.71
  14   6   3    3.68    0.71
 -14  -6  -3    3.08    0.64
 -14  -6  -2   46.26    5.93
  14   6   2   59.36    3.39
 -14  -6  -2   54.54    3.11
  14   6   1   36.19    4.74
 -14  -6  -1   37.54    4.97
  14   6   1   37.98    2.30
 -14  -6  -1   33.46    2.03
  14   6   0    5.32    1.65
 -14  -6   0    6.45    1.90
  14   6   0    6.00    0.83
 -14  -6   0    5.61    0.80
  14   6  -1   21.44    3.32
 -14  -6   1   22.83    3.39
  14   6  -1   29.37    1.85
 -14  -6   1   26.63    1.75
  14   6  -2   35.33    4.83
 -14  -6   2   33.09    4.55
  14   6  -2   39.93    2.38
 -14  -6   2   40.65    2.45
  14   6  -3    5.48    2.04
 -14  -6   3    1.13    1.84
  14   6  -3    2.03    0.64
 -14  -6   3    1.45    0.72
  14   6  -4   19.14    3.03
 -14  -6   4   19.99    3.20
  14   6  -4   23.45    1.57
 -14  -6   4   23.90    1.66
  14   6  -5   26.69    3.84
 -14  -6   5   28.01    4.07
  14   6  -5   20.98    1.49
 -14  -6   5   25.04    1.66
  14   6  -6   19.48    3.19
 -14  -6   6   16.47    2.92
  14   6  -6   20.42    1.45
 -14  -6   6   18.52    1.43
  14   6  -7   62.05    7.89
 -14  -6   7   59.35    7.59
  14   6  -7   60.45    3.49
 -14  -6   7   58.06    3.37
  14   6  -8    4.26    2.07
  14   6  -8    7.52    0.86
 -14  -6   8    6.30    0.85
  14   6  -9    3.58    2.11
  14   6  -9    0.07    0.67
 -14  -6   9    0.42    0.67
  14   6 -10   20.46    3.35
  14   6 -10   23.50    1.59
 -14  -6  10   22.24    1.56
  14   6 -11  165.30   20.18
  14   6 -11  137.70    7.60
 -14  -6  11  141.60    7.79
  14   6 -12    1.73    2.05
  14   6 -12    1.08    0.67
 -14  -6  12    1.34    0.79
  14   6 -13   25.81    3.81
  14   6 -13   22.39    1.52
 -14  -6  13   20.24    1.49
  14   6 -14    6.51    2.06
  14   6 -14    6.34    0.85
 -14  -6  14    5.19    0.81
  14   6 -15    1.02    2.14
  14   6 -15   -0.01    0.56
 -14  -6  15    0.82    0.67
  14   6 -16    1.95    2.09
  14   6 -16    2.05    0.74
  14   6 -17   14.17    2.62
  14   6 -17    8.02    0.91
  14   6 -18    3.85    1.84
  14   6 -18    2.09    0.64
  14   6 -19   20.08    3.15
  14   6 -19   21.23    1.45
  14   6 -20    0.54    1.83
  14   6 -20    0.53    0.73
  14   6 -20   -0.08    0.65
  14   6 -21    1.72    1.67
  14   6 -21    4.91    0.91
  14   6 -21    4.54    0.81
 -15  -7  -7    3.09    1.83
 -15  -7  -6    3.38    1.79
 -15  -7  -5    9.87    2.12
  15   7   5    9.05    0.91
 -15  -7  -4    2.62    1.75
  15   7   4    2.46    0.79
 -15  -7  -4    3.60    0.73
 -15  -7  -3   39.64    5.21
  15   7   3   48.20    2.79
 -15  -7  -3   45.88    2.68
 -15  -7  -2    1.76    1.75
  15   7   2    0.13    0.69
 -15  -7  -2    1.05    0.68
  15   7   1   14.05    2.41
 -15  -7  -1   12.93    2.47
  15   7   1   19.31    1.39
 -15  -7  -1   20.23    1.38
  15   7   0    3.91    1.74
 -15  -7   0    1.41    1.68
  15   7   0    2.88    0.68
 -15  -7   0    4.27    0.76
  15   7  -1   49.25    6.34
 -15  -7   1   56.76    7.19
  15   7  -1   49.33    2.90
 -15  -7   1   51.85    3.01
  15   7  -2   -2.66    1.60
 -15  -7   2    0.73    1.75
  15   7  -2    0.56    0.67
 -15  -7   2   -0.49    0.68
  15   7  -3   15.16    2.69
 -15  -7   3   14.69    2.68
  15   7  -3   23.89    1.57
 -15  -7   3   22.50    1.57
  15   7  -4   23.96    3.52
 -15  -7   4   19.90    3.18
  15   7  -4   21.96    1.50
 -15  -7   4   21.57    1.55
  15   7  -5   20.87    3.35
 -15  -7   5   18.99    3.12
  15   7  -5   29.30    1.84
 -15  -7   5   30.31    1.92
  15   7  -6    6.01    2.23
 -15  -7   6    4.50    1.97
  15   7  -6    2.12    0.69
 -15  -7   6    2.84    0.73
  15   7  -7   25.26    3.88
 -15  -7   7   25.85    3.68
  15   7  -7   20.21    1.42
 -15  -7   7   21.61    1.53
  15   7  -8    7.26    2.44
  15   7  -8    7.25    0.90
 -15  -7   8    7.25    0.91
  15   7  -9   22.95    3.73
  15   7  -9   29.29    1.88
 -15  -7   9   28.01    1.84
  15   7 -10    0.93    2.25
  15   7 -10    1.93    0.71
 -15  -7  10    1.49    0.71
  15   7 -11   21.55    3.59
  15   7 -11   21.95    1.50
 -15  -7  11   24.15    1.62
  15   7 -12   30.42    4.58
  15   7 -12   23.07    1.60
 -15  -7  12   22.54    1.54
  15   7 -13    4.48    2.16
  15   7 -13    3.20    0.77
 -15  -7  13    2.41    0.72
  15   7 -14    2.77    2.29
  15   7 -14    1.67    0.65
 -15  -7  14    1.59    0.73
  15   7 -15   24.54    3.80
  15   7 -15   24.49    1.64
 -15  -7  15   23.36    1.60
  15   7 -16   -0.25    2.12
  15   7 -16    0.02    0.64
 -15  -7  16    0.06    0.66
  15   7 -17   11.79    2.40
  15   7 -17   14.06    1.08
  15   7 -18    1.73    2.08
  15   7 -18    1.84    0.65
  15   7 -19    0.49    2.09
  15   7 -19   -1.03    0.72
  15   7 -20   -1.68    1.73
  15   7 -20    0.51    0.67
 -16  -8  -6    2.41    1.87
 -16  -8  -5   -1.33    1.70
  16   8   5    1.29    0.84
 -16  -8  -4   17.95    2.98
  16   8   4   15.41    1.30
 -16  -8  -3   -1.87    1.88
  16   8   3    0.00    0.79
 -16  -8  -3    0.72    0.77
 -16  -8  -2    2.02    1.87
  16   8   2    4.69    0.89
 -16  -8  -2    3.16    0.80
 -16  -8  -1    6.78    1.94
  16   8   1    7.09    0.87
 -16  -8  -1    6.52    0.89
  16   8   0    1.27    1.73
 -16  -8   0    1.12    1.72
  16   8   0    0.65    0.71
 -16  -8   0    0.52    0.72
  16   8  -1    0.70    1.66
 -16  -8   1   -0.09    1.76
  16   8  -1    0.20    0.66
 -16  -8   1    0.77    0.71
  16   8  -2   52.71    6.80
 -16  -8   2   47.60    6.20
  16   8  -2   44.24    2.61
 -16  -8   2   44.36    2.63
  16   8  -3    0.49    1.74
 -16  -8   3   -0.70    1.80
  16   8  -3   -0.53    0.65
 -16  -8   3    1.12    0.72
  16   8  -4   38.52    5.27
 -16  -8   4   40.81    5.45
  16   8  -4   38.56    2.32
 -16  -8   4   40.75    2.45
  16   8  -5   52.36    6.86
 -16  -8   5   50.62    6.56
  16   8  -5   57.21    3.29
 -16  -8   5   59.44    3.42
  16   8  -6   -2.99    2.23
 -16  -8   6    0.47    1.70
  16   8  -6    0.13    0.68
 -16  -8   6   -0.04    0.71
  16   8  -7   -0.14    2.09
  16   8  -7    1.27    0.67
 -16  -8   7   -0.24    0.67
  16   8  -8   19.33    3.26
  16   8  -8   20.13    1.45
 -16  -8   8   18.10    1.37
  16   8  -9    0.84    2.08
  16   8  -9   -0.08    0.66
 -16  -8   9    1.92    0.69
  16   8 -10   16.06    3.05
  16   8 -10   19.12    1.33
 -16  -8  10   19.32    1.37
  16   8 -11   -0.36    2.24
  16   8 -11   -0.07    0.66
 -16  -8  11    0.52    0.65
  16   8 -12    4.01    2.21
  16   8 -12    5.99    0.85
 -16  -8  12    5.56    0.78
  16   8 -13   17.80    3.32
  16   8 -13   15.63    1.17
 -16  -8  13   13.40    1.09
  16   8 -14    9.42    2.65
  16   8 -14    4.02    0.75
 -16  -8  14    7.09    0.91
  16   8 -15    5.10    2.37
  16   8 -15    2.90    0.68
 -16  -8  15    3.12    0.76
  16   8 -16   12.27    2.55
  16   8 -16    8.87    0.85
 -16  -8  16   10.00    0.93
  16   8 -17    3.83    2.21
  16   8 -17    0.40    0.61
  16   8 -18    0.94    2.11
  16   8 -18    2.45    0.68
  16   8 -19    2.48    2.15
  16   8 -19    1.48    0.71
  16   8 -20   -0.14    1.94
  16   8 -20    0.88    0.65
 -17  -9  -4   -0.81    2.00
  17   9   4   -0.19    0.90
 -17  -9  -3    1.12    1.94
  17   9   3    2.20    0.91
 -17  -9  -3    1.93    0.95
 -17  -9  -2   15.69    2.90
  17   9   2   14.98    1.33
 -17  -9  -2   13.54    1.18
 -17  -9  -1   -1.00    2.20
  17   9   1   -0.24    0.78
 -17  -9  -1    0.74    0.75
 -17  -9   0   26.62    3.90
  17   9   0   28.04    1.81
 -17  -9   0   31.76    1.97
  17   9  -1    1.88    1.88
 -17  -9   1    1.30    1.94
  17   9  -1    2.64    0.78
 -17  -9   1    2.20    0.75
  17   9  -2    2.58    1.90
 -17  -9   2    2.98    2.04
  17   9  -2    4.12    0.73
 -17  -9   2    2.90    0.79
  17   9  -3   -2.41    1.83
 -17  -9   3   -2.77    2.12
  17   9  -3    0.31    0.67
 -17  -9   3    0.87    0.67
  17   9  -4   14.86    2.78
 -17  -9   4   17.14    2.98
  17   9  -4   15.51    1.20
 -17  -9   4   14.02    1.15
  17   9  -5    1.33    1.93
 -17  -9   5    5.94    2.07
  17   9  -5    4.42    0.73
 -17  -9   5    2.56    0.79
  17   9  -6   56.99    7.34
 -17  -9   6   56.03    7.12
  17   9  -6   59.52    3.40
 -17  -9   6   60.91    3.49
  17   9  -7    1.44    2.01
  17   9  -7    0.53    0.65
 -17  -9   7    0.39    0.69
  17   9  -8    2.45    2.24
  17   9  -8    3.57    0.71
 -17  -9   8    1.65    0.73
  17   9  -9    3.38    2.41
  17   9  -9    3.08    0.65
 -17  -9   9    4.74    0.79
  17   9 -10    1.94    2.40
  17   9 -10    0.73    0.61
 -17  -9  10   -0.31    0.66
  17   9 -11    1.59    2.42
  17   9 -11    1.37    0.74
 -17  -9  11    0.41    0.64
  17   9 -12   11.64    2.87
  17   9 -12    8.74    0.84
 -17  -9  12    8.74    0.89
  17   9 -13   -3.84    2.33
  17   9 -13    1.01    0.71
 -17  -9  13   -0.57    0.66
  17   9 -14   29.57    4.53
  17   9 -14   32.47    2.02
 -17  -9  14   32.60    2.00
  17   9 -15   -0.54    2.60
  17   9 -15    0.09    0.58
 -17  -9  15   -0.03    0.73
  17   9 -16    1.28    2.36
  17   9 -16    1.37    0.64
 -17  -9  16    1.91    0.73
  17   9 -17    2.23    2.23
  17   9 -17   -0.21    0.63
 -17  -9  17    0.00    0.64
  17   9 -18    5.17    2.21
  17   9 -18    4.96    0.76
  17   9 -19    1.16    1.71
  17   9 -19   -0.94    0.62
 -18 -10  -2    0.46    2.83
  18  10   2    4.17    0.97
 -18 -10  -2    4.39    0.96
 -18 -10  -1    6.21    2.64
  18  10   1    5.72    0.99
 -18 -10  -1    5.37    0.92
 -18 -10   0   -0.87    2.22
  18  10   0   -0.54    0.83
 -18 -10   0   -0.25    0.78
 -18 -10   1    2.70    2.49
  18  10  -1    4.38    0.86
 -18 -10   1    6.43    0.85
  18  10  -2    2.87    2.11
 -18 -10   2    2.53    2.52
  18  10  -2    1.94    0.75
 -18 -10   2    1.49    0.71
  18  10  -3   -1.24    2.01
 -18 -10   3   -0.17    2.18
  18  10  -3    0.93    0.66
 -18 -10   3   -0.59    0.68
  18  10  -4    8.79    2.49
 -18 -10   4    7.78    2.41
  18  10  -4   12.47    1.05
 -18 -10   4   11.05    1.01
  18  10  -5   12.94    2.77
 -18 -10   5   12.37    2.55
  18  10  -5   14.57    1.14
 -18 -10   5   14.02    1.15
  18  10  -6   -0.51    2.18
  18  10  -6   -0.36    0.70
 -18 -10   6    1.37    0.73
  18  10  -7   19.11    3.41
  18  10  -7   25.27    1.64
 -18 -10   7   24.80    1.63
  18  10  -8    6.88    2.43
  18  10  -8    9.40    0.95
 -18 -10   8    8.49    0.87
  18  10  -9    4.46    2.47
  18  10  -9    4.98    0.71
 -18 -10   9    3.84    0.75
  18  10 -10    7.45    2.69
  18  10 -10    7.57    0.85
 -18 -10  10    8.64    0.86
  18  10 -11    1.11    2.55
  18  10 -11    0.69    0.70
 -18 -10  11    0.89    0.61
  18  10 -12    0.83    2.31
  18  10 -12    0.76    0.63
 -18 -10  12   -0.54    0.59
  18  10 -13    6.21    2.55
  18  10 -13    3.35    0.65
 -18 -10  13    5.25    0.77
  18  10 -14   -0.32    2.41
  18  10 -14    1.00    0.70
 -18 -10  14    1.40    0.68
  18  10 -15    9.41    2.62
  18  10 -15    9.32    0.90
 -18 -10  15   11.42    0.97
  18  10 -16    5.63    2.44
  18  10 -16    5.73    0.72
 -18 -10  16    5.27    0.81
  18  10 -17   -0.64    2.32
  18  10 -17    0.26    0.60
 -18 -10  17    1.53    0.73
 -19 -11   1    4.75    3.07
  19  11  -1    6.21    1.01
 -19 -11   1    6.57    0.98
 -19 -11   2    3.16    2.58
  19  11  -2    0.51    0.87
 -19 -11   2    1.86    0.79
  19  11  -3    8.82    2.50
 -19 -11   3   10.43    2.90
  19  11  -3    4.74    0.84
 -19 -11   3    5.11    0.85
  19  11  -4    1.19    2.24
 -19 -11   4    1.60    2.21
  19  11  -4    2.19    0.77
 -19 -11   4    2.14    0.74
  19  11  -5    5.59    2.71
  19  11  -5    7.23    0.84
 -19 -11   5    6.31    0.90
  19  11  -6    2.47    2.48
  19  11  -6    0.40    0.63
 -19 -11   6   -0.39    0.69
  19  11  -7    3.70    2.55
  19  11  -7    1.02    0.67
 -19 -11   7    1.01    0.74
  19  11  -8    1.03    2.52
  19  11  -8   -0.19    0.64
 -19 -11   8    0.22    0.64
  19  11  -9    6.62    2.86
  19  11  -9    6.84    0.81
 -19 -11   9    7.39    0.81
  19  11 -10    0.55    2.58
  19  11 -10    0.78    0.65
 -19 -11  10    0.12    0.60
  19  11 -11    7.73    2.81
  19  11 -11   10.46    0.86
 -19 -11  11    9.79    0.90
  19  11 -12    2.57    2.30
  19  11 -12    3.67    0.65
 -19 -11  12    4.95    0.76
  19  11 -13    1.95    2.22
  19  11 -13   -0.40    0.64
 -19 -11  13    0.44    0.61
  19  11 -14    0.25    2.08
  19  11 -14    0.02    0.56
 -19 -11  14    0.42    0.65
  19  11 -15    1.01    2.23
  19  11 -15    2.28    0.67
 -19 -11  15    2.67    0.65
  20  12  -5   -0.34    3.08
  20  12  -5    2.67    0.87
 -20 -12   5    1.30    0.77
  20  12  -6    1.44    3.03
  20  12  -6   -0.38    0.76
 -20 -12   6    0.78    0.67
  20  12  -7    3.19    3.04
  20  12  -7    3.90    0.69
 -20 -12   7    3.91    0.73
  20  12  -8    5.46    2.99
  20  12  -8    1.97    0.75
 -20 -12   8    1.72    0.65
  20  12  -9    0.83    2.62
  20  12  -9    2.62    0.73
 -20 -12   9    2.07    0.63
  20  12 -10    0.83    2.73
  20  12 -10    0.96    0.75
 -20 -12  10    0.83    0.63
  20  12 -11   -0.72    2.65
  20  12 -11   -0.68    0.70
 -20 -12  11   -0.09    0.62
  20  12 -12   -1.53    2.60
  20  12 -12   -0.29    0.70
 -20 -12  12    1.23    0.63
 -10 -20  10    0.79    0.69
  10  20 -10    0.59    0.60
 -10 -20   9    0.02    0.70
  10  20  -9    0.37    0.69
 -10 -20   8    0.85    0.73
  10  20  -8    0.31    0.57
 -10 -20   7    2.94    0.71
  10  20  -7    3.12    0.65
 -10 -20   6    0.46    0.70
  10  20  -6   -0.08    0.70
 -10 -20   5    5.14    0.89
  10  20  -5    3.85    0.75
 -10 -20   4   -0.20    0.79
  10  20  -4   -0.12    0.62
 -10 -20   3   16.02    1.28
  10  20  -3   15.59    1.13
 -10 -20   2    0.40    0.83
  10  20  -2    0.23    0.66
 -10 -20   1    2.32    0.82
  10  20  -1    2.53    0.72
 -10 -20   0    0.28    0.75
  10  20   0    0.78    0.64
 -10 -20  -1   10.95    1.08
  10  20   1   10.80    1.03
   9  19 -12    1.52    2.07
   9  19 -12    1.29    2.30
  -9 -19  12    2.14    0.72
   9  19 -12    2.09    0.62
   9  19 -11   -0.30    2.38
   9  19 -11   -2.12    2.09
  -9 -19  11   -0.82    0.68
   9  19 -11    0.57    0.68
   9  19 -10    3.85    1.68
   9  19 -10    5.28    1.83
  -9 -19  10    6.90    0.86
   9  19 -10    7.80    0.86
  -9 -19   9   10.56    0.97
   9  19  -9    9.78    0.91
  -9 -19   8    1.45    0.66
   9  19  -8    0.70    0.65
  -9 -19   7   13.68    1.10
   9  19  -7   14.83    1.16
  -9 -19   6    4.86    0.82
   9  19  -6    5.40    0.76
  -9 -19   5    4.65    0.73
   9  19  -5    4.23    0.70
  -9 -19   4    4.09    0.83
   9  19  -4    4.35    0.72
  -9 -19   3   12.51    1.13
   9  19  -3   12.19    1.07
  -9 -19   2   -0.51    0.72
   9  19  -2    0.63    0.58
  -9 -19   1   12.47    1.11
   9  19  -1   11.73    1.00
  -9 -19   0    3.83    0.72
   9  19   0    4.63    0.79
  -9 -19  -1    2.40    0.78
   9  19   1    2.95    0.68
  -9 -19  -2    9.67    0.96
   9  19   2   11.63    1.00
  -9 -19  -3    8.14    1.03
   9  19   3    8.23    0.93
  -9 -19  -4    0.08    0.89
   9  19   4    0.84    0.79
   8  18 -14    2.79    1.94
   8  18 -14    5.41    2.18
  -8 -18  14    3.70    0.77
   8  18 -14    4.81    0.74
   8  18 -13    1.33    1.86
   8  18 -13    0.01    2.04
  -8 -18  13   -0.47    0.65
   8  18 -13    0.84    0.68
   8  18 -12    2.88    1.75
   8  18 -12    5.12    2.25
  -8 -18  12    3.17    0.81
   8  18 -12    2.89    0.71
   8  18 -11    3.37    1.70
   8  18 -11    1.51    1.90
  -8 -18  11    1.28    0.74
   8  18 -11    1.92    0.66
   8  18 -10    1.67    1.68
   8  18 -10    0.12    1.81
  -8 -18  10    0.70    0.71
   8  18 -10    0.47    0.63
   8  18  -9    0.11    1.44
   8  18  -9    2.92    1.82
  -8 -18   9    1.57    0.71
   8  18  -9    1.44    0.60
  -8 -18   8   21.45    1.45
   8  18  -8   20.54    1.43
  -8 -18   7    3.88    0.81
   8  18  -7    3.84    0.80
  -8 -18   6    7.57    0.97
   8  18  -6    7.08    0.83
  -8 -18   5   -0.67    0.72
   8  18  -5    0.52    0.67
  -8 -18   4    0.79    0.65
   8  18  -4    0.58    0.72
  -8 -18   3    1.23    0.66
   8  18  -3    0.01    0.60
  -8 -18   2   55.40    3.23
   8  18  -2   55.58    3.20
  -8 -18   1    4.54    0.84
   8  18  -1    4.96    0.75
  -8 -18   0    4.66    0.82
   8  18   0    4.96    0.80
  -8 -18  -1    5.45    0.76
   8  18   1    5.64    0.83
  -8 -18  -2    4.83    0.85
   8  18   2    4.80    0.79
  -8 -18  -3    2.92    0.79
   8  18   3    3.29    0.65
  -8 -18  -4   10.85    0.98
   8  18   4   10.32    0.97
  -8 -18  -5   -1.40    0.78
   8  18   5    0.25    0.76
  -8 -18  -6   14.00    1.18
   8  18   6   13.78    1.26
  -8 -18  -7    0.02    0.94
   8  18   7   -0.57    0.93
   7  17 -15    0.21    2.01
  -7 -17  15    0.46    0.71
   7  17 -15   -0.20    0.69
   7  17 -14    3.14    1.74
   7  17 -14    3.77    1.54
  -7 -17  14    0.76    0.76
   7  17 -14    1.66    0.68
   7  17 -13    3.93    1.88
   7  17 -13    0.48    1.52
  -7 -17  13    3.24    0.80
   7  17 -13    2.06    0.69
   7  17 -12   12.86    2.24
   7  17 -12   14.06    2.40
  -7 -17  12   13.57    1.14
   7  17 -12   15.21    1.18
   7  17 -11   -0.13    1.43
   7  17 -11    0.31    1.68
  -7 -17  11    1.55    0.67
   7  17 -11    0.91    0.64
   7  17 -10    8.02    1.79
   7  17 -10   10.79    2.14
  -7 -17  10    5.94    0.84
   7  17 -10    7.96    0.84
   7  17  -9   -0.28    1.54
   7  17  -9    0.61    1.37
  -7 -17   9    0.83    0.69
   7  17  -9    0.14    0.60
   7  17  -8    1.35    1.27
   7  17  -8    0.76    1.31
  -7 -17   8    1.12    0.76
   7  17  -8    0.48    0.66
   7  17  -7    6.61    1.23
   7  17  -7    6.88    1.40
  -7 -17   7    9.26    1.00
   7  17  -7    9.50    0.91
  -7 -17   6  101.60    5.65
   7  17  -6  101.30    5.61
  -7 -17   5    0.55    0.73
   7  17  -5   -0.20    0.72
  -7 -17   4   24.88    1.71
   7  17  -4   24.68    1.60
  -7 -17   3    0.46    0.73
   7  17  -3    0.70    0.70
  -7 -17   2    4.88    0.86
   7  17  -2    5.74    0.78
  -7 -17   1    5.00    0.89
   7  17  -1    5.27    0.82
  -7 -17   0   21.62    1.55
   7  17   0   23.29    1.56
  -7 -17  -1    0.27    0.77
   7  17   1    1.10    0.72
  -7 -17  -2   11.89    1.09
   7  17   2   11.87    0.99
  -7 -17  -3    0.49    0.75
   7  17   3    0.35    0.59
  -7 -17  -4   32.53    2.04
   7  17   4   32.57    2.02
  -7 -17  -5    9.61    1.04
   7  17   5   11.87    1.06
  -7 -17  -6    6.17    0.89
   7  17   6    5.92    0.88
  -7 -17  -7    0.13    0.80
   7  17   7    0.28    0.73
  -7 -17  -8    3.58    0.97
   7  17   8    4.05    0.95
  -7 -17  -9   -0.13    0.99
   7  17   9   -0.77    0.96
   6  16 -16    1.53    1.73
  -6 -16  16    0.85    0.73
   6  16 -16    0.54    0.68
   6  16 -15    3.78    1.50
  -6 -16  15    3.80    0.85
   6  16 -15    2.74    0.80
   6  16 -14    7.57    1.73
  -6 -16  14    5.18    0.81
   6  16 -14    3.87    0.79
   6  16 -13   15.46    2.42
  -6 -16  13   17.67    1.32
   6  16 -13   12.78    1.11
   6  16 -12    5.41    1.66
  -6 -16  12    5.27    0.81
   6  16 -12    3.92    0.71
   6  16 -11   22.55    3.14
  -6 -16  11   25.81    1.72
   6  16 -11   20.76    1.44
   6  16 -10    0.48    1.33
  -6 -16  10    0.75    0.71
   6  16 -10    0.36    0.63
   6  16  -9    3.15    1.31
   6  16  -9    3.62    1.31
  -6 -16   9    3.99    0.75
   6  16  -9    2.63    0.73
   6  16  -8   26.50    3.57
   6  16  -8   23.21    3.13
  -6 -16   8   19.09    1.36
   6  16  -8   21.68    1.45
   6  16  -7   18.29    2.63
   6  16  -7   17.01    2.42
  -6 -16   7   22.24    1.57
   6  16  -7   24.28    1.58
   6  16  -6    3.60    0.95
   6  16  -6    2.73    1.06
  -6 -16   6    3.39    0.83
   6  16  -6    2.97    0.76
  -6 -16   5   65.07    3.76
   6  16  -5   64.06    3.65
  -6 -16   4    5.02    0.88
   6  16  -4    6.01    0.81
  -6 -16   3   15.62    1.30
   6  16  -3   16.57    1.27
  -6 -16   2    0.33    0.68
   6  16  -2    0.10    0.71
  -6 -16   1    4.02    0.85
   6  16  -1    2.43    0.72
  -6 -16   0    3.55    0.75
   6  16   0    3.47    0.78
  -6 -16  -1   66.49    3.82
   6  16   1   59.16    3.41
  -6 -16  -2    1.26    0.77
   6  16   2    1.66    0.77
  -6 -16  -3   17.68    1.36
   6  16   3   19.46    1.41
  -6 -16  -4    3.67    0.73
   6  16   4    2.97    0.75
  -6 -16  -5   18.79    1.36
   6  16   5   21.18    1.46
  -6 -16  -6    8.62    0.94
   6  16   6   10.48    1.04
  -6 -16  -7   11.45    1.02
   6  16   7   10.97    0.97
  -6 -16  -8    2.36    0.81
   6  16   8    2.79    0.75
  -6 -16  -9   13.62    1.21
   6  16   9   10.26    1.06
  -6 -16 -10   -0.71    0.84
   6  16  10   -0.07    0.86
  -6 -16 -11    5.44    2.15
  -6 -16 -11    3.90    2.00
  -6 -16 -11    4.95    1.04
   6  16  11    3.62    0.89
   5  15 -17   -0.70    1.75
  -5 -15  17    0.49    0.89
   5  15 -17    0.07    0.70
   5  15 -16    0.66    1.19
  -5 -15  16    0.74    0.76
   5  15 -16    0.47    0.75
   5  15 -15   17.04    2.57
  -5 -15  15   15.58    1.21
   5  15 -15   16.82    1.26
   5  15 -14    1.43    1.29
  -5 -15  14   -0.25    0.71
   5  15 -14    1.07    0.69
   5  15 -13   34.65    4.48
  -5 -15  13   31.63    1.98
   5  15 -13   27.17    1.73
   5  15 -12    4.93    1.43
  -5 -15  12    8.12    0.93
   5  15 -12    7.08    0.90
   5  15 -11    0.27    1.26
  -5 -15  11    0.30    0.69
   5  15 -11    0.04    0.64
   5  15 -10    1.98    1.24
  -5 -15  10    4.07    0.73
   5  15 -10    3.72    0.77
   5  15  -9   54.11    6.74
  -5 -15   9   53.06    3.09
   5  15  -9   45.03    2.62
   5  15  -8    6.06    1.35
  -5 -15   8    7.26    0.90
   5  15  -8    7.55    0.93
   5  15  -7   27.80    3.59
  -5 -15   7   26.63    1.74
   5  15  -7   28.58    1.86
   5  15  -6    3.53    1.18
   5  15  -6    4.15    1.26
  -5 -15   6    7.23    0.96
   5  15  -6    7.46    0.90
   5  15  -5    4.41    1.05
   5  15  -5    3.49    0.89
  -5 -15   5    5.53    0.92
   5  15  -5    6.23    0.87
  -5 -15   4    6.22    0.87
   5  15  -4    6.90    0.87
  -5 -15   3   17.81    1.44
   5  15  -3   16.61    1.27
  -5 -15   2   13.78    1.18
   5  15  -2   12.12    1.04
  -5 -15   1   96.45    5.41
   5  15  -1   96.77    5.42
  -5 -15   0    0.29    0.74
   5  15   0    2.69    0.75
  -5 -15  -1    8.74    1.00
   5  15   1   10.10    1.03
  -5 -15  -2    1.12    0.77
   5  15   2    0.65    0.68
  -5 -15  -3    4.14    0.85
   5  15   3    5.12    0.80
  -5 -15  -4    6.40    0.82
   5  15   4    7.93    0.87
  -5 -15  -5    6.56    0.87
   5  15   5    8.88    0.96
  -5 -15  -6    0.94    0.69
   5  15   6    0.68    0.67
  -5 -15  -7   37.17    2.26
   5  15   7   38.36    2.34
  -5 -15  -8   -0.16    0.70
   5  15   8    0.31    0.65
  -5 -15  -9   -0.93    1.47
  -5 -15  -9    0.94    1.27
  -5 -15  -9    0.20    0.65
   5  15   9   -0.35    0.70
  -5 -15 -10    0.05    1.73
  -5 -15 -10    2.40    1.74
  -5 -15 -10    1.82    0.85
   5  15  10    2.16    0.81
  -5 -15 -11    5.01    1.87
  -5 -15 -11    3.33    2.20
  -5 -15 -11    2.11    0.85
   5  15  11    3.71    0.86
  -5 -15 -12   -0.88    1.92
  -5 -15 -12   -2.95    2.20
  -5 -15 -12    0.70    0.88
   5  15  12    0.58    0.84
   4  14 -17    3.00    1.55
  -4 -14  17    0.26    0.88
   4  14 -17    2.68    0.77
   4  14 -16    2.87    1.37
  -4 -14  16    0.91    0.80
   4  14 -16    1.25    0.71
   4  14 -15    2.80    1.18
  -4 -14  15    1.01    0.76
   4  14 -15    1.28    0.72
   4  14 -14   24.53    3.28
  -4 -14  14   26.51    1.73
   4  14 -14   26.57    1.72
   4  14 -13    9.32    1.74
  -4 -14  13    7.48    0.91
   4  14 -13    9.14    0.88
   4  14 -12   16.56    2.41
  -4 -14  12   14.29    1.18
   4  14 -12   13.72    1.10
   4  14 -11   34.07    4.36
  -4 -14  11   29.35    1.88
   4  14 -11   30.26    1.90
   4  14 -10    2.02    1.17
  -4 -14  10    5.44    0.82
   4  14 -10    5.85    0.85
   4  14  -9    9.27    1.74
  -4 -14   9    8.25    0.91
   4  14  -9    6.51    0.86
   4  14  -8   95.67   11.68
  -4 -14   8  103.70    5.78
   4  14  -8   80.93    4.53
   4  14  -7    5.91    1.28
  -4 -14   7    6.01    0.92
   4  14  -7    7.15    0.93
   4  14  -6   40.74    5.10
  -4 -14   6   47.25    2.83
   4  14  -6   46.24    2.74
   4  14  -5   86.17   10.48
  -4 -14   5   81.41    4.61
   4  14  -5   77.22    4.38
   4  14  -4    1.04    0.72
   4  14  -4    0.40    0.78
  -4 -14   4    0.31    0.80
   4  14  -4    0.16    0.72
  -4 -14   3  158.50    8.73
   4  14  -3  145.60    7.99
  -4 -14   2    6.00    0.84
   4  14  -2    6.16    0.92
  -4 -14   1    9.38    0.96
   4  14  -1    9.73    1.00
  -4 -14   0   33.76    2.13
   4  14   0   32.37    2.06
  -4 -14  -1    4.02    0.85
   4  14   1    5.70    0.80
  -4 -14  -2   87.65    4.94
   4  14   2   81.11    4.59
  -4 -14  -3   56.03    3.26
   4  14   3   56.03    3.26
  -4 -14  -4   82.49    4.65
   4  14   4   85.12    4.78
  -4 -14  -5    1.25    0.74
   4  14   5    0.28    0.71
  -4 -14  -6   12.25    1.09
   4  14   6   13.79    1.15
  -4 -14  -7    1.47    0.80
  -4 -14  -7    2.28    0.91
  -4 -14  -7    3.28    0.78
   4  14   7    1.96    0.63
  -4 -14  -8    2.81    1.14
  -4 -14  -8    3.17    1.25
  -4 -14  -8    3.33    0.78
   4  14   8    3.22    0.75
  -4 -14  -9   35.56    4.55
  -4 -14  -9   37.00    4.72
  -4 -14  -9   28.71    1.83
   4  14   9   27.32    1.76
  -4 -14 -10    0.57    1.39
  -4 -14 -10    0.53    1.47
  -4 -14 -10    1.67    0.75
   4  14  10    1.37    0.69
  -4 -14 -11    6.46    1.98
  -4 -14 -11    5.03    1.71
  -4 -14 -11    4.55    0.85
   4  14  11    4.03    0.84
  -4 -14 -12   13.35    2.46
  -4 -14 -12   12.99    2.32
  -4 -14 -12   15.33    1.26
   4  14  12   14.43    1.25
  -4 -14 -13    1.13    2.00
  -4 -14 -13    4.23    1.96
  -4 -14 -13    2.39    0.82
   4  14  13    2.46    0.95
  -4 -14 -14    4.15    2.53
  -4 -14 -14    1.84    1.89
  -4 -14 -14    5.53    1.06
   4  14  14    3.79    1.03
   3  13 -17    0.49    1.21
  -3 -13  17    0.59    0.82
   3  13 -17    0.48    0.81
   3  13 -16   17.93    2.61
  -3 -13  16   14.40    1.24
   3  13 -16   15.57    1.23
   3  13 -15   -0.47    1.08
  -3 -13  15   -1.41    0.73
   3  13 -15    0.91    0.74
   3  13 -14    1.18    1.19
  -3 -13  14    0.21    0.75
   3  13 -14    0.18    0.67
   3  13 -13    3.27    1.32
  -3 -13  13    1.77    0.74
   3  13 -13    1.45    0.66
   3  13 -12   53.14    6.61
  -3 -13  12   53.65    3.13
   3  13 -12   50.79    2.90
   3  13 -11    4.19    1.25
  -3 -13  11    4.91    0.80
   3  13 -11    4.57    0.78
   3  13 -10  136.10   16.54
  -3 -13  10  126.40    6.97
   3  13 -10  122.90    6.76
   3  13  -9    3.21    1.18
  -3 -13   9    2.39    0.79
   3  13  -9    2.17    0.79
   3  13  -8   82.89   10.17
  -3 -13   8   72.08    4.11
   3  13  -8   55.37    3.21
   3  13  -7    8.37    1.51
  -3 -13   7    5.45    0.87
   3  13  -7    4.01    0.74
   3  13  -6   32.35    4.10
  -3 -13   6   34.19    2.18
   3  13  -6   32.74    2.09
   3  13  -5   42.99    5.34
  -3 -13   5   41.27    2.50
   3  13  -5   36.73    2.22
   3  13  -4  147.00   17.79
  -3 -13   4  167.00    9.16
   3  13  -4  160.10    8.78
   3  13  -3    3.11    0.82
  -3 -13   3    3.88    0.83
   3  13  -3    3.50    0.78
  -3 -13   2  166.50    9.14
   3  13  -2  187.30   10.21
  -3 -13   1    3.69    0.78
   3  13  -1    2.50    0.74
  -3 -13   0   16.45    1.30
   3  13   0   17.34    1.28
  -3 -13  -1    0.65    0.73
   3  13   1    1.27    0.63
  -3 -13  -2  135.60    7.49
   3  13   2  137.90    7.59
  -3 -13  -3    0.35    0.73
   3  13   3   -0.44    0.62
  -3 -13  -4  138.20    7.63
   3  13   4  129.90    7.19
  -3 -13  -5   10.18    1.02
   3  13   5    9.90    0.98
  -3 -13  -6   24.56    3.06
  -3 -13  -6   32.05    3.98
  -3 -13  -6   24.92    1.64
   3  13   6   28.32    1.87
  -3 -13  -7    4.86    1.12
  -3 -13  -7    2.75    1.08
  -3 -13  -7    5.96    0.85
   3  13   7    5.13    0.79
  -3 -13  -8    4.53    1.16
  -3 -13  -8    3.10    1.12
  -3 -13  -8    3.50    0.75
   3  13   8    1.70    0.66
  -3 -13  -9    2.19    1.15
  -3 -13  -9    0.83    1.12
  -3 -13  -9    0.63    0.61
   3  13   9    2.21    0.76
  -3 -13 -10   68.80    8.47
  -3 -13 -10   70.33    8.65
  -3 -13 -10   66.50    3.77
   3  13  10   72.90    4.12
  -3 -13 -11    3.71    1.35
  -3 -13 -11    3.28    1.29
  -3 -13 -11    3.53    0.77
   3  13  11    4.36    0.79
  -3 -13 -12    1.94    1.41
  -3 -13 -12    1.97    1.38
  -3 -13 -12    2.16    0.77
   3  13  12    0.71    0.78
  -3 -13 -13    0.91    1.62
  -3 -13 -13    0.25    1.49
  -3 -13 -13    0.15    0.88
   3  13  13    0.12    0.79
  -3 -13 -14    9.90    2.16
  -3 -13 -14    9.55    2.11
  -3 -13 -14    9.10    1.09
   3  13  14    7.28    1.01
  -3 -13 -15    2.82    1.98
  -3 -13 -15    0.93    1.53
  -3 -13 -15   -0.82    1.00
   3  13  15    1.67    1.11
   2  12 -18    2.24    1.33
   2  12 -18    1.04    0.96
   2  12 -17    5.56    1.37
  -2 -12  17    3.86    0.90
   2  12 -17    5.21    0.94
   2  12 -16    1.09    1.10
  -2 -12  16    0.09    0.80
   2  12 -16    0.29    0.77
   2  12 -15   28.43    3.68
  -2 -12  15   27.51    1.80
   2  12 -15   29.10    1.86
   2  12 -14   19.56    2.74
  -2 -12  14   15.47    1.22
   2  12 -14   16.74    1.20
   2  12 -13    5.08    1.35
  -2 -12  13    4.93    0.82
   2  12 -13    7.41    0.82
   2  12 -12   35.98    4.58
  -2 -12  12   33.49    2.09
   2  12 -12   34.96    2.09
   2  12 -11   20.31    2.76
  -2 -12  11   25.32    1.69
   2  12 -11   19.18    1.43
   2  12 -10    3.54    1.24
  -2 -12  10    3.33    0.75
   2  12 -10    2.22    0.71
   2  12  -9    9.74    1.73
  -2 -12   9   11.84    1.09
   2  12  -9   10.32    1.03
   2  12  -8    2.83    1.16
  -2 -12   8    1.55    0.74
   2  12  -8    0.94    0.74
   2  12  -7   12.25    1.90
  -2 -12   7   14.86    1.21
   2  12  -7   14.56    1.13
   2  12  -6   56.88    7.03
  -2 -12   6   49.67    2.94
   2  12  -6   50.36    2.94
   2  12  -5   54.16    6.70
  -2 -12   5   58.65    3.39
   2  12  -5   56.54    3.29
   2  12  -4   75.99    9.32
  -2 -12   4   56.25    3.28
   2  12  -4   65.95    3.74
   2  12  -3  122.60   14.84
  -2 -12   3  119.20    6.61
   2  12  -3  124.00    6.85
   2  12  -2  104.30   12.63
  -2 -12   2   93.69    5.26
   2  12  -2   96.14    5.39
  -2 -12   1    0.41    0.67
   2  12  -1    0.92    0.65
  -2 -12   0   82.51    4.67
   2  12   0   82.04    4.64
  -2 -12  -1   27.06    1.78
   2  12   1   28.34    1.82
  -2 -12  -2   38.81    2.39
   2  12   2   42.10    2.55
  -2 -12  -3   89.84    5.05
   2  12   3   89.92    5.04
  -2 -12  -4   49.40    2.95
   2  12   4   46.96    2.79
  -2 -12  -5   41.93    5.12
  -2 -12  -5   44.86    5.50
  -2 -12  -5   36.73    2.27
   2  12   5   44.12    2.64
  -2 -12  -6  186.50   22.53
  -2 -12  -6  154.60   18.69
  -2 -12  -6  155.60    8.54
   2  12   6  149.60    8.22
  -2 -12  -7   31.25    3.91
  -2 -12  -7   39.50    4.94
  -2 -12  -7   37.99    2.36
   2  12   7   36.84    2.25
  -2 -12  -8    0.53    0.83
  -2 -12  -8    0.39    1.02
  -2 -12  -8    0.15    0.68
   2  12   8    0.49    0.70
  -2 -12  -9   25.65    3.38
  -2 -12  -9   22.99    3.01
  -2 -12  -9   26.00    1.74
   2  12   9   24.29    1.63
  -2 -12 -10    3.69    1.10
  -2 -12 -10    4.50    1.31
  -2 -12 -10    4.52    0.76
   2  12  10    3.94    0.71
  -2 -12 -11    6.03    1.34
  -2 -12 -11   10.40    1.83
  -2 -12 -11   11.73    1.10
   2  12  11   13.07    1.11
  -2 -12 -12   18.32    2.54
  -2 -12 -12   18.65    2.64
  -2 -12 -12   18.79    1.41
   2  12  12   16.33    1.30
  -2 -12 -13    0.35    1.15
  -2 -12 -13    2.19    1.27
  -2 -12 -13    1.93    0.71
   2  12  13    0.71    0.76
  -2 -12 -14   16.01    2.44
  -2 -12 -14   14.43    2.20
  -2 -12 -14   13.92    1.21
   2  12  14   14.59    1.24
  -2 -12 -15    2.82    1.61
  -2 -12 -15    1.68    1.43
  -2 -12 -15    1.68    0.91
   2  12  15    1.91    0.88
  -2 -12 -16    0.14    1.70
  -2 -12 -16   -1.39    1.49
  -2 -12 -16   -0.06    0.96
   1  11 -18    0.65    1.36
   1  11 -18    0.59    1.09
   1  11 -17   -1.64    1.29
   1  11 -17   -0.38    0.91
   1  11 -16    2.38    1.28
  -1 -11  16    1.30    0.85
   1  11 -16    0.84    0.81
   1  11 -15   17.87    2.58
  -1 -11  15   21.21    1.49
   1  11 -15   17.10    1.26
   1  11 -14    1.90    1.05
  -1 -11  14    4.00    0.78
   1  11 -14    4.31    0.73
   1  11 -13   38.74    4.91
  -1 -11  13   35.72    2.18
   1  11 -13   37.13    2.21
   1  11 -12    2.65    1.21
  -1 -11  12    0.24    0.67
   1  11 -12    0.61    0.67
   1  11 -11   19.04    2.69
  -1 -11  11   19.93    1.42
   1  11 -11   21.76    1.45
   1  11 -10    2.71    1.20
  -1 -11  10    2.74    0.67
   1  11 -10    2.02    0.74
   1  11  -9   22.88    3.08
  -1 -11   9   22.09    1.52
   1  11  -9   23.72    1.54
   1  11  -8    8.60    1.66
  -1 -11   8    5.15    0.82
   1  11  -8    5.42    0.83
   1  11  -7  254.00   30.71
  -1 -11   7  232.70   12.63
   1  11  -7  254.30   13.79
   1  11  -6   12.43    1.87
  -1 -11   6   13.67    1.10
   1  11  -6   13.55    1.03
   1  11  -5   53.90    6.68
  -1 -11   5   54.39    3.17
   1  11  -5   54.16    3.17
   1  11  -4    1.58    0.84
  -1 -11   4    2.32    0.72
   1  11  -4    1.20    0.66
   1  11  -3   24.11    3.10
  -1 -11   3   25.44    1.70
   1  11  -3   23.29    1.54
   1  11  -2    7.43    1.23
  -1 -11   2   12.04    1.08
   1  11  -2   12.46    1.11
   1  11  -1  646.90   77.95
  -1 -11   1  613.00   32.98
   1  11  -1  584.30   31.45
   1  11   0    6.45    0.88
  -1 -11   0    7.80    0.87
   1  11   0    8.75    0.92
  -1 -11  -1   83.30    4.73
   1  11   1   84.39    4.77
  -1 -11  -2    6.50    0.89
   1  11   2    7.87    0.87
  -1 -11  -3   40.41    2.47
   1  11   3   37.69    2.30
  -1 -11  -4   -0.31    0.67
  -1 -11  -4    0.81    0.67
   1  11   4   -0.22    0.56
  -1 -11  -5  187.60   22.67
  -1 -11  -5  169.70    9.28
   1  11   5  173.20    9.48
  -1 -11  -6    3.57    1.06
  -1 -11  -6    3.23    0.68
   1  11   6    3.90    0.76
  -1 -11  -7  173.70   21.02
  -1 -11  -7  164.70    9.02
   1  11   7  168.10    9.20
  -1 -11  -8   12.95    1.94
  -1 -11  -8    9.09    0.96
   1  11   8    9.65    0.99
  -1 -11  -9    5.66    1.29
  -1 -11  -9    8.49    0.93
   1  11   9    7.13    0.87
  -1 -11 -10    0.30    1.05
  -1 -11 -10    0.42    0.71
   1  11  10    1.13    0.67
  -1 -11 -11    0.65    0.70
   1  11  11    0.10    0.67
  -1 -11 -12    8.85    0.94
   1  11  12    9.48    0.94
  -1 -11 -13   31.86    1.98
   1  11  13   28.48    1.84
  -1 -11 -14   -0.18    1.01
  -1 -11 -14    1.24    0.79
   1  11  14    0.27    0.72
  -1 -11 -15   14.76    2.28
  -1 -11 -15   15.25    1.26
   1  11  15   15.48    1.27
  -1 -11 -16    3.36    1.50
  -1 -11 -16    2.07    0.96
  -1 -11 -17    1.69    1.50
  -1 -11 -17   -0.07    1.28
  -1 -11 -17    0.63    0.83
  -1 -11 -17   -0.07    0.94
   0  10 -18    5.38    1.30
   0  10 -18    0.24    0.76
   0  10 -18    3.35    1.39
   0  10 -17   24.50    3.25
   0  10 -16    2.52    1.29
   0  10 -16    2.80    0.77
   0  10 -15    8.49    1.62
   0 -10  15    6.05    0.88
   0  10 -15    6.35    0.86
   0  10 -14    9.19    1.53
   0 -10  14   15.30    1.20
   0  10 -14   12.66    1.03
   0  10 -13    2.32    1.16
   0 -10  13    0.20    0.65
   0  10 -13    0.95    0.60
   0  10 -12   17.00    2.39
   0 -10  12   15.49    1.18
   0  10 -12   15.98    1.23
   0  10 -11   52.62    6.55
   0 -10  11   50.05    2.92
   0  10 -11   48.97    2.83
   0  10 -10    7.77    1.51
   0 -10  10    7.73    0.86
   0  10 -10    8.56    0.93
   0  10  -9   87.21   10.70
   0 -10   9   80.05    4.50
   0  10  -9   77.38    4.34
   0  10  -8   21.05    2.90
   0 -10   8   27.27    1.77
   0  10  -8   27.55    1.71
   0  10  -7   49.00    6.09
   0 -10   7   43.99    2.60
   0  10  -7   46.63    2.73
   0  10  -6  113.00   13.78
   0 -10   6  120.70    6.67
   0  10  -6  122.80    6.73
   0  10  -5    8.67    1.45
   0 -10   5    7.02    0.85
   0  10  -5    7.24    0.77
   0  10  -4    1.20    1.05
   0 -10   4    1.85    0.65
   0  10  -4    1.46    0.67
   0  10  -3   76.34    9.32
   0 -10   3   68.82    3.92
   0  10  -3   64.16    3.67
   0  10  -2    3.71    1.04
   0 -10   2    2.76    0.74
   0  10  -2    2.43    0.69
   0  10  -1  476.40   57.41
   0 -10   1  422.90   22.82
   0  10  -1  398.90   21.53
   0  10   0  821.70   98.98
   0 -10   0  812.90   43.67
   0  10   0  753.60   40.47
   0 -10  -1  403.00   48.57
   0  10   1  440.10   53.05
   0 -10  -1  385.50   20.82
   0  10   1  418.00   22.55
   0 -10  -2    1.57    0.58
   0 -10  -2    0.92    0.63
   0  10   2    1.64    0.65
   0 -10  -3   78.12    9.48
   0 -10  -3   65.21    3.73
   0  10   3   69.92    3.98
   0 -10  -4    1.13    0.78
   0 -10  -4    1.44    0.65
   0  10   4    1.85    0.68
   0 -10  -5    8.72    1.44
   0 -10  -5    6.18    0.82
   0  10   5    7.39    0.85
   0 -10  -6  126.10   15.31
   0 -10  -6  118.90    6.56
   0  10   6  121.70    6.72
   0 -10  -7   49.71    6.15
   0 -10  -7   46.30    2.75
   0  10   7   45.65    2.71
   0 -10  -8   24.12    3.19
   0 -10  -8   25.14    1.68
   0  10   8   27.36    1.78
   0 -10  -9   92.62   11.33
   0 -10  -9   77.95    4.38
   0  10   9   74.75    4.22
   0 -10 -10    7.44    1.36
   0 -10 -10    7.49    0.92
   0  10  10    6.60    0.86
   0 -10 -11   48.36    2.85
   0  10  11   48.90    2.88
   0 -10 -12   16.24    1.24
   0  10  12   15.24    1.19
   0 -10 -13    1.86    0.70
   0  10  13    0.15    0.65
   0 -10 -14   12.10    1.06
   0  10  14   13.83    1.14
   0 -10 -15    6.21    0.90
   0  10  15    7.39    0.91
   0 -10 -16    2.54    0.85
   0 -10 -17   22.76    1.63
   0 -10 -17   20.00    1.46
   0 -10 -18    5.77    1.68
   0 -10 -18    3.84    0.98
   0 -10 -18    5.56    1.06
  -1   9 -18   11.03    1.99
  -1   9 -17    0.39    1.29
  -1   9 -17    0.10    0.79
  -1   9 -17   -0.47    0.59
  -1   9 -16   36.92    4.74
  -1   9 -15    2.88    1.29
  -1   9 -15    2.10    0.69
  -1   9 -14   16.99    2.41
   1  -9  14   14.29    1.11
  -1   9 -14   16.22    1.18
  -1   9 -13    6.65    1.44
   1  -9  13    5.53    0.78
  -1   9 -13    6.03    0.78
  -1   9 -12    5.78    1.43
   1  -9  12    5.55    0.73
  -1   9 -12    6.42    0.73
  -1   9 -11    8.64    1.57
   1  -9  11    9.91    0.90
  -1   9 -11    9.32    0.87
  -1   9 -10  235.70   28.53
   1  -9  10  230.60   12.50
  -1   9 -10  226.40   12.26
  -1   9  -9   -0.01    1.17
   1  -9   9   -0.23    0.61
  -1   9  -9    0.16    0.59
  -1   9  -8   50.85    6.37
   1  -9   8   44.85    2.64
  -1   9  -8   47.13    2.70
  -1   9  -7   14.60    2.25
   1  -9   7    8.17    0.81
  -1   9  -7    9.99    0.88
  -1   9  -6    9.09    1.59
   1  -9   6    9.10    0.88
  -1   9  -6    5.38    0.74
  -1   9  -5    0.16    1.04
   1  -9   5    0.37    0.58
  -1   9  -5    0.49    0.57
  -1   9  -4   71.24    8.73
   1  -9   4   73.90    4.18
  -1   9  -4   71.37    4.04
  -1   9  -3   24.94    3.24
   1  -9   3   23.22    1.57
  -1   9  -3   22.67    1.52
  -1   9  -2  390.90   47.14
   1  -9   2  440.40   23.73
  -1   9  -2  427.20   23.01
  -1   9  -1   78.42    9.57
   1  -9   1   55.77    3.26
  -1   9  -1   61.40    3.54
   1  -9   0   16.74    2.20
  -1   9   0   23.04    2.98
   1  -9   0   22.08    1.53
  -1   9   0   22.93    1.55
   1  -9  -1   18.13    2.39
  -1   9   1   19.77    2.59
   1  -9  -1   27.22    1.76
  -1   9   1   30.96    1.95
   1  -9  -2 1352.00  162.80
  -1   9   2 1438.00  173.10
   1  -9  -2 1385.00   74.27
  -1   9   2 1426.00   76.41
   1  -9  -3   35.58    4.45
   1  -9  -3   28.63    1.87
  -1   9   3   26.42    1.71
   1  -9  -4  507.30   61.11
   1  -9  -4  498.40   26.85
  -1   9   4  492.10   26.51
   1  -9  -5    6.10    1.25
   1  -9  -5    6.63    0.85
  -1   9   5    7.65    0.85
   1  -9  -6    1.81    1.02
   1  -9  -6    1.05    0.70
  -1   9   6    0.55    0.66
   1  -9  -7   26.45    3.47
   1  -9  -7   17.89    1.33
  -1   9   7   18.32    1.34
   1  -9  -8   49.42    6.14
   1  -9  -8   48.18    2.86
  -1   9   8   49.63    2.94
   1  -9  -9    5.73    1.25
   1  -9  -9    2.64    0.67
  -1   9   9    3.35    0.68
   1  -9 -10  232.40   28.12
   1  -9 -10  243.50   13.21
  -1   9  10  232.50   12.64
   1  -9 -11   12.73    1.10
  -1   9  11   12.69    1.07
   1  -9 -12  103.10    5.72
  -1   9  12   96.60    5.38
   1  -9 -13    2.79    0.79
  -1   9  13    2.66    0.72
   1  -9 -14    4.38    0.74
  -1   9  14    5.60    0.82
   1  -9 -15   -0.09    0.69
   1  -9 -16   29.02    1.85
   1  -9 -17    0.25    0.74
   1  -9 -17   -1.09    0.72
   1  -9 -18   19.30    1.43
   1  -9 -18   19.45    1.50
   1  -9 -19   -0.52    1.03
   1  -9 -19    1.09    0.97
  -2   8 -18    3.34    1.42
  -2   8 -17    2.22    1.33
  -2   8 -16    1.46    1.11
  -2   8 -15    1.96    1.13
  -2   8 -15    2.70    0.57
  -2   8 -15    2.00    0.49
  -2   8 -14   57.99    7.21
  -2   8 -14   50.84    2.86
  -2   8 -13    0.59    1.00
   2  -8  13    0.89    0.53
  -2   8 -13    1.04    0.58
  -2   8 -12   43.58    5.52
   2  -8  12   40.62    2.34
  -2   8 -12   42.31    2.42
  -2   8 -11    0.11    1.22
   2  -8  11    0.35    0.55
  -2   8 -11   -0.08    0.55
  -2   8 -10   15.98    2.42
   2  -8  10   17.21    1.19
  -2   8 -10   17.67    1.17
  -2   8  -9   82.91   10.18
   2  -8   9   89.21    4.93
  -2   8  -9   84.67    4.72
  -2   8  -8  217.60   26.36
   2  -8   8  203.40   11.02
  -2   8  -8  198.80   10.75
  -2   8  -7    2.38    1.18
   2  -8   7    1.21    0.57
  -2   8  -7    1.30    0.53
  -2   8  -6  247.50   29.95
   2  -8   6  235.10   12.73
  -2   8  -6  238.60   12.92
  -2   8  -5   18.03    2.55
   2  -8   5   20.37    1.36
  -2   8  -5   22.04    1.40
  -2   8  -4   39.18    4.94
   2  -8   4   39.61    2.36
  -2   8  -4   40.35    2.37
  -2   8  -3  179.90   21.78
   2  -8   3  179.50    9.78
  -2   8  -3  188.20   10.25
  -2   8  -2  463.80   55.91
   2  -8   2  432.50   23.29
  -2   8  -2  429.20   23.10
   2  -8   1  168.90   20.44
  -2   8  -1  165.40   20.02
   2  -8   1  170.70    9.32
  -2   8  -1  176.90    9.64
   2  -8   0  367.70   44.34
  -2   8   0  410.20   49.47
   2  -8   0  406.30   21.91
  -2   8   0  408.00   22.00
   2  -8  -1  227.60   27.47
  -2   8   1  233.60   28.22
   2  -8  -1  221.90   12.06
  -2   8   1  222.60   12.07
   2  -8  -2  487.70   58.77
  -2   8   2  545.80   65.77
   2  -8  -2  492.20   26.51
  -2   8   2  482.60   25.98
   2  -8  -3  104.80   12.73
  -2   8   3  112.40   13.65
   2  -8  -3  120.30    6.67
  -2   8   3  124.70    6.89
   2  -8  -4  157.50   19.07
   2  -8  -4  131.50    7.27
  -2   8   4  136.80    7.52
   2  -8  -5  139.30   16.90
   2  -8  -5  142.20    7.84
  -2   8   5  143.10    7.87
   2  -8  -6   26.62    3.48
   2  -8  -6   20.54    1.45
  -2   8   6   25.21    1.63
   2  -8  -7    0.36    1.03
   2  -8  -7    1.27    0.68
  -2   8   7    1.71    0.64
   2  -8  -8  236.80   28.64
   2  -8  -8  240.60   13.09
  -2   8   8  223.40   12.14
   2  -8  -9   18.77    2.58
   2  -8  -9   26.03    1.75
  -2   8   9   23.55    1.58
   2  -8 -10    3.61    1.09
   2  -8 -10    8.93    0.93
  -2   8  10    8.46    0.87
   2  -8 -11   35.01    2.18
  -2   8  11   34.60    2.12
   2  -8 -12   67.84    3.89
  -2   8  12   74.87    4.23
   2  -8 -13   10.41    0.98
  -2   8  13    8.08    0.86
   2  -8 -14    5.53    0.82
   2  -8 -15    0.85    0.72
   2  -8 -16    3.55    0.77
   2  -8 -16    4.30    0.67
   2  -8 -17   15.38    1.27
   2  -8 -17   14.29    1.13
   2  -8 -18   10.17    1.08
   2  -8 -18   10.14    1.01
   2  -8 -19   -0.24    0.86
   2  -8 -19    1.36    0.88
  -3   7 -17    2.02    1.34
  -3   7 -16    6.24    1.58
  -3   7 -15   17.00    2.49
  -3   7 -14    2.69    1.10
  -3   7 -13   86.08   10.55
  -3   7 -13   71.25    3.91
  -3   7 -13   79.63    4.37
  -3   7 -12    1.66    1.07
  -3   7 -12    1.45    0.44
  -3   7 -11   22.18    3.02
   3  -7  11   24.54    1.47
  -3   7 -11   24.27    1.49
  -3   7 -10   18.49    2.62
   3  -7  10   16.00    1.07
  -3   7 -10   17.70    1.12
  -3   7  -9   72.17    8.92
   3  -7   9   70.85    3.93
  -3   7  -9   81.83    4.51
  -3   7  -8   52.25    6.58
   3  -7   8   35.97    2.11
  -3   7  -8   38.21    2.19
  -3   7  -7  721.00   86.88
   3  -7   7  716.80   38.47
  -3   7  -7  565.20   30.34
  -3   7  -6   11.85    1.87
   3  -7   6    8.77    0.78
  -3   7  -6    9.54    0.83
  -3   7  -5  226.00   27.35
   3  -7   5  252.80   13.66
  -3   7  -5  299.20   16.16
  -3   7  -4   73.75    9.08
   3  -7   4   73.40    4.10
  -3   7  -4   68.31    3.81
  -3   7  -3  205.40   24.86
   3  -7   3  227.50   12.31
  -3   7  -3  206.50   11.21
   3  -7   2   28.54    3.74
  -3   7  -2   25.45    3.32
   3  -7   2   25.36    1.62
  -3   7  -2   22.86    1.50
   3  -7   1  397.50   47.95
  -3   7  -1  372.90   44.99
   3  -7   1  392.70   21.15
  -3   7  -1  394.70   21.25
   3  -7   0   -0.07    0.95
  -3   7   0    1.12    1.10
   3  -7   0    0.86    0.62
  -3   7   0    0.81    0.60
   3  -7  -1   17.78    2.40
  -3   7   1   18.95    2.60
   3  -7  -1   16.76    1.24
  -3   7   1   18.93    1.37
   3  -7  -2   27.76    3.56
  -3   7   2   27.19    3.53
   3  -7  -2   31.24    1.98
  -3   7   2   35.86    2.18
   3  -7  -3  847.60  102.10
  -3   7   3  838.10  100.90
   3  -7  -3  842.60   45.22
  -3   7   3  858.10   46.04
   3  -7  -4  269.80   32.58
  -3   7   4  273.70   33.04
   3  -7  -4  228.40   12.42
  -3   7   4  230.50   12.49
   3  -7  -5  109.60   13.35
   3  -7  -5   94.24    5.27
  -3   7   5   95.31    5.32
   3  -7  -6  111.10   13.54
   3  -7  -6  104.70    5.83
  -3   7   6  108.50    6.03
   3  -7  -7   96.77   11.81
   3  -7  -7   88.15    4.93
  -3   7   7   96.27    5.37
   3  -7  -8   57.70    7.16
   3  -7  -8   39.02    2.37
  -3   7   8   40.70    2.43
   3  -7  -9   38.74    4.93
   3  -7  -9   46.24    2.75
  -3   7   9   46.80    2.77
   3  -7 -10  105.60   12.88
   3  -7 -10   83.05    4.67
  -3   7  10   83.89    4.71
   3  -7 -11   49.50    2.89
  -3   7  11   52.65    3.07
   3  -7 -12   23.66    1.60
  -3   7  12   26.64    1.74
   3  -7 -13   41.60    2.51
  -3   7  13   42.86    2.55
   3  -7 -14   -0.20    0.66
   3  -7 -15   25.08    1.63
   3  -7 -16   26.29    1.72
   3  -7 -16   24.33    1.59
   3  -7 -17    8.64    0.89
   3  -7 -17   10.84    0.97
   3  -7 -18    1.76    0.79
   3  -7 -18    2.20    0.69
   3  -7 -19   27.76    1.79
   3  -7 -19   26.53    1.80
   3  -7 -20   -0.87    0.84
   3  -7 -20    0.12    0.91
  -4   6 -17   10.85    1.86
  -4   6 -16    2.48    1.41
  -4   6 -15   52.34    6.57
  -4   6 -14   33.62    4.30
  -4   6 -13   12.62    2.06
  -4   6 -12   27.53    3.60
  -4   6 -11  143.40   17.44
  -4   6 -10    4.80    1.26
  -4   6 -10    5.06    0.44
  -4   6  -9   48.71    6.16
   4  -6   9   39.42    2.22
  -4   6  -9   42.15    2.36
  -4   6  -8   29.80    3.98
   4  -6   8   29.31    1.70
  -4   6  -8   27.79    1.62
  -4   6  -7  244.10   29.55
   4  -6   7  238.90   12.89
  -4   6  -7  241.80   13.02
  -4   6  -6  127.70   15.55
   4  -6   6  131.00    7.13
  -4   6  -6  136.60    7.41
  -4   6  -5  158.30   19.23
   4  -6   5  156.60    8.49
  -4   6  -5  153.90    8.36
  -4   6  -4    0.07    0.98
   4  -6   4    1.37    0.48
  -4   6  -4    1.58    0.46
   4  -6   3    2.99    1.19
  -4   6  -3    3.15    1.19
   4  -6   3    3.89    0.59
  -4   6  -3    1.77    0.51
   4  -6   2   25.66    3.42
  -4   6  -2   22.15    2.98
   4  -6   2   25.43    1.59
  -4   6  -2   24.74    1.56
   4  -6   1  170.80   20.70
  -4   6  -1  166.60   20.19
   4  -6   1  173.70    9.45
  -4   6  -1  172.40    9.37
   4  -6   0   55.14    6.86
  -4   6   0   56.19    6.97
   4  -6   0   56.55    3.24
  -4   6   0   59.17    3.36
   4  -6  -2    9.04    1.64
  -4   6   2   13.19    2.07
   4  -6  -2   10.63    0.94
  -4   6   2   11.15    0.97
   4  -6  -3   24.25    3.24
  -4   6   3   21.11    2.87
   4  -6  -3   19.32    1.39
  -4   6   3   22.10    1.52
   4  -6  -4  147.60   17.91
  -4   6   4  149.80   18.18
   4  -6  -4  155.20    8.51
  -4   6   4  148.20    8.12
   4  -6  -5 1001.00  120.60
  -4   6   5 1060.00  127.70
   4  -6  -5  897.10   48.14
  -4   6   5  984.10   52.76
   4  -6  -6   58.88    7.33
   4  -6  -6   57.54    3.34
  -4   6   6   56.54    3.27
   4  -6  -7   29.38    3.87
   4  -6  -7   40.54    2.45
  -4   6   7   39.16    2.39
   4  -6  -8    2.20    1.17
   4  -6  -8    3.07    0.66
  -4   6   8    3.00    0.68
   4  -6  -9  100.50   12.29
   4  -6  -9   71.41    4.07
  -4   6   9   67.21    3.82
   4  -6 -10    1.82    1.28
   4  -6 -10    1.03    0.66
  -4   6  10    0.67    0.62
   4  -6 -11  301.20   36.41
   4  -6 -11  300.20   16.24
  -4   6  11  299.80   16.22
   4  -6 -12   23.81    1.59
  -4   6  12   21.78    1.48
   4  -6 -13    1.90    0.72
   4  -6 -14   23.61    1.59
   4  -6 -15   35.68    2.12
   4  -6 -15   33.54    2.07
   4  -6 -16    1.68    0.65
   4  -6 -16    1.62    0.68
   4  -6 -17   52.39    3.02
   4  -6 -17   50.63    2.93
   4  -6 -18    2.62    0.82
   4  -6 -18    2.31    0.72
   4  -6 -19   13.37    1.10
   4  -6 -19   13.58    1.12
   4  -6 -20    2.88    0.88
   4  -6 -20    3.20    0.92
  -5   5 -17    3.22    1.36
  -5   5 -16   17.26    2.64
  -5   5 -15    3.10    1.50
  -5   5 -14   81.37   10.02
  -5   5 -13   42.93    5.47
  -5   5 -12   25.66    3.47
  -5   5 -11   28.53    3.77
  -5   5 -10  181.40   22.01
  -5   5  -9    5.37    1.47
  -5   5  -8   40.02    5.15
  -5   5  -7   94.33   11.59
   5  -5   7   58.67    3.22
  -5   5  -7   72.94    3.98
  -5   5  -6    7.61    1.51
   5  -5   6    2.34    0.40
  -5   5  -6    2.60    0.40
  -5   5  -5    4.77    1.29
   5  -5   5    5.01    0.49
  -5   5  -5    4.21    0.51
  -5   5  -4  113.80   13.88
   5  -5   4   99.15    5.41
  -5   5  -4  100.30    5.48
   5  -5   3   20.54    2.90
  -5   5  -3   20.95    2.93
   5  -5   3   26.65    1.59
  -5   5  -3   22.31    1.36
   5  -5   2  107.00   13.06
  -5   5  -2   99.56   12.16
   5  -5   2  109.20    5.97
  -5   5  -2  111.90    6.12
   5  -5   1   36.68    4.68
  -5   5  -1   36.23    4.61
   5  -5   1   39.24    2.28
  -5   5  -1   33.33    2.01
   5  -5   0   23.97    3.24
  -5   5   0   25.95    3.47
   5  -5   0   26.76    1.65
  -5   5   0   27.88    1.70
   5  -5  -1  203.40   24.63
  -5   5   1  210.80   25.50
   5  -5  -1  204.40   11.10
  -5   5   1  186.50   10.13
   5  -5  -2  282.30   34.11
  -5   5   2  268.90   32.48
   5  -5  -2  257.20   13.93
  -5   5   2  266.40   14.42
   5  -5  -3    1.72    1.24
  -5   5   3    3.11    1.28
   5  -5  -3    2.92    0.71
  -5   5   3    3.60    0.70
   5  -5  -4   36.16    4.66
  -5   5   4   36.96    4.70
   5  -5  -4   41.06    2.48
  -5   5   4   40.27    2.43
   5  -5  -5    3.59    1.41
  -5   5   5    2.44    1.12
   5  -5  -5    7.78    0.91
  -5   5   5    6.83    0.79
   5  -5  -6  172.60   20.97
   5  -5  -6  200.90   10.94
  -5   5   6  199.70   10.86
   5  -5  -7  242.20   29.30
   5  -5  -7  190.50   10.40
  -5   5   7  193.40   10.55
   5  -5  -8   64.80    8.03
   5  -5  -8   42.21    2.56
  -5   5   8   43.86    2.62
   5  -5  -9   19.77    2.83
   5  -5  -9   21.75    1.51
  -5   5   9   20.39    1.42
   5  -5 -10  309.90   37.47
   5  -5 -10  290.60   15.75
  -5   5  10  285.10   15.44
   5  -5 -11    9.16    1.70
   5  -5 -11    7.86    0.91
   5  -5 -12  272.40   32.96
   5  -5 -12  280.70   15.20
   5  -5 -13  123.80   15.17
   5  -5 -13   83.26    4.67
   5  -5 -14   40.06    2.42
   5  -5 -14   40.87    2.40
   5  -5 -15   15.52    1.17
   5  -5 -15   16.51    1.25
   5  -5 -16   23.57    1.56
   5  -5 -16   22.64    1.47
   5  -5 -17    1.33    0.65
   5  -5 -17    0.30    0.62
   5  -5 -18   13.14    1.12
   5  -5 -18   12.59    1.01
   5  -5 -19    0.02    0.65
   5  -5 -19    1.02    0.76
   5  -5 -20    3.21    1.40
   5  -5 -20    3.40    0.92
   5  -5 -20    4.78    0.81
   5  -5 -21    3.38    1.33
   5  -5 -21    3.45    0.90
   5  -5 -21    2.01    0.92
  -6   4 -16    1.09    1.51
  -6   4 -15    4.91    1.63
  -6   4 -14   15.02    2.45
  -6   4 -13    9.38    1.75
  -6   4 -12  279.50   33.79
  -6   4 -11   23.10    3.26
  -6   4 -10   19.51    2.85
  -6   4  -9   66.55    8.24
  -6   4  -8   34.07    4.46
  -6   4  -7   33.63    4.40
  -6   4  -6  276.00   33.39
  -6   4  -5    9.21    1.82
   6  -4   5    8.68    0.59
   6  -4   4  128.60   15.67
  -6   4  -4  119.80   14.60
   6  -4   4  123.00    6.66
  -6   4  -4  124.90    6.77
   6  -4   3   42.20    5.36
  -6   4  -3   39.91    5.09
   6  -4   3   37.91    2.15
  -6   4  -3   37.40    2.12
   6  -4   2    0.83    1.10
  -6   4  -2    2.52    1.14
   6  -4   2    0.82    0.44
  -6   4  -2    0.89    0.43
   6  -4   1    3.83    1.16
  -6   4  -1    3.53    1.20
   6  -4   1    3.74    0.56
  -6   4  -1    4.21    0.60
   6  -4   0   67.04    8.28
  -6   4   0   68.82    8.49
   6  -4   0   58.30    3.27
  -6   4   0   59.18    3.35
   6  -4  -1   13.19    2.16
  -6   4   1   12.40    2.07
   6  -4  -1   16.38    1.17
  -6   4   1   14.54    1.03
   6  -4  -2   45.38    5.79
  -6   4   2   47.71    6.00
   6  -4  -2   50.93    2.94
  -6   4   2   50.61    2.91
   6  -4  -3  234.80   28.43
  -6   4   3  226.80   27.43
   6  -4  -3  216.40   11.75
  -6   4   3  230.70   12.51
   6  -4  -4    2.92    1.41
  -6   4   4    3.95    1.35
   6  -4  -4    1.25    0.64
  -6   4   4    0.53    0.63
   6  -4  -5    3.93    1.59
  -6   4   5    4.96    1.35
   6  -4  -5    4.45    0.76
  -6   4   5    3.85    0.73
   6  -4  -6  627.90   75.69
  -6   4   6  652.80   78.69
   6  -4  -6  581.80   31.29
  -6   4   6  583.10   31.33
   6  -4  -7   84.58   10.40
   6  -4  -7   84.13    4.74
  -6   4   7   81.91    4.60
   6  -4  -8  506.20   61.07
   6  -4  -8  526.00   28.33
  -6   4   8  515.80   27.77
   6  -4  -9   42.58    5.41
   6  -4  -9   37.89    2.33
   6  -4 -10   33.99    4.49
   6  -4 -10   41.61    2.51
   6  -4 -11   54.33    6.83
   6  -4 -11   56.41    3.27
   6  -4 -12   73.19    9.09
   6  -4 -12   50.54    2.98
   6  -4 -12   50.73    2.94
   6  -4 -13    1.03    1.32
   6  -4 -13    5.00    0.80
   6  -4 -13    3.80    0.75
   6  -4 -14  231.00   28.02
   6  -4 -14  248.20   13.44
   6  -4 -14  230.10   12.47
   6  -4 -15   51.67    6.56
   6  -4 -15   44.53    2.66
   6  -4 -15   42.73    2.54
   6  -4 -16   50.56    2.94
   6  -4 -16   51.94    3.00
   6  -4 -17   17.76    1.30
   6  -4 -17   15.38    1.14
   6  -4 -18    5.04    0.80
   6  -4 -18    4.10    0.72
   6  -4 -19    1.75    1.28
   6  -4 -19   -0.08    0.74
   6  -4 -19    1.08    0.67
   6  -4 -20    8.91    1.74
   6  -4 -20    7.70    0.98
   6  -4 -20    7.12    0.84
   6  -4 -21   -0.26    1.48
   6  -4 -21   -0.03    0.84
   6  -4 -21   -0.06    0.82
  -7   3 -16   13.91    2.19
  -7   3 -15    5.42    1.66
  -7   3 -14    1.29    1.55
  -7   3 -13   31.60    4.22
  -7   3 -12    2.63    1.26
  -7   3 -11  243.90   29.52
  -7   3 -10   27.34    3.75
  -7   3  -9    4.17    1.44
  -7   3  -8   42.22    5.42
  -7   3  -7   41.32    5.34
  -7   3  -6    3.04    1.32
  -7   3  -5  144.70   17.59
   7  -3   4   36.58    4.75
  -7   3  -4   35.97    4.67
   7  -3   4   30.33    1.70
   7  -3   4   27.86    1.56
   7  -3   3   17.93    2.63
  -7   3  -3   21.43    3.03
   7  -3   3   25.20    1.46
   7  -3   3   22.49    1.31
   7  -3   2  102.80   12.62
  -7   3  -2  101.80   12.45
   7  -3   2   89.54    4.90
   7  -3   1   41.47    5.33
  -7   3  -1   52.64    6.61
   7  -3   1   49.80    2.81
   7  -3   0   23.85    3.32
  -7   3   0   22.18    3.10
   7  -3   0   25.40    1.56
   7  -3  -1   33.91    4.41
  -7   3   1   34.67    4.50
   7  -3  -1   36.89    2.17
   7  -3  -2   36.77    4.79
  -7   3   2   36.96    4.79
   7  -3  -2   23.73    1.54
   7  -3  -3  124.80   15.24
  -7   3   3  121.00   14.75
   7  -3  -3  136.50    7.49
   7  -3  -4  241.00   29.17
  -7   3   4  271.80   32.87
   7  -3  -4  228.30   12.39
   7  -3  -5  111.50   13.65
  -7   3   5  111.40   13.61
   7  -3  -5  101.30    5.64
   7  -3  -6  104.80   12.81
  -7   3   6  110.60   13.52
   7  -3  -6  132.80    7.32
   7  -3  -7  315.80   38.18
  -7   3   7  281.80   34.08
   7  -3  -7  277.90   15.07
   7  -3  -8    5.16    1.61
   7  -3  -8    9.01    0.91
   7  -3  -9  156.10   18.98
   7  -3  -9  175.40    9.60
   7  -3  -9  186.00   10.17
   7  -3 -10    1.33    1.49
   7  -3 -10    1.33    0.68
   7  -3 -10    2.24    0.62
   7  -3 -11    8.47    1.90
   7  -3 -11   17.24    1.30
   7  -3 -11   14.36    1.13
   7  -3 -12   20.57    3.02
   7  -3 -12   25.65    1.66
   7  -3 -12   22.98    1.55
   7  -3 -13  179.20   21.80
   7  -3 -13  141.80    7.79
   7  -3 -13  144.20    7.89
   7  -3 -14    4.07    1.53
   7  -3 -14    3.83    0.83
   7  -3 -14    4.05    0.76
   7  -3 -15   96.49   11.87
   7  -3 -15   92.30    5.16
   7  -3 -15   97.33    5.39
   7  -3 -16    0.87    1.51
   7  -3 -16    0.41    0.70
   7  -3 -16    0.96    0.70
   7  -3 -17   11.62    2.25
   7  -3 -17   16.11    1.25
   7  -3 -17   16.38    1.13
   7  -3 -18    3.43    1.62
   7  -3 -18    2.27    0.74
   7  -3 -18    1.74    0.58
   7  -3 -19   21.69    3.16
   7  -3 -19   13.27    1.14
   7  -3 -19   14.26    1.09
   7  -3 -20    4.08    1.36
   7  -3 -20    4.75    0.83
   7  -3 -20    4.98    0.77
   7  -3 -21    8.51    1.87
   7  -3 -21    6.10    0.96
   7  -3 -21    6.66    0.92
   7  -3 -22    0.28    1.27
   7  -3 -22    1.02    0.95
   7  -3 -22    1.37    0.90
  -8   2 -15   18.93    2.80
  -8   2 -14    1.81    1.53
  -8   2 -13    5.13    1.48
  -8   2 -12    1.48    1.43
  -8   2 -11    6.37    1.67
  -8   2 -10   28.38    3.79
  -8   2  -9   98.25   12.08
  -8   2  -8    7.87    1.77
  -8   2  -7   66.45    8.27
  -8   2  -6    3.35    1.52
  -8   2  -5    2.90    1.55
   8  -2   4    3.30    1.47
  -8   2  -4    4.14    1.36
   8  -2   3  181.70   22.08
  -8   2  -3  173.00   21.00
   8  -2   3  152.30    8.24
   8  -2   3  155.70    8.41
   8  -2   2    0.99    1.50
  -8   2  -2    0.95    1.21
   8  -2   2    0.22    0.37
   8  -2   2    0.12    0.35
   8  -2   1  661.80   79.79
  -8   2  -1  569.40   68.65
   8  -2   1  583.20   31.30
   8  -2   1  563.40   30.24
   8  -2   0   16.77    2.48
  -8   2   0   13.30    2.12
   8  -2   0   12.85    0.92
   8  -2   0   12.81    0.94
   8  -2  -1    3.40    1.39
  -8   2   1    4.71    1.51
   8  -2  -1    1.34    0.54
   8  -2  -1    1.08    0.51
   8  -2  -2  129.40   15.77
  -8   2   2  132.00   16.09
   8  -2  -2  123.70    6.79
   8  -2  -2  118.20    6.48
   8  -2  -3  106.10   13.01
  -8   2   3  107.50   13.16
   8  -2  -3  105.20    5.82
   8  -2  -3  105.20    5.81
   8  -2  -4   57.57    7.27
  -8   2   4   64.44    8.02
   8  -2  -4   59.26    3.41
   8  -2  -4   61.35    3.51
   8  -2  -5  345.10   41.70
  -8   2   5  365.70   44.18
   8  -2  -5  402.90   21.73
   8  -2  -5  399.60   21.53
   8  -2  -6    0.51    1.45
  -8   2   6    0.57    1.26
   8  -2  -6    1.22    0.61
   8  -2  -6    0.39    0.55
   8  -2  -7  193.40   23.50
  -8   2   7  184.80   22.44
   8  -2  -7  233.30   12.69
   8  -2  -7  237.30   12.89
   8  -2  -8    4.39    1.63
   8  -2  -8    3.16    0.75
   8  -2  -8    3.31    0.66
   8  -2  -9   26.54    3.62
   8  -2  -9   16.04    1.26
   8  -2  -9   15.96    1.24
   8  -2 -10   24.47    3.52
   8  -2 -10   29.93    1.90
   8  -2 -10   30.47    1.88
   8  -2 -11  244.70   29.67
   8  -2 -11  225.20   12.25
   8  -2 -11  225.60   12.26
   8  -2 -12    0.81    1.33
   8  -2 -12    1.11    0.70
   8  -2 -12    0.77    0.66
   8  -2 -13   28.08    3.90
   8  -2 -14   17.80    2.74
   8  -2 -14   15.00    1.23
   8  -2 -14   15.86    1.20
   8  -2 -15    3.19    1.44
   8  -2 -15    8.27    0.88
   8  -2 -15    7.93    0.97
   8  -2 -16    1.61    1.67
   8  -2 -16    1.30    0.74
   8  -2 -16    0.40    0.60
   8  -2 -17   89.47   11.06
   8  -2 -17   69.61    3.97
   8  -2 -17   67.68    3.83
   8  -2 -18   -1.23    1.27
   8  -2 -18   -0.46    0.70
   8  -2 -18   -0.10    0.58
   8  -2 -19   21.81    3.16
   8  -2 -19   21.64    1.53
   8  -2 -19   19.46    1.34
   8  -2 -20    1.45    1.31
   8  -2 -20   -0.72    0.81
   8  -2 -20    0.79    0.70
   8  -2 -21    1.06    1.49
   8  -2 -21    0.81    0.82
   8  -2 -21    0.28    0.69
   8  -2 -22   -0.09    1.28
   8  -2 -22    0.03    0.90
   8  -2 -22   -0.28    0.80
  -9   1 -14   12.04    2.18
  -9   1 -13   23.09    3.29
  -9   1 -12    4.76    1.56
  -9   1 -11   14.34    2.33
  -9   1 -10    4.41    1.48
  -9   1  -9    2.36    1.48
  -9   1  -8   78.03    9.67
  -9   1  -7   12.65    2.14
  -9   1  -6   12.48    2.17
  -9   1  -5  159.40   19.41
   9  -1   4    9.09    1.79
  -9   1  -4    9.13    1.80
   9  -1   3   26.79    3.63
  -9   1  -3   26.32    3.55
   9  -1   2  111.00   13.56
  -9   1  -2  101.30   12.43
   9  -1   2  114.20    6.21
   9  -1   2  104.90    5.72
   9  -1   1  161.50   19.63
  -9   1  -1  158.10   19.23
   9  -1   1  128.00    6.97
   9  -1   1  132.80    7.23
   9  -1   0   60.08    7.57
  -9   1   0   60.76    7.62
   9  -1   0   76.11    4.22
   9  -1   0   76.82    4.25
   9  -1  -1  190.30   23.11
  -9   1   1  192.60   23.39
   9  -1  -1  182.30    9.89
   9  -1  -1  187.10   10.14
   9  -1  -2  234.10   28.38
  -9   1   2  224.20   27.16
   9  -1  -2  219.70   11.90
   9  -1  -2  219.60   11.89
   9  -1  -3    5.31    1.55
  -9   1   3    4.45    1.47
   9  -1  -3    6.66    0.77
   9  -1  -3    7.27    0.76
   9  -1  -4   84.83   10.50
  -9   1   4   83.96   10.38
   9  -1  -4   79.45    4.46
   9  -1  -4   78.16    4.38
   9  -1  -5    1.99    1.70
  -9   1   5    3.37    1.55
   9  -1  -6  166.90   20.32
  -9   1   6  173.70   21.10
   9  -1  -6  204.40   11.14
   9  -1  -6  198.40   10.81
   9  -1  -7  305.60   36.97
  -9   1   7  283.80   34.32
   9  -1  -7  310.00   16.78
   9  -1  -7  306.80   16.60
   9  -1  -8   51.74    6.56
   9  -1  -8   60.80    3.53
   9  -1  -8   62.41    3.59
   9  -1  -9  160.80   19.57
   9  -1  -9  152.50    8.38
   9  -1  -9  159.10    8.72
   9  -1 -10   69.32    8.66
   9  -1 -10   47.43    2.83
   9  -1 -10   48.38    2.88
   9  -1 -11   21.06    3.14
   9  -1 -11   22.49    1.57
   9  -1 -11   24.76    1.63
   9  -1 -12  125.10   15.33
   9  -1 -12  124.10    6.87
   9  -1 -12  130.00    7.17
   9  -1 -13   29.05    4.01
   9  -1 -13   22.29    1.57
   9  -1 -13   22.49    1.49
   9  -1 -14    4.19    1.85
   9  -1 -14    9.70    1.02
   9  -1 -14    9.77    0.93
   9  -1 -15   18.20    2.90
   9  -1 -15   16.95    1.30
   9  -1 -15   18.54    1.34
   9  -1 -16    1.26    1.59
   9  -1 -16    0.19    0.71
   9  -1 -16   -0.07    0.66
   9  -1 -17   36.25    4.74
   9  -1 -17   38.54    2.36
   9  -1 -17   41.53    2.48
   9  -1 -18   42.62    5.55
   9  -1 -18   38.76    2.36
   9  -1 -18   35.37    2.10
   9  -1 -19    1.63    1.51
   9  -1 -19    1.76    0.77
   9  -1 -19    0.79    0.66
   9  -1 -20    6.03    1.79
   9  -1 -20    7.51    0.89
   9  -1 -20    7.29    0.89
   9  -1 -21   17.08    2.65
   9  -1 -21   15.52    1.31
   9  -1 -21   14.81    1.17
   9  -1 -22    0.68    1.34
   9  -1 -22    1.14    0.90
   9  -1 -22    0.57    0.74
 -10   0 -14    3.76    1.57
 -10   0 -13   -0.89    1.53
 -10   0 -12   68.79    8.60
 -10   0 -11   -1.42    1.55
 -10   0 -10    0.19    1.37
 -10   0  -9   -0.99    1.57
 -10   0  -8   41.93    5.42
 -10   0  -7    5.12    1.62
 -10   0  -6  282.70   34.19
 -10   0  -5    0.24    1.34
  10   0   4  102.50   12.62
 -10   0  -4   98.40   12.08
  10   0   4  105.80    5.78
  10   0   4  105.80    5.78
  10   0   3    3.50    1.56
 -10   0  -3    0.27    1.23
  10   0   3    0.45    0.39
  10   0   3    0.18    0.38
  10   0   2   25.69    3.54
 -10   0  -2   24.45    3.42
  10   0   2   18.50    1.17
  10   0   2   18.27    1.16
  10   0   1    1.50    1.51
 -10   0  -1    2.77    1.48
  10   0   1    2.54    0.51
  10   0   1    2.84    0.53
  10   0   0  901.30  108.60
 -10   0   0  890.10  107.20
  10   0   0  817.90   43.86
  10   0   0  797.50   42.77
  10   0  -1   -0.67    1.57
 -10   0   1   -0.87    1.47
  10   0  -1    0.38    0.50
  10   0  -1    1.31    0.54
  10   0  -2  694.80   83.77
 -10   0   2  592.90   71.50
  10   0  -2  629.30   33.80
  10   0  -3    0.63    1.39
 -10   0   3   -0.71    1.58
  10   0  -3    0.72    0.50
 -10   0   4    3.74    1.74
  10   0  -5    0.60    1.52
 -10   0   5   -0.03    1.31
  10   0  -5    0.21    0.61
  10   0  -6  156.10   19.05
 -10   0   6  174.80   21.26
  10   0  -6  162.30    8.88
  10   0  -7   -0.98    1.77
 -10   0   7   -0.84    1.47
  10   0  -7    0.38    0.56
  10   0  -8  169.60   20.65
 -10   0   8  170.40   20.73
  10   0  -8  171.80    9.40
  10   0  -9   -2.17    1.71
  10   0  -9    0.23    0.60
  10   0  -9    0.04    0.68
  10   0 -10  276.70   33.53
  10   0 -10  251.20   13.64
  10   0 -10  261.40   14.22
  10   0 -11    0.75    1.50
  10   0 -11    0.38    0.60
  10   0 -11    0.52    0.65
  10   0 -12    8.28    2.10
  10   0 -12   13.81    1.18
  10   0 -12   15.33    1.15
  10   0 -13    1.36    1.76
  10   0 -13   -0.01    0.67
  10   0 -13    0.14    0.67
  10   0 -14   52.19    6.69
  10   0 -14   39.51    2.44
  10   0 -14   39.90    2.39
  10   0 -15    0.16    1.41
  10   0 -15    0.19    0.66
  10   0 -15    0.39    0.67
  10   0 -16   20.18    3.04
  10   0 -16   21.35    1.53
  10   0 -16   23.31    1.59
  10   0 -17    1.54    1.53
  10   0 -17   -0.08    0.70
  10   0 -17   -0.03    0.57
  10   0 -18   12.75    2.45
  10   0 -18   16.69    1.25
  10   0 -18   16.72    1.23
  10   0 -19    0.31    1.56
  10   0 -19    0.05    0.73
  10   0 -19    0.10    0.68
  10   0 -20    1.65    1.66
  10   0 -20    1.59    0.80
  10   0 -20    0.69    0.67
  10   0 -21   -1.02    1.62
  10   0 -21    0.29    0.73
  10   0 -21    0.14    0.67
  10   0 -22    7.70    1.89
  10   0 -22    9.66    1.09
  10   0 -22   12.15    1.06
 -11  -1 -13    2.82    1.43
 -11  -1 -12    0.68    1.38
 -11  -1 -11   23.66    3.40
 -11  -1 -10   38.02    4.99
 -11  -1  -9    4.99    1.58
 -11  -1  -8  141.10   17.23
 -11  -1  -7    4.39    1.57
 -11  -1  -6    1.31    1.55
 -11  -1  -5  148.40   18.06
 -11  -1  -4  121.50   14.85
  11   1   4  107.80    5.86
  11   1   4  111.50    6.07
  11   1   3   13.57    2.26
 -11  -1  -3   13.07    2.16
  11   1   3   18.08    1.13
  11   1   3   16.21    1.05
  11   1   2   99.02   12.16
 -11  -1  -2  103.40   12.70
  11   1   2  106.40    5.82
  11   1   2  103.20    5.64
  11   1   1    1.39    1.31
 -11  -1  -1    0.13    1.23
  11   1   1    1.21    0.49
  11   1   1    0.88    0.47
  11   1   0  220.20   26.73
 -11  -1   0  199.20   24.16
  11   1   0  234.60   12.69
  11   1  -1  274.10   33.18
 -11  -1   1  262.40   31.75
  11   1  -1  198.60   10.77
  11   1  -2   37.81    4.95
 -11  -1   2   41.21    5.33
  11   1  -2   34.51    2.10
  11   1  -3  161.60   19.72
 -11  -1   3  153.80   18.74
  11   1  -3  184.10   10.02
  11   1  -4   89.26   11.08
 -11  -1   4   83.96   10.39
  11   1  -4   83.84    4.69
  11   1  -5   12.83    2.31
 -11  -1   5   12.05    2.10
  11   1  -5    8.19    0.86
  11   1  -6   77.40    9.64
 -11  -1   6   87.09   10.77
  11   1  -6   94.79    5.27
  11   1  -7   45.48    5.88
 -11  -1   7   49.09    6.33
  11   1  -7   44.50    2.64
  11   1  -8    3.64    1.81
 -11  -1   8    2.15    1.64
  11   1  -8    1.51    0.69
  11   1  -9   19.28    3.06
  11   1  -9   21.43    1.54
  11   1 -11   79.49    9.90
  11   1 -11   71.65    4.10
  11   1 -12   96.01   11.93
  11   1 -12   86.88    4.94
  11   1 -12   80.67    4.56
  11   1 -13    2.61    1.99
  11   1 -13    2.41    0.73
  11   1 -13    1.73    0.72
  11   1 -14    0.59    1.95
  11   1 -14    1.83    0.71
  11   1 -14    2.30    0.80
  11   1 -15   18.02    2.92
  11   1 -15   17.45    1.37
  11   1 -15   18.23    1.34
  11   1 -16   19.21    3.01
  11   1 -16   14.70    1.18
  11   1 -16   14.60    1.13
  11   1 -17    7.54    1.86
  11   1 -17    6.76    0.86
  11   1 -17    6.68    0.87
  11   1 -18   13.88    2.34
  11   1 -18   11.15    1.08
  11   1 -18   11.98    1.04
  11   1 -19    1.64    1.78
  11   1 -19   -0.17    0.66
  11   1 -19    0.28    0.64
  11   1 -20    6.61    1.88
  11   1 -20    4.83    0.87
  11   1 -20    5.37    0.75
  11   1 -21    1.57    1.40
  11   1 -21    1.18    0.89
  11   1 -21    1.47    0.69
  11   1 -22    0.18    1.41
  11   1 -22    1.98    0.89
  11   1 -22    1.21    0.76
 -12  -2 -12    5.31    1.91
 -12  -2 -11    2.86    1.93
 -12  -2 -10    2.40    1.92
 -12  -2  -9  102.60   12.61
 -12  -2  -8    8.43    1.97
 -12  -2  -7  136.20   16.64
 -12  -2  -6   29.45    4.01
 -12  -2  -5    6.38    1.82
 -12  -2  -4    4.40    1.59
  12   2   4    4.29    0.50
  12   2   4    3.50    0.50
  12   2   3  162.60   19.81
 -12  -2  -3  145.10   17.71
  12   2   3  134.20    7.29
  12   2   3  137.90    7.49
  12   2   2    3.03    1.69
 -12  -2  -2    3.79    1.71
  12   2   2    2.02    0.53
  12   2   2    2.13    0.53
  12   2   1  186.40   22.61
 -12  -2  -1  192.60   23.38
  12   2   1  176.80    9.60
  12   2   0   21.84    3.22
 -12  -2   0   20.79    2.99
  12   2   0   22.50    1.46
  12   2  -1   17.30    2.71
 -12  -2   1   18.57    2.84
  12   2  -1   28.91    1.80
  12   2  -2    1.73    1.32
 -12  -2   2    2.03    1.57
  12   2  -2    1.87    0.62
 -12  -2   2    1.70    0.60
  12   2  -3   18.65    2.84
 -12  -2   3   21.23    3.09
  12   2  -3   11.80    1.00
 -12  -2   3   12.43    1.05
  12   2  -4    8.60    1.83
 -12  -2   4    8.66    1.94
  12   2  -4    6.76    0.83
 -12  -2   4    7.11    0.84
  12   2  -5  213.00   25.88
 -12  -2   5  222.30   26.96
  12   2  -5  209.10   11.37
 -12  -2   5  224.10   12.18
  12   2  -6    2.17    1.90
 -12  -2   6    1.80    1.58
  12   2  -6    2.05    0.71
 -12  -2   6    3.13    0.65
 -12  -2   7   20.20    3.00
 -12  -2   7   28.36    1.85
  12   2  -8    2.09    2.08
 -12  -2   8    6.01    1.61
  12   2  -8    1.55    0.71
 -12  -2   8    3.06    0.67
  12   2  -9   31.23    4.45
  12   2  -9   16.62    1.25
  12   2 -10   20.95    3.35
  12   2 -10   25.99    1.75
  12   2 -11   73.60    9.29
  12   2 -11   56.61    3.28
  12   2 -12   23.39    3.61
  12   2 -12   20.41    1.48
  12   2 -13   71.72    9.00
  12   2 -13   63.69    3.67
  12   2 -14   11.29    2.31
  12   2 -14    9.78    1.06
  12   2 -14   11.33    1.09
  12   2 -15    4.03    1.73
  12   2 -15    0.70    0.72
  12   2 -15    0.32    0.81
  12   2 -16    4.98    1.98
  12   2 -16    3.12    0.81
  12   2 -16    3.48    0.77
  12   2 -17   57.16    7.31
  12   2 -17   42.69    2.59
  12   2 -17   46.60    2.75
  12   2 -18    0.23    1.69
  12   2 -18   -0.52    0.61
  12   2 -18   -1.21    0.69
  12   2 -19   36.38    4.79
  12   2 -19   39.41    2.39
  12   2 -19   37.94    2.30
  12   2 -20    0.05    1.66
  12   2 -20    2.49    0.83
  12   2 -20    2.18    0.71
  12   2 -21    4.16    1.72
  12   2 -21    4.09    0.91
  12   2 -21    3.92    0.77
  12   2 -22   -0.61    1.44
  12   2 -22   -0.83    0.81
  12   2 -22   -0.49    0.75
 -13  -3 -11   14.68    2.67
 -13  -3 -10   13.29    2.46
 -13  -3  -9    8.87    1.99
 -13  -3  -8   31.98    4.29
 -13  -3  -7    8.64    1.88
 -13  -3  -6    7.80    1.97
 -13  -3  -5  114.10   14.01
  13   3   5  110.50    6.32
 -13  -3  -4   20.76    3.11
  13   3   4   19.57    1.22
  13   3   4   21.78    1.36
  13   3   3   39.83    5.18
 -13  -3  -3   34.92    4.66
  13   3   3   40.00    2.30
  13   3   3   43.32    2.50
  13   3   2   62.65    7.90
 -13  -3  -2   61.92    7.81
  13   3   2   55.02    3.13
  13   3   1    4.03    1.89
 -13  -3  -1    3.88    1.74
  13   3   1    1.06    0.57
  13   3   0   84.53   10.56
 -13  -3   0   88.57   10.96
  13   3   0   94.42    5.24
 -13  -3   0   95.67    5.30
  13   3  -1  124.60   15.32
 -13  -3   1  114.20   13.99
  13   3  -1  109.50    6.04
 -13  -3   1  112.10    6.18
  13   3  -2    0.94    1.74
 -13  -3   2    1.91    1.75
  13   3  -2    0.06    0.59
 -13  -3   2   -0.20    0.55
  13   3  -3  101.10   12.47
 -13  -3   3  105.00   12.88
  13   3  -3  107.40    5.94
 -13  -3   3  112.60    6.22
  13   3  -4   52.17    6.71
 -13  -3   4   48.71    6.21
  13   3  -4   42.35    2.53
 -13  -3   4   43.62    2.59
  13   3  -5   74.77    9.42
 -13  -3   5   66.24    8.29
  13   3  -5   79.57    4.49
 -13  -3   5   77.12    4.34
  13   3  -6   52.11    6.71
 -13  -3   6   59.39    7.49
  13   3  -6   58.03    3.38
 -13  -3   6   60.71    3.52
  13   3  -7   51.60    6.66
 -13  -3   7   53.35    6.82
  13   3  -7   40.49    2.46
 -13  -3   7   46.53    2.75
  13   3  -8   18.46    2.85
 -13  -3   8   20.08    3.06
  13   3  -8   26.35    1.76
 -13  -3   8   21.95    1.54
  13   3  -9  184.20   22.40
  13   3  -9  177.10    9.68
 -13  -3   9  177.70    9.72
  13   3 -10    6.99    2.24
  13   3 -10   10.95    1.04
 -13  -3  10    9.83    0.98
  13   3 -11   29.80    4.19
  13   3 -11   36.83    2.31
  13   3 -12   28.46    4.24
  13   3 -12   25.90    1.74
  13   3 -13   59.94    7.70
  13   3 -13   50.34    2.96
  13   3 -14    1.25    2.10
  13   3 -14    1.33    0.72
  13   3 -15   18.78    3.23
  13   3 -15   18.68    1.37
  13   3 -16    5.58    2.21
  13   3 -16    1.43    0.68
  13   3 -16    0.39    0.70
  13   3 -17   33.51    4.58
  13   3 -17   44.25    2.64
  13   3 -17   42.87    2.49
  13   3 -18   12.65    2.40
  13   3 -18    7.87    0.90
  13   3 -18    9.48    0.97
  13   3 -19    7.14    2.16
  13   3 -19    4.85    0.85
  13   3 -19    5.64    0.77
  13   3 -20    8.43    1.99
  13   3 -20    6.12    0.93
  13   3 -20    7.47    0.87
  13   3 -21    5.71    1.68
  13   3 -21    8.23    1.00
  13   3 -21    6.84    0.81
  13   3 -22    1.19    1.44
  13   3 -22   -0.41    0.92
  13   3 -22   -0.43    0.72
 -14  -4  -9    2.46    1.51
 -14  -4  -8   -0.96    1.78
 -14  -4  -7    1.81    1.73
 -14  -4  -6   42.40    5.55
 -14  -4  -5    0.96    1.54
 -14  -4  -4   56.82    7.22
  14   4   4   50.34    2.85
  14   4   4   51.59    2.91
 -14  -4  -3   48.36    6.19
  14   4   3   51.27    2.93
  14   4   2   55.29    7.04
 -14  -4  -2   48.29    6.19
  14   4   2   55.48    3.18
  14   4   1    1.95    1.62
 -14  -4  -1    3.21    1.73
  14   4   1    1.03    0.61
  14   4   0   55.95    7.09
 -14  -4   0   59.55    7.50
  14   4   0   49.67    2.89
 -14  -4   0   47.83    2.79
  14   4  -1    2.78    1.69
 -14  -4   1    4.50    1.75
  14   4  -1    1.86    0.62
 -14  -4   1    2.03    0.69
  14   4  -2   83.54   10.40
 -14  -4   2   82.82   10.29
  14   4  -2   85.28    4.76
 -14  -4   2   82.85    4.63
  14   4  -3    0.94    1.78
 -14  -4   3   -0.08    1.73
  14   4  -3    0.83    0.63
 -14  -4   3    0.23    0.65
  14   4  -4  106.80   13.21
 -14  -4   4  101.00   12.50
  14   4  -4  104.00    5.78
 -14  -4   4  106.00    5.88
  14   4  -5    6.47    2.24
 -14  -4   5    5.61    2.02
  14   4  -5    6.06    0.82
 -14  -4   5    7.36    0.88
  14   4  -6   23.68    3.74
 -14  -4   6   26.01    3.86
  14   4  -6   36.03    2.25
 -14  -4   6   31.68    1.98
  14   4  -7   57.37    7.57
 -14  -4   7   62.83    7.99
  14   4  -7   53.72    3.14
 -14  -4   7   54.46    3.17
  14   4  -8   86.63   10.96
 -14  -4   8   84.83   10.57
  14   4  -8   77.86    4.42
 -14  -4   8   79.04    4.47
  14   4  -9    1.11    2.20
  14   4  -9    2.15    0.79
 -14  -4   9    1.57    0.77
  14   4 -10   49.40    6.54
  14   4 -10   69.97    3.99
 -14  -4  10   64.20    3.69
  14   4 -11   27.38    4.12
  14   4 -11   15.77    1.30
 -14  -4  11   21.69    1.52
  14   4 -12    7.99    2.18
  14   4 -12    2.17    0.80
 -14  -4  12    1.62    0.71
  14   4 -13    2.76    1.95
  14   4 -13    0.50    0.69
  14   4 -14   24.62    3.70
  14   4 -14   17.84    1.36
  14   4 -15    2.28    1.73
  14   4 -15    1.44    0.62
  14   4 -16   24.65    3.68
  14   4 -16   26.49    1.70
  14   4 -17   -0.49    2.10
  14   4 -17   -0.01    0.73
  14   4 -17    1.54    0.67
  14   4 -18    1.34    2.02
  14   4 -18    4.85    0.87
  14   4 -18    2.98    0.71
  14   4 -19   -1.22    1.90
  14   4 -19    0.30    0.74
  14   4 -19    0.15    0.67
  14   4 -20    8.50    2.27
  14   4 -20    6.68    0.91
  14   4 -20    5.84    0.77
  14   4 -21   -1.99    1.77
  14   4 -21    0.16    0.79
  14   4 -21    0.12    0.73
  14   4 -22    4.67    1.66
 -15  -5  -8    5.44    1.82
 -15  -5  -7    0.25    1.58
 -15  -5  -6    8.25    2.04
 -15  -5  -5   10.85    2.37
  15   5   5    8.41    0.75
  15   5   5    8.80    0.75
 -15  -5  -4   -1.48    1.69
  15   5   4   -0.04    0.63
  15   5   4   -0.04    0.66
 -15  -5  -3    9.00    2.06
  15   5   3    6.25    0.82
  15   5   2   19.92    2.95
 -15  -5  -2   16.84    2.69
  15   5   2   15.78    1.17
  15   5   1    2.83    1.58
 -15  -5  -1    0.82    1.54
  15   5   1    1.69    0.62
 -15  -5  -1    0.35    0.59
  15   5   0   58.56    7.44
 -15  -5   0   59.54    7.57
  15   5   0   63.11    3.58
 -15  -5   0   62.35    3.54
  15   5  -1   33.00    4.63
 -15  -5   1   27.95    3.88
  15   5  -1   25.62    1.65
 -15  -5   1   24.52    1.59
  15   5  -2   -1.34    2.12
 -15  -5   2    0.26    1.59
  15   5  -2    0.55    0.60
 -15  -5   2    1.49    0.66
  15   5  -3    3.12    1.97
 -15  -5   3    3.62    1.89
  15   5  -3    4.87    0.77
 -15  -5   3    3.38    0.73
  15   5  -4    5.38    2.07
 -15  -5   4    4.86    1.92
  15   5  -4    3.47    0.71
 -15  -5   4    4.48    0.77
  15   5  -5    2.18    1.96
 -15  -5   5    2.01    1.95
  15   5  -5    0.17    0.66
 -15  -5   5    1.24    0.70
  15   5  -6   35.20    4.89
 -15  -5   6   36.74    5.04
  15   5  -6   36.14    2.24
 -15  -5   6   38.85    2.38
  15   5  -7   29.03    4.20
 -15  -5   7   29.81    4.30
  15   5  -7   25.66    1.71
 -15  -5   7   23.11    1.56
  15   5  -8   18.85    3.23
 -15  -5   8   19.93    3.24
  15   5  -8   26.77    1.78
 -15  -5   8   27.12    1.79
  15   5  -9   38.74    5.32
  15   5  -9   35.20    2.17
 -15  -5   9   36.30    2.24
  15   5 -10   18.06    3.21
  15   5 -10   15.74    1.27
 -15  -5  10   17.05    1.31
  15   5 -11    2.87    2.41
  15   5 -11    0.83    0.68
 -15  -5  11    0.47    0.72
  15   5 -12  105.90   13.15
  15   5 -12   92.66    5.19
 -15  -5  12   97.53    5.45
  15   5 -13    7.40    2.34
  15   5 -13    2.80    0.76
 -15  -5  13    3.26    0.77
  15   5 -14   11.13    2.52
  15   5 -14   13.74    1.09
  15   5 -15   13.37    2.97
  15   5 -15    9.09    0.96
  15   5 -16    4.73    2.03
  15   5 -16    1.47    0.61
  15   5 -17    5.36    1.94
  15   5 -17    2.84    0.65
  15   5 -18   11.96    2.56
  15   5 -18    7.34    0.86
  15   5 -19    1.46    2.10
  15   5 -19    0.60    0.77
  15   5 -19    0.06    0.69
  15   5 -20    7.77    2.26
  15   5 -20    7.88    0.93
  15   5 -20    7.67    0.88
  15   5 -21   -0.84    1.51
  15   5 -21    0.44    0.76
  15   5 -21    0.60    0.64
 -16  -6  -7    2.78    1.84
 -16  -6  -6    2.44    1.68
 -16  -6  -5    0.89    1.67
  16   6   5    0.66    0.64
  16   6   5    0.43    0.67
 -16  -6  -4    0.20    1.69
  16   6   4   -0.81    0.76
  16   6   4    0.29    0.72
 -16  -6  -3    9.70    2.29
  16   6   3   10.34    1.03
 -16  -6  -2    7.75    2.08
  16   6   2   10.93    1.02
  16   6   1   21.02    3.17
 -16  -6  -1   19.26    3.10
  16   6   1   18.16    1.31
 -16  -6  -1   16.89    1.24
  16   6   0    2.99    1.69
 -16  -6   0    2.78    1.85
  16   6   0    4.90    0.68
 -16  -6   0    4.51    0.71
  16   6  -1    8.15    2.12
 -16  -6   1   10.63    2.31
  16   6  -1   13.08    1.07
 -16  -6   1   11.79    1.03
  16   6  -2    0.52    1.86
 -16  -6   2    1.13    1.75
  16   6  -2    0.04    0.66
 -16  -6   2   -0.79    0.67
  16   6  -3   42.33    5.60
 -16  -6   3   43.67    5.75
  16   6  -3   27.70    1.76
 -16  -6   3   32.58    2.02
  16   6  -4    3.29    2.02
 -16  -6   4    2.42    1.87
  16   6  -4    1.23    0.62
 -16  -6   4   -0.99    0.62
  16   6  -5   78.05    9.85
 -16  -6   5   78.17    9.80
  16   6  -5   73.64    4.17
 -16  -6   5   75.36    4.25
  16   6  -6    5.50    2.33
 -16  -6   6    1.00    1.95
  16   6  -6    2.63    0.70
 -16  -6   6    2.51    0.71
  16   6  -7   75.43    9.61
 -16  -6   7   63.23    8.06
  16   6  -7   70.52    4.00
 -16  -6   7   69.16    3.92
  16   6  -8    9.66    2.66
 -16  -6   8    6.22    1.89
  16   6  -8    7.07    0.85
 -16  -6   8    6.99    0.84
  16   6  -9   -2.44    2.27
  16   6  -9   -0.16    0.67
 -16  -6   9    1.01    0.68
  16   6 -10    4.44    2.40
  16   6 -10    1.82    0.66
 -16  -6  10    3.01    0.74
  16   6 -11   17.62    3.29
  16   6 -11   17.39    1.32
 -16  -6  11   15.71    1.24
  16   6 -12   -2.09    2.30
  16   6 -12    0.00    0.71
 -16  -6  12    0.76    0.71
  16   6 -13   78.83   10.03
  16   6 -13   77.54    4.37
 -16  -6  13   76.92    4.35
  16   6 -14    4.43    2.55
  16   6 -14    0.53    0.63
 -16  -6  14    0.28    0.65
  16   6 -15    1.98    2.00
  16   6 -15    1.98    0.66
  16   6 -16    1.17    2.23
  16   6 -16    2.42    0.70
  16   6 -17    2.23    2.02
  16   6 -17    2.08    0.67
  16   6 -18    2.03    2.10
  16   6 -18    1.16    0.72
  16   6 -19    7.69    2.26
  16   6 -19    6.41    0.83
  16   6 -19    6.44    0.87
  16   6 -20   -1.37    1.59
  16   6 -20    0.53    0.71
  16   6 -20    0.32    0.66
 -17  -7  -5   12.28    2.50
 -17  -7  -4    1.88    1.69
  17   7   4    0.76    0.79
  17   7   4    0.40    0.79
 -17  -7  -3    8.79    2.22
  17   7   3   11.59    1.14
 -17  -7  -2    3.96    2.01
  17   7   2    4.80    0.91
 -17  -7  -1    1.27    1.96
  17   7   1    0.57    0.80
 -17  -7  -1    0.49    0.74
  17   7   0    2.74    1.86
 -17  -7   0    1.72    1.84
  17   7   0    2.91    0.77
 -17  -7   0    1.46    0.75
  17   7  -1    8.30    2.30
 -17  -7   1    7.61    2.19
  17   7  -1    7.64    0.82
 -17  -7   1    5.98    0.81
  17   7  -2    7.06    2.13
 -17  -7   2    4.90    2.00
  17   7  -2    7.06    0.86
 -17  -7   2    7.42    0.87
  17   7  -3   26.41    3.85
 -17  -7   3   25.17    3.71
  17   7  -3   33.53    2.06
 -17  -7   3   33.55    2.05
  17   7  -4   -0.10    2.13
 -17  -7   4    1.25    2.05
  17   7  -4    1.77    0.63
 -17  -7   4    0.70    0.62
  17   7  -5   12.69    2.72
 -17  -7   5   14.22    2.70
  17   7  -5   22.01    1.46
 -17  -7   5   23.15    1.54
  17   7  -6    3.14    2.18
 -17  -7   6    1.28    1.98
  17   7  -6    3.13    0.75
 -17  -7   6    1.76    0.68
  17   7  -7   24.07    3.86
 -17  -7   7   22.99    3.52
  17   7  -7   18.65    1.38
 -17  -7   7   18.94    1.32
  17   7  -8   35.50    5.11
  17   7  -8   28.56    1.82
 -17  -7   8   31.34    1.95
  17   7  -9   17.35    3.19
  17   7  -9   15.25    1.19
 -17  -7   9   13.31    1.08
  17   7 -10    1.24    2.27
  17   7 -10    0.23    0.67
 -17  -7  10    1.97    0.67
  17   7 -11    1.06    2.15
  17   7 -11    2.40    0.70
 -17  -7  11    2.38    0.72
  17   7 -12    7.05    2.56
  17   7 -12    6.89    0.87
 -17  -7  12    2.88    0.74
  17   7 -13    2.97    1.99
  17   7 -13    0.35    0.64
 -17  -7  13    1.61    0.67
  17   7 -14    5.13    2.37
  17   7 -14    3.29    0.67
 -17  -7  14    2.98    0.73
  17   7 -15   15.84    3.21
  17   7 -15   13.57    1.05
 -17  -7  15   13.02    1.06
  17   7 -16    0.51    2.16
  17   7 -16    0.30    0.65
  17   7 -17    9.36    2.50
  17   7 -17   10.26    1.01
  17   7 -18    1.08    2.00
  17   7 -18    0.95    0.74
  17   7 -19    0.94    2.00
  17   7 -19    1.06    0.67
  17   7 -20    1.65    1.95
  17   7 -20    1.03    0.66
  17   7 -20   -0.18    0.68
 -18  -8  -3   -0.60    2.00
  18   8   3    0.44    0.86
 -18  -8  -2    5.24    1.95
  18   8   2    7.43    1.06
 -18  -8  -1    7.73    2.20
  18   8   1    7.99    0.98
 -18  -8   0    1.61    2.03
  18   8   0    1.04    0.77
 -18  -8   0    1.39    0.79
  18   8  -1    3.89    2.15
 -18  -8   1    5.34    2.17
  18   8  -1    9.64    0.98
 -18  -8   1    9.70    1.00
  18   8  -2    5.06    2.16
 -18  -8   2    1.70    2.03
  18   8  -2    2.53    0.74
 -18  -8   2    2.23    0.75
  18   8  -3   -1.40    2.17
 -18  -8   3   -2.45    1.95
  18   8  -3    0.24    0.68
 -18  -8   3   -0.59    0.65
  18   8  -4   15.57    2.97
 -18  -8   4   14.65    2.83
  18   8  -4   18.93    1.36
 -18  -8   4   18.42    1.31
  18   8  -5   10.33    2.63
 -18  -8   5   10.33    2.51
  18   8  -5   12.98    1.09
 -18  -8   5   13.18    1.08
  18   8  -6   -0.08    2.23
 -18  -8   6    0.80    1.96
  18   8  -6    0.50    0.59
 -18  -8   6    0.62    0.66
  18   8  -7    5.75    2.56
 -18  -8   7    3.53    1.97
  18   8  -7    7.52    0.79
 -18  -8   7    8.25    0.89
  18   8  -8    8.32    2.75
  18   8  -8    9.17    0.87
 -18  -8   8    8.58    0.88
  18   8  -9    4.20    2.47
  18   8  -9    3.58    0.76
 -18  -8   9    1.52    0.68
  18   8 -10   16.79    3.28
  18   8 -10   16.63    1.23
 -18  -8  10   15.47    1.19
  18   8 -11    0.92    2.48
  18   8 -11    0.90    0.64
 -18  -8  11    1.41    0.66
  18   8 -12    0.74    2.60
  18   8 -12    4.67    0.79
 -18  -8  12    4.76    0.76
  18   8 -13    3.48    2.44
  18   8 -13    3.99    0.70
 -18  -8  13    4.88    0.77
  18   8 -14   11.79    3.01
  18   8 -14    8.98    0.91
 -18  -8  14    8.77    0.92
  18   8 -15    3.46    2.49
  18   8 -15    2.17    0.69
 -18  -8  15    2.86    0.76
  18   8 -16    5.85    2.70
  18   8 -16    5.20    0.83
  18   8 -17   -0.13    2.37
  18   8 -17    0.40    0.73
  18   8 -18    3.66    2.25
  18   8 -18    2.71    0.71
  18   8 -19    3.56    2.29
  18   8 -19    1.26    0.68
 -19  -9  -1    0.65    2.58
  19   9   1    0.48    0.90
 -19  -9   0   13.43    2.91
  19   9   0   10.95    1.19
 -19  -9   0   11.59    1.10
 -19  -9   1    1.16    2.28
  19   9  -1    1.15    0.82
 -19  -9   1    1.03    0.79
  19   9  -2   -0.50    2.01
 -19  -9   2    0.14    2.31
  19   9  -2    1.11    0.77
 -19  -9   2    0.47    0.73
  19   9  -3    3.19    2.22
 -19  -9   3    1.72    2.48
  19   9  -3    1.03    0.66
 -19  -9   3    1.81    0.72
  19   9  -4    1.56    2.32
 -19  -9   4    3.78    2.33
  19   9  -4    1.78    0.74
 -19  -9   4    0.70    0.71
  19   9  -5   -2.72    2.40
 -19  -9   5    0.25    2.04
  19   9  -5    0.55    0.73
 -19  -9   5    0.13    0.60
  19   9  -6   22.24    3.82
 -19  -9   6   19.09    3.28
  19   9  -6   20.08    1.39
 -19  -9   6   20.51    1.40
  19   9  -7   -0.80    2.47
  19   9  -7   -0.56    0.66
 -19  -9   7    0.83    0.68
  19   9  -8    7.93    2.46
  19   9  -8    8.47    0.91
 -19  -9   8   12.83    1.02
  19   9  -9   -0.25    2.54
  19   9  -9    0.62    0.66
 -19  -9   9   -0.41    0.56
  19   9 -10    0.08    2.39
  19   9 -10    0.42    0.59
 -19  -9  10    0.08    0.65
  19   9 -11    1.29    2.26
  19   9 -11    0.54    0.59
 -19  -9  11    0.20    0.62
  19   9 -12    8.42    2.58
  19   9 -12    7.03    0.82
 -19  -9  12    6.64    0.78
  19   9 -13    0.68    2.40
  19   9 -13   -0.12    0.71
 -19  -9  13    0.21    0.62
  19   9 -14    1.11    2.60
  19   9 -14    4.39    0.75
 -19  -9  14    5.10    0.71
  19   9 -15    1.92    2.34
  19   9 -15    0.99    0.69
 -19  -9  15    1.38    0.66
  19   9 -16    3.96    2.02
  19   9 -16    3.86    0.73
 -19  -9  16    5.11    0.75
  19   9 -17   -0.47    2.20
  19   9 -17    0.33    0.71
 -20 -10   2    3.92    2.87
  20  10  -2    3.50    0.91
 -20 -10   2    3.87    0.89
  20  10  -3    0.00    2.36
 -20 -10   3   -0.28    2.24
  20  10  -3    0.38    0.92
 -20 -10   3   -0.24    0.80
  20  10  -4    0.66    2.21
 -20 -10   4    0.22    2.38
  20  10  -4    1.79    0.75
 -20 -10   4    2.76    0.76
  20  10  -5   -0.06    2.36
 -20 -10   5   -0.81    2.34
  20  10  -5    0.31    0.67
 -20 -10   5   -0.38    0.64
  20  10  -6    0.50    2.50
  20  10  -6   -0.11    0.71
 -20 -10   6    1.53    0.69
  20  10  -7    4.79    2.66
  20  10  -7    5.10    0.74
 -20 -10   7    5.76    0.77
  20  10  -8    2.11    2.31
  20  10  -8    4.69    0.71
 -20 -10   8    3.29    0.65
  20  10  -9    2.35    2.51
  20  10  -9    0.95    0.65
 -20 -10   9    1.33    0.68
  20  10 -10    0.12    2.41
  20  10 -10    3.93    0.65
 -20 -10  10    3.73    0.64
  20  10 -11    2.62    2.49
  20  10 -11    0.15    0.54
 -20 -10  11   -0.09    0.62
  20  10 -12    1.50    2.32
  20  10 -12    6.11    0.72
 -20 -10  12    4.26    0.74
  20  10 -13    0.05    2.35
  20  10 -13    0.65    0.55
 -20 -10  13    1.04    0.61
  20  10 -14    0.90    2.27
  20  10 -14    0.09    0.67
 -20 -10  14    0.22    0.58
  20  10 -15    3.06    2.42
  20  10 -15    0.34    0.66
 -20 -10  15   -0.13    0.68
  21  11  -8    0.08    0.73
 -21 -11   8    0.94    0.71
  21  11  -9    4.20    3.15
  21  11  -9    4.16    0.86
 -21 -11   9    3.87    0.71
  21  11 -10    1.79    0.77
 -21 -11  10    0.75    0.70
  -9 -21   8    0.15    0.64
   9  21  -8    0.96    0.63
  -9 -21   7    3.50    0.86
   9  21  -7    3.84    0.69
  -9 -21   6    4.48    0.77
   9  21  -6    4.34    0.70
  -9 -21   5    0.26    0.81
   9  21  -5    0.59    0.56
  -9 -21   4    3.91    0.88
   9  21  -4    3.70    0.73
  -9 -21   3    1.34    0.82
   9  21  -3    1.32    0.68
  -9 -21   2    0.16    0.77
   9  21  -2    0.42    0.65
  -9 -21   1    8.96    0.96
   9  21  -1   10.17    0.97
  -9 -21   0    2.53    0.77
   9  21   0    4.31    0.89
   8  20 -11    2.63    2.13
   8  20 -11    0.99    2.46
  -8 -20  11    2.66    0.81
   8  20 -11    2.32    0.59
  -8 -20  10    2.44    0.81
   8  20 -10    1.04    0.69
  -8 -20   9    6.07    0.92
   8  20  -9    7.23    0.78
  -8 -20   8    1.41    0.78
   8  20  -8    0.31    0.70
  -8 -20   7    4.44    0.81
   8  20  -7    4.53    0.75
  -8 -20   6    3.59    0.74
   8  20  -6    4.00    0.69
  -8 -20   5   20.05    1.44
   8  20  -5   17.88    1.35
  -8 -20   4    0.20    0.68
   8  20  -4   -0.35    0.58
  -8 -20   3   13.94    1.16
   8  20  -3   14.19    1.16
  -8 -20   2   -0.64    0.74
   8  20  -2   -0.74    0.66
  -8 -20   1    5.17    0.86
   8  20  -1    3.72    0.68
  -8 -20   0    0.51    0.77
   8  20   0   -0.64    0.62
  -8 -20  -1   21.95    1.47
   8  20   1   21.27    1.42
  -8 -20  -2   -0.25    0.77
   8  20   2   -0.53    0.66
  -8 -20  -3   21.46    1.50
   8  20   3   20.32    1.44
  -8 -20  -4    0.91    0.84
   8  20   4    1.12    0.74
   7  19 -13    7.38    2.33
   7  19 -13    4.39    2.24
  -7 -19  13    2.43    0.89
   7  19 -13    2.92    0.73
   7  19 -12   -0.04    1.92
   7  19 -12    1.01    2.13
  -7 -19  12    1.32    0.69
   7  19 -12    1.11    0.63
   7  19 -11   -0.75    1.97
   7  19 -11   -1.24    1.89
  -7 -19  11   -1.39    0.76
   7  19 -11   -0.85    0.63
   7  19 -10    1.04    1.88
   7  19 -10    0.23    1.84
  -7 -19  10    0.13    0.62
   7  19 -10   -0.09    0.69
   7  19  -9    9.44    2.09
   7  19  -9    9.39    2.06
  -7 -19   9    8.27    0.90
   7  19  -9   10.17    0.93
  -7 -19   8    4.52    0.83
   7  19  -8    4.76    0.77
  -7 -19   7   13.80    1.16
   7  19  -7   13.10    1.08
  -7 -19   6    7.62    0.91
   7  19  -6    6.56    0.79
  -7 -19   5    3.83    0.78
   7  19  -5    4.52    0.73
  -7 -19   4   16.62    1.29
   7  19  -4   16.80    1.27
  -7 -19   3    9.76    0.95
   7  19  -3   10.29    0.91
  -7 -19   2    2.29    0.78
   7  19  -2    1.07    0.67
  -7 -19   1   27.40    1.80
   7  19  -1   27.33    1.77
  -7 -19   0    4.09    0.86
   7  19   0    4.28    0.72
  -7 -19  -1    3.24    0.86
   7  19   1    3.39    0.68
  -7 -19  -2   -0.96    0.66
   7  19   2   -0.28    0.64
  -7 -19  -3    0.83    0.79
   7  19   3   -0.38    0.60
  -7 -19  -4    3.13    0.82
   7  19   4    4.87    0.77
  -7 -19  -5   10.04    1.06
   7  19   5    9.07    1.05
  -7 -19  -6    0.10    0.82
   7  19   6   -1.26    0.77
  -7 -19  -7    4.37    1.01
   7  19   7    4.66    1.06
   6  18 -14    0.91    1.77
  -6 -18  14    1.27    0.75
   6  18 -14    1.74    0.67
   6  18 -13    1.30    1.83
  -6 -18  13    1.08    0.76
   6  18 -13   -0.49    0.70
   6  18 -12    8.86    2.07
   6  18 -12   10.22    2.27
  -6 -18  12    9.20    0.98
   6  18 -12    8.74    0.94
   6  18 -11    4.13    1.93
   6  18 -11    4.98    1.85
  -6 -18  11    3.11    0.78
   6  18 -11    2.75    0.75
   6  18 -10   10.69    2.20
   6  18 -10    8.78    1.99
  -6 -18  10   11.44    0.99
   6  18 -10   10.27    0.96
   6  18  -9    0.28    1.41
   6  18  -9    0.81    1.63
  -6 -18   9    2.41    0.80
   6  18  -9    1.92    0.67
   6  18  -8   16.77    2.55
   6  18  -8   18.25    2.67
  -6 -18   8   20.89    1.46
   6  18  -8   21.68    1.43
  -6 -18   7    5.54    0.86
   6  18  -7    5.93    0.85
  -6 -18   6   16.95    1.29
   6  18  -6   16.04    1.20
  -6 -18   5   13.21    1.18
   6  18  -5   14.74    1.18
  -6 -18   4   -0.08    0.65
   6  18  -4    1.18    0.72
  -6 -18   3    1.57    0.79
   6  18  -3    1.32    0.65
  -6 -18   2   21.81    1.55
   6  18  -2   22.44    1.52
  -6 -18   1    0.09    0.75
   6  18  -1    0.25    0.62
  -6 -18   0   17.20    1.35
   6  18   0   16.81    1.25
  -6 -18  -1    0.32    0.74
   6  18   1    0.58    0.64
  -6 -18  -2    2.10    0.82
   6  18   2    1.13    0.67
  -6 -18  -3   13.99    1.17
   6  18   3   12.62    1.09
  -6 -18  -4    0.65    0.72
   6  18   4    1.42    0.61
  -6 -18  -5   -0.16    0.76
   6  18   5   -0.08    0.67
  -6 -18  -6   22.16    1.52
   6  18   6   23.07    1.59
  -6 -18  -7    0.78    0.75
   6  18   7    1.37    0.77
  -6 -18  -8    1.86    0.76
   6  18   8    1.89    0.90
  -6 -18  -9    0.94    1.00
   6  18   9    2.52    0.98
   5  17 -15    0.72    1.84
  -5 -17  15   -0.20    0.79
   5  17 -15    0.46    0.71
   5  17 -14    0.85    1.58
  -5 -17  14    0.20    0.76
   5  17 -14    0.10    0.71
   5  17 -13    3.72    1.60
  -5 -17  13    4.09    0.81
   5  17 -13    3.97    0.81
   5  17 -12   31.42    4.23
  -5 -17  12   30.99    1.95
   5  17 -12   32.49    2.02
   5  17 -11    0.92    1.30
  -5 -17  11    0.27    0.65
   5  17 -11    0.22    0.67
   5  17 -10   37.63    4.86
  -5 -17  10   32.67    2.04
   5  17 -10   34.86    2.15
   5  17  -9    5.24    1.53
  -5 -17   9    6.95    0.83
   5  17  -9    6.93    0.82
   5  17  -8    4.92    1.40
   5  17  -8    2.69    1.32
  -5 -17   8    3.88    0.83
   5  17  -8    2.84    0.76
   5  17  -7    2.20    1.31
   5  17  -7    4.13    1.31
  -5 -17   7    3.66    0.77
   5  17  -7    4.07    0.73
   5  17  -6   73.36    8.96
   5  17  -6   75.33    9.20
  -5 -17   6   66.90    3.84
   5  17  -6   66.66    3.80
  -5 -17   5    0.87    0.79
   5  17  -5    0.06    0.68
  -5 -17   4   69.75    4.00
   5  17  -4   72.12    4.06
  -5 -17   3    0.25    0.79
   5  17  -3    1.21    0.73
  -5 -17   2   10.40    1.12
   5  17  -2   10.18    0.94
  -5 -17   1   28.42    1.91
   5  17  -1   26.72    1.79
  -5 -17   0   16.00    1.23
   5  17   0   15.40    1.20
  -5 -17  -1    5.19    0.85
   5  17   1    7.36    0.93
  -5 -17  -2   25.83    1.72
   5  17   2   27.31    1.75
  -5 -17  -3    1.30    0.69
   5  17   3    1.79    0.69
  -5 -17  -4   42.47    2.54
   5  17   4   43.15    2.57
  -5 -17  -5    0.79    0.64
   5  17   5    1.03    0.69
  -5 -17  -6    0.12    0.65
   5  17   6   -0.59    0.70
  -5 -17  -7    0.18    0.65
   5  17   7    1.22    0.68
  -5 -17  -8   11.85    1.06
   5  17   8   11.09    1.06
  -5 -17  -9    0.77    0.80
   5  17   9   -0.82    0.76
  -5 -17 -10    8.48    1.01
   5  17  10    8.88    1.07
  -5 -17 -11   -0.47    1.05
   4  16 -16    0.11    1.65
   4  16 -16    0.62    0.71
   4  16 -15    2.55    1.52
  -4 -16  15    2.03    0.85
   4  16 -15    2.24    0.70
   4  16 -14    7.25    1.71
  -4 -16  14    5.04    0.84
   4  16 -14    4.66    0.77
   4  16 -13    2.30    1.43
  -4 -16  13    1.46    0.78
   4  16 -13    3.04    0.72
   4  16 -12    4.80    1.51
  -4 -16  12    1.23    0.71
   4  16 -12    3.11    0.74
   4  16 -11   62.34    7.74
  -4 -16  11   66.23    3.77
   4  16 -11   70.72    4.02
   4  16 -10   -0.44    1.13
  -4 -16  10   -0.23    0.71
   4  16 -10    0.06    0.60
   4  16  -9   25.10    3.41
  -4 -16   9   24.26    1.62
   4  16  -9   24.97    1.64
   4  16  -8   16.67    2.52
  -4 -16   8   12.73    1.08
   4  16  -8   14.22    1.12
   4  16  -7    9.71    1.70
  -4 -16   7   13.41    1.16
   4  16  -7   14.52    1.23
   4  16  -6    5.14    1.28
  -4 -16   6    3.59    0.84
   4  16  -6    4.08    0.68
   4  16  -5   59.40    7.31
   4  16  -5   53.95    6.60
  -4 -16   5   60.23    3.50
   4  16  -5   58.13    3.36
  -4 -16   4   23.73    1.63
   4  16  -4   22.99    1.62
  -4 -16   3   73.36    4.20
   4  16  -3   70.13    3.98
  -4 -16   2    9.61    1.04
   4  16  -2   12.24    1.09
  -4 -16   1   26.08    1.74
   4  16  -1   23.04    1.60
  -4 -16   0    9.00    1.01
   4  16   0   10.21    1.02
  -4 -16  -1   88.95    5.00
   4  16   1   81.75    4.59
  -4 -16  -2    0.20    0.69
   4  16   2    0.10    0.70
  -4 -16  -3    6.04    0.84
   4  16   3    6.23    0.86
  -4 -16  -4    0.85    0.77
   4  16   4    0.38    0.73
  -4 -16  -5   30.72    1.97
   4  16   5   34.95    2.17
  -4 -16  -6   17.85    1.33
   4  16   6   19.99    1.40
  -4 -16  -7   13.83    1.12
   4  16   7   13.69    1.11
  -4 -16  -8    2.88    0.70
   4  16   8    3.56    0.79
  -4 -16  -9   15.35    1.22
   4  16   9   15.89    1.21
  -4 -16 -10    2.02    0.76
   4  16  10    1.34    0.77
  -4 -16 -11    6.61    2.03
  -4 -16 -11    6.20    2.07
  -4 -16 -11    7.86    0.90
   4  16  11    8.03    0.97
  -4 -16 -12   -0.13    2.07
  -4 -16 -12    1.12    2.02
  -4 -16 -12    0.01    0.89
   4  16  12    0.01    0.85
   3  15 -16    2.17    1.53
  -3 -15  16    1.31    0.87
   3  15 -16    1.36    0.78
   3  15 -15   11.79    2.11
  -3 -15  15   10.92    1.12
   3  15 -15    9.08    0.95
   3  15 -14   -0.80    1.38
  -3 -15  14    0.52    0.74
   3  15 -14    0.18    0.68
   3  15 -13   38.69    4.95
  -3 -15  13   36.89    2.29
   3  15 -13   37.38    2.25
   3  15 -12    1.28    1.21
  -3 -15  12    1.24    0.75
   3  15 -12    1.96    0.71
   3  15 -11    1.11    1.25
  -3 -15  11    0.80    0.70
   3  15 -11   -0.28    0.61
   3  15 -10    1.23    1.22
  -3 -15  10    4.28    0.82
   3  15 -10    4.24    0.74
   3  15  -9   23.68    3.20
  -3 -15   9   25.58    1.72
   3  15  -9   26.13    1.69
   3  15  -8    0.12    1.19
  -3 -15   8    1.24    0.72
   3  15  -8    1.38    0.74
   3  15  -7   82.21   10.07
  -3 -15   7   78.95    4.49
   3  15  -7   84.59    4.76
   3  15  -6    0.21    1.09
  -3 -15   6    1.62    0.84
   3  15  -6    0.17    0.64
   3  15  -5   33.24    4.21
  -3 -15   5   32.89    2.08
   3  15  -5   30.99    1.93
   3  15  -4    7.97    1.38
  -3 -15   4   12.09    1.19
   3  15  -4   12.13    1.11
  -3 -15   3   82.22    4.64
   3  15  -3   89.32    5.02
  -3 -15   2    2.39    0.76
   3  15  -2    2.21    0.72
  -3 -15   1   21.82    1.55
   3  15  -1   21.48    1.58
  -3 -15   0   -0.74    0.68
   3  15   0    0.28    0.65
  -3 -15  -1    7.46    0.96
   3  15   1    7.24    0.90
  -3 -15  -2   -0.32    0.69
   3  15   2    0.78    0.69
  -3 -15  -3    4.87    0.79
   3  15   3    4.12    0.77
  -3 -15  -4   14.69    1.19
   3  15   4   14.35    1.18
  -3 -15  -5   53.19    3.12
   3  15   5   50.56    2.96
  -3 -15  -6    1.12    0.74
   3  15   6    2.15    0.67
  -3 -15  -7   76.88    4.36
   3  15   7   77.23    4.34
  -3 -15  -8    9.34    0.99
   3  15   8    8.99    0.95
  -3 -15  -9   -0.29    1.24
  -3 -15  -9   -0.19    1.31
  -3 -15  -9    1.39    0.71
   3  15   9    1.14    0.74
  -3 -15 -10   -0.40    1.48
  -3 -15 -10   -0.13    1.38
  -3 -15 -10    0.33    0.70
   3  15  10    1.19    0.68
  -3 -15 -11    8.90    2.07
  -3 -15 -11    7.05    1.88
  -3 -15 -11    7.88    0.99
   3  15  11    8.76    0.92
  -3 -15 -12    0.79    1.89
  -3 -15 -12   -0.25    1.89
  -3 -15 -12    2.17    0.88
   3  15  12    2.08    0.83
  -3 -15 -13    9.00    2.37
  -3 -15 -13    8.15    2.29
  -3 -15 -13    9.70    1.01
   3  15  13   11.05    1.19
   2  14 -16    2.96    1.33
  -2 -14  16    3.85    0.96
   2  14 -16    2.89    0.90
   2  14 -15    1.77    1.37
  -2 -14  15    0.71    0.80
   2  14 -15    1.84    0.84
   2  14 -14   16.71    2.46
  -2 -14  14   19.81    1.44
   2  14 -14   19.48    1.38
   2  14 -13    0.86    1.20
  -2 -14  13    0.55    0.68
   2  14 -13    0.72    0.64
   2  14 -12    2.33    1.31
  -2 -14  12    1.35    0.77
   2  14 -12    3.70    0.73
   2  14 -11   26.92    3.56
  -2 -14  11   22.60    1.54
   2  14 -11   19.42    1.31
   2  14 -10   -0.49    1.15
  -2 -14  10    1.71    0.73
   2  14 -10    1.04    0.72
   2  14  -9   42.86    5.45
  -2 -14   9   34.70    2.17
   2  14  -9   33.16    2.02
   2  14  -8   34.61    4.47
  -2 -14   8   34.68    2.15
   2  14  -8   35.38    2.22
   2  14  -7    6.81    1.49
  -2 -14   7    4.59    0.85
   2  14  -7    3.98    0.76
   2  14  -6   73.94    9.07
  -2 -14   6   89.01    5.01
   2  14  -6   82.15    4.62
   2  14  -5    9.88    1.65
  -2 -14   5    8.24    0.93
   2  14  -5    6.75    0.94
   2  14  -4    4.41    1.11
  -2 -14   4    3.91    0.76
   2  14  -4    3.40    0.76
   2  14  -3   17.66    2.40
  -2 -14   3   11.77    1.08
   2  14  -3   10.76    1.03
   2  14  -2  115.80   14.15
  -2 -14   2  105.60    5.90
   2  14  -2  107.90    6.01
  -2 -14   1   56.46    3.33
   2  14  -1   57.74    3.36
  -2 -14   0   22.05    1.59
   2  14   0   22.81    1.63
  -2 -14  -1    0.18    0.77
   2  14   1    0.31    0.72
  -2 -14  -2   53.56    3.16
   2  14   2   54.35    3.19
  -2 -14  -3   62.87    3.64
   2  14   3   68.52    3.91
  -2 -14  -4   23.74    1.62
   2  14   4   22.55    1.55
  -2 -14  -5    3.79    0.80
   2  14   5    3.25    0.80
  -2 -14  -6   74.89    4.25
   2  14   6   78.97    4.47
  -2 -14  -7    2.07    0.84
  -2 -14  -7    1.96    0.94
  -2 -14  -7    3.73    0.80
   2  14   7    3.78    0.70
  -2 -14  -8   48.97    6.09
  -2 -14  -8   43.28    5.37
  -2 -14  -8   49.10    2.89
   2  14   8   48.96    2.89
  -2 -14  -9   33.85    4.38
  -2 -14  -9   33.65    4.27
  -2 -14  -9   24.81    1.64
   2  14   9   26.11    1.72
  -2 -14 -10    0.44    1.18
  -2 -14 -10    0.47    1.41
  -2 -14 -10    0.97    0.70
   2  14  10   -0.36    0.69
  -2 -14 -11   11.70    1.97
  -2 -14 -11   10.92    2.02
  -2 -14 -11    9.73    1.00
   2  14  11   10.16    1.04
  -2 -14 -12   28.38    3.88
  -2 -14 -12   25.76    3.54
  -2 -14 -12   26.28    1.71
   2  14  12   28.08    1.84
  -2 -14 -13    0.52    1.67
  -2 -14 -13    3.43    1.71
  -2 -14 -13    2.28    0.79
   2  14  13    0.30    0.81
  -2 -14 -14    1.59    1.88
  -2 -14 -14    1.98    1.85
  -2 -14 -14    3.87    0.96
   2  14  14    4.17    0.87
  -2 -14 -15   11.16    2.64
  -2 -14 -15    9.89    2.23
  -2 -14 -15    9.31    1.21
   2  14  15    6.43    1.13
   1  13 -17    0.98    1.20
  -1 -13  17    0.38    0.96
   1  13 -17   -0.76    0.88
   1  13 -16    5.82    1.41
  -1 -13  16    3.77    0.89
   1  13 -16    3.13    0.86
   1  13 -15    2.23    1.29
  -1 -13  15    2.81    0.80
   1  13 -15    2.49    0.81
   1  13 -14   16.19    2.33
  -1 -13  14   12.88    1.14
   1  13 -14   12.13    1.11
   1  13 -13    1.20    1.20
  -1 -13  13    2.70    0.76
   1  13 -13    3.06    0.68
   1  13 -12   30.92    4.03
  -1 -13  12   35.37    2.21
   1  13 -12   32.02    1.95
   1  13 -11    9.80    1.78
  -1 -13  11    5.91    0.82
   1  13 -11    6.01    0.75
   1  13 -10   53.46    6.68
  -1 -13  10   55.18    3.19
   1  13 -10   56.73    3.30
   1  13  -9    0.20    1.21
  -1 -13   9   -0.60    0.73
   1  13  -9   -0.73    0.64
   1  13  -8   29.06    3.80
  -1 -13   8   26.97    1.78
   1  13  -8   28.88    1.84
   1  13  -7    3.82    1.29
  -1 -13   7    2.80    0.73
   1  13  -7    4.87    0.82
   1  13  -6   -0.14    0.97
  -1 -13   6    1.00    0.79
   1  13  -6    0.40    0.63
   1  13  -5   -0.23    1.06
  -1 -13   5    1.03    0.69
   1  13  -5    0.01    0.65
   1  13  -4   71.20    8.73
  -1 -13   4   71.46    4.08
   1  13  -4   73.78    4.20
   1  13  -3    1.02    0.93
  -1 -13   3   -0.25    0.68
   1  13  -3    0.92    0.61
   1  13  -2  123.40   14.97
  -1 -13   2  118.00    6.54
   1  13  -2  108.80    6.05
   1  13  -1    7.37    1.17
  -1 -13   1   10.08    1.01
   1  13  -1   11.37    0.99
  -1 -13   0    1.90    0.73
   1  13   0    0.04    0.65
  -1 -13  -1    2.34    0.66
   1  13   1    1.76    0.72
  -1 -13  -2   83.98    4.74
   1  13   2   83.96    4.71
  -1 -13  -3    0.16    0.70
   1  13   3   -0.34    0.59
  -1 -13  -4  148.00    8.16
   1  13   4  140.80    7.74
  -1 -13  -5    1.32    0.48
  -1 -13  -5    1.35    0.57
  -1 -13  -5    0.19    0.77
   1  13   5    0.23    0.71
  -1 -13  -6   11.24    1.72
  -1 -13  -6    9.68    1.06
   1  13   6    9.47    0.98
  -1 -13  -7    3.41    1.16
  -1 -13  -7    3.99    0.77
   1  13   7    2.51    0.76
  -1 -13  -8    2.16    1.15
  -1 -13  -8    2.68    0.81
   1  13   8    2.45    0.71
  -1 -13  -9    2.70    1.32
  -1 -13  -9    5.16    0.88
   1  13   9    5.19    0.85
  -1 -13 -10  155.00   18.81
  -1 -13 -10  144.40    7.92
   1  13  10  135.50    7.45
  -1 -13 -11    2.00    1.07
  -1 -13 -11    0.61    1.27
  -1 -13 -11    2.52    0.78
   1  13  11    1.76    0.69
  -1 -13 -12    4.32    1.29
  -1 -13 -12    2.37    1.36
  -1 -13 -12    3.08    0.80
   1  13  12    5.17    0.85
  -1 -13 -13    1.57    1.41
  -1 -13 -13    1.59    1.26
  -1 -13 -13    0.45    0.81
   1  13  13    1.12    0.76
  -1 -13 -14    1.52    1.40
  -1 -13 -14    3.81    1.51
  -1 -13 -14    2.61    0.83
   1  13  14    2.83    0.80
  -1 -13 -15   -0.02    1.53
  -1 -13 -15    0.81    1.73
  -1 -13 -15   -0.59    0.89
   1  13  15   -0.18    0.84
  -1 -13 -16   17.34    2.76
  -1 -13 -16   15.23    2.60
  -1 -13 -16   13.78    1.32
   1  13  16   14.54    1.38
   0  12 -17    2.69    1.06
   0  12 -17    2.59    1.05
   0  12 -16    0.45    1.24
   0 -12  16    0.47    0.85
   0  12 -16    1.25    0.90
   0  12 -15    2.75    1.29
   0 -12  15    3.52    0.88
   0  12 -15    3.29    0.82
   0  12 -14   12.57    2.03
   0 -12  14    8.59    0.96
   0  12 -14    8.85    0.96
   0  12 -13    6.46    1.37
   0 -12  13    4.26    0.86
   0  12 -13    5.31    0.77
   0  12 -12   11.27    1.83
   0 -12  12   10.56    1.06
   0  12 -12   10.41    0.96
   0  12 -11   66.64    8.25
   0 -12  11   77.45    4.35
   0  12 -11   76.71    4.33
   0  12 -10   18.55    2.64
   0 -12  10   14.23    1.15
   0  12 -10   14.82    1.10
   0  12  -9    0.54    1.11
   0 -12   9    2.20    0.74
   0  12  -9    3.81    0.76
   0  12  -8    3.48    1.29
   0 -12   8    1.65    0.78
   0  12  -8    2.24    0.64
   0  12  -7   58.72    7.29
   0 -12   7   59.36    3.43
   0  12  -7   66.91    3.84
   0  12  -6  107.60   13.12
   0 -12   6  101.90    5.68
   0  12  -6   92.82    5.19
   0  12  -5   32.29    4.15
   0 -12   5   40.46    2.46
   0  12  -5   37.18    2.23
   0  12  -4    2.00    0.94
   0 -12   4    2.42    0.65
   0  12  -4    1.79    0.62
   0  12  -3   32.32    4.10
   0 -12   3   36.60    2.26
   0  12  -3   35.42    2.21
   0  12  -2   20.70    2.81
   0 -12   2   22.74    1.54
   0  12  -2   21.42    1.47
   0  12  -1   98.22   11.93
   0 -12   1   97.12    5.44
   0  12  -1   92.14    5.18
   0  12   0  295.80   35.67
   0 -12   0  264.80   14.38
   0  12   0  272.10   14.75
   0 -12  -1   95.83    5.37
   0  12   1   96.37    5.40
   0 -12  -2   22.53    1.57
   0  12   2   21.53    1.53
   0 -12  -3   28.68    3.55
   0 -12  -3   35.63    2.20
   0  12   3   34.37    2.12
   0 -12  -4    3.27    0.82
   0 -12  -4    1.98    0.66
   0  12   4    2.73    0.69
   0 -12  -5   31.77    4.00
   0 -12  -5   36.67    2.25
   0  12   5   35.63    2.20
   0 -12  -6  109.30   13.28
   0 -12  -6   89.33    5.02
   0  12   6   90.74    5.10
   0 -12  -7   63.97    7.87
   0 -12  -7   60.88    3.53
   0  12   7   59.83    3.47
   0 -12  -8    3.15    1.19
   0 -12  -8    1.61    0.73
   0  12   8    1.63    0.64
   0 -12  -9    3.64    1.26
   0 -12  -9    2.05    0.80
   0  12   9    2.27    0.71
   0 -12 -10   17.79    2.60
   0 -12 -10   12.11    1.11
   0  12  10   14.94    1.19
   0 -12 -11   63.03    7.81
   0 -12 -11   72.05    4.11
   0  12  11   72.55    4.13
   0 -12 -12   13.90    2.20
   0 -12 -12    9.66    0.97
   0  12  12   10.08    0.94
   0 -12 -13    7.48    1.65
   0 -12 -13    6.90    0.91
   0  12  13    5.42    0.80
   0 -12 -14   11.34    2.05
   0 -12 -14    9.05    0.95
   0  12  14    8.69    0.97
   0 -12 -15    3.13    1.46
   0 -12 -15    2.20    0.86
   0  12  15    1.61    0.80
   0 -12 -16    0.23    1.46
   0 -12 -16    2.85    1.34
   0 -12 -16    1.13    0.85
   0  12  16    1.99    0.77
   0 -12 -17    1.43    1.42
   0 -12 -17   -0.06    1.48
   0 -12 -17    4.53    0.94
  -1  11 -17   -0.73    1.18
  -1  11 -17   -0.03    1.38
  -1  11 -17   -0.24    0.73
  -1  11 -16    2.90    1.12
  -1  11 -16    1.23    0.76
  -1  11 -15   14.18    2.17
   1 -11  15   15.29    1.23
  -1  11 -15   16.27    1.23
  -1  11 -14    0.47    1.03
   1 -11  14   -0.78    0.73
  -1  11 -14    0.29    0.72
  -1  11 -13   32.20    4.15
   1 -11  13   29.29    1.85
  -1  11 -13   28.60    1.80
  -1  11 -12    8.84    1.66
   1 -11  12    8.09    0.87
  -1  11 -12    7.89    0.83
  -1  11 -11    0.25    1.12
   1 -11  11   -0.44    0.72
  -1  11 -11    0.38    0.67
  -1  11 -10   -1.50    1.20
   1 -11  10   -0.23    0.64
  -1  11 -10    1.22    0.60
  -1  11  -9    5.82    1.33
   1 -11   9    6.29    0.83
  -1  11  -9    5.34    0.82
  -1  11  -8   13.53    2.11
   1 -11   8   10.62    0.95
  -1  11  -8   10.41    0.98
  -1  11  -7  170.20   20.64
   1 -11   7  160.30    8.77
  -1  11  -7  169.60    9.24
  -1  11  -6    2.58    1.22
   1 -11   6    4.27    0.70
  -1  11  -6    4.47    0.79
  -1  11  -5  165.60   20.08
   1 -11   5  168.90    9.24
  -1  11  -5  172.00    9.40
  -1  11  -4    0.03    1.05
   1 -11   4    0.54    0.66
  -1  11  -4    0.26    0.55
  -1  11  -3   41.80    5.26
   1 -11   3   39.03    2.38
  -1  11  -3   42.28    2.54
  -1  11  -2    8.63    1.46
   1 -11   2    7.13    0.86
  -1  11  -2    6.49    0.83
  -1  11  -1   86.78   10.58
   1 -11   1   81.05    4.59
  -1  11  -1   89.96    5.04
  -1  11   0    7.68    1.38
   1 -11   0    7.56    0.89
  -1  11   0    7.46    0.95
   1 -11  -1  562.20   67.73
  -1  11   1  660.60   79.58
   1 -11  -1  581.80   31.30
  -1  11   1  587.00   31.58
   1 -11  -2    6.05    1.11
  -1  11   2    6.77    1.18
   1 -11  -2   11.36    1.04
  -1  11   2   12.33    1.06
   1 -11  -3   21.79    2.79
   1 -11  -3   26.54    1.74
  -1  11   3   22.19    1.52
   1 -11  -4    0.71    0.87
   1 -11  -4    2.78    0.75
  -1  11   4    1.09    0.67
   1 -11  -5   56.83    7.01
   1 -11  -5   50.96    3.01
  -1  11   5   50.35    2.94
   1 -11  -6   14.47    2.13
   1 -11  -6   13.54    1.14
  -1  11   6   14.52    1.17
   1 -11  -7  231.20   27.96
   1 -11  -7  240.70   13.09
  -1  11   7  248.40   13.49
   1 -11  -8    9.33    1.67
   1 -11  -8    4.82    0.78
  -1  11   8    5.49    0.85
   1 -11  -9   26.88    3.56
   1 -11  -9   21.68    1.54
  -1  11   9   22.96    1.55
   1 -11 -10    4.00    1.29
   1 -11 -10    2.56    0.77
  -1  11  10    3.83    0.76
   1 -11 -11   21.19    2.94
   1 -11 -11   19.46    1.40
  -1  11  11   21.71    1.49
   1 -11 -12    0.97    1.26
   1 -11 -12    1.29    0.75
  -1  11  12   -0.22    0.66
   1 -11 -13   35.14    4.52
   1 -11 -13   37.49    2.30
  -1  11  13   35.91    2.19
   1 -11 -14    1.49    1.24
   1 -11 -14    2.21    0.73
  -1  11  14    4.51    0.81
   1 -11 -15   16.33    2.50
   1 -11 -15   20.13    1.46
  -1  11  15   18.48    1.40
   1 -11 -16    3.66    1.47
   1 -11 -16    1.28    0.84
   1 -11 -17   -0.34    1.41
   1 -11 -17   -0.47    0.86
   1 -11 -18    0.89    1.35
   1 -11 -18    0.52    0.86
   1 -11 -18   -0.68    0.92
  -2  10 -17   26.30    3.45
  -2  10 -16    3.49    1.14
  -2  10 -16    1.87    0.78
  -2  10 -16    0.32    0.59
  -2  10 -15   13.00    2.09
  -2  10 -15    6.31    0.74
  -2  10 -14    3.05    1.08
   2 -10  14    5.11    0.76
  -2  10 -14    3.26    0.70
  -2  10 -13    4.36    1.31
   2 -10  13    2.57    0.72
  -2  10 -13    2.54    0.70
  -2  10 -12    9.14    1.69
   2 -10  12    8.41    0.84
  -2  10 -12    8.18    0.88
  -2  10 -11    1.87    1.25
   2 -10  11    1.67    0.71
  -2  10 -11    1.01    0.58
  -2  10 -10   -0.74    1.04
   2 -10  10    0.05    0.62
  -2  10 -10   -0.11    0.60
  -2  10  -9  155.90   18.93
   2 -10   9  139.00    7.61
  -2  10  -9  153.80    8.40
  -2  10  -8   50.27    6.29
   2 -10   8   56.06    3.23
  -2  10  -8   55.48    3.20
  -2  10  -7   47.01    5.93
   2 -10   7   44.55    2.63
  -2  10  -7   44.84    2.59
  -2  10  -6  125.00   15.23
   2 -10   6  129.20    7.12
  -2  10  -6  135.50    7.43
  -2  10  -5   23.32    3.13
   2 -10   5   20.92    1.42
  -2  10  -5   22.61    1.53
  -2  10  -4    3.08    1.26
   2 -10   4    4.26    0.75
  -2  10  -4    3.61    0.67
  -2  10  -3   41.59    5.20
   2 -10   3   38.79    2.33
  -2  10  -3   32.39    2.01
  -2  10  -2   53.22    6.60
   2 -10   2   57.95    3.36
  -2  10  -2   60.35    3.50
   2 -10   1  222.70   26.90
  -2  10  -1  250.70   30.30
   2 -10   1  227.90   12.39
  -2  10  -1  228.20   12.39
   2 -10   0  235.20   28.41
  -2  10   0  251.80   30.41
   2 -10   0  264.90   14.37
  -2  10   0  272.20   14.76
   2 -10  -1  226.00   27.28
  -2  10   1  271.90   32.83
   2 -10  -1  225.60   12.27
  -2  10   1  212.60   11.58
   2 -10  -2   89.08   10.84
  -2  10   2   95.72   11.64
   2 -10  -2  103.70    5.79
  -2  10   2  107.50    5.97
   2 -10  -3  276.00   33.30
  -2  10   3  276.20   33.33
   2 -10  -3  248.00   13.47
  -2  10   3  247.70   13.46
   2 -10  -4   16.32    2.27
   2 -10  -4   18.80    1.40
  -2  10   4   17.39    1.30
   2 -10  -5  149.60   18.12
   2 -10  -5  141.90    7.82
  -2  10   5  139.00    7.65
   2 -10  -6   92.99   11.34
   2 -10  -6   95.82    5.36
  -2  10   6   93.22    5.20
   2 -10  -7   16.24    2.36
   2 -10  -7   12.99    1.12
  -2  10   7   12.41    1.08
   2 -10  -8   57.06    7.09
   2 -10  -8   59.57    3.44
  -2  10   8   63.73    3.67
   2 -10  -9  173.30   21.01
   2 -10  -9  148.50    8.15
  -2  10   9  143.90    7.92
   2 -10 -10    8.56    1.61
   2 -10 -10    7.59    0.95
  -2  10  10    8.64    0.96
   2 -10 -11   -1.44    1.18
   2 -10 -11    0.36    0.66
  -2  10  11    1.06    0.65
   2 -10 -12   11.32    1.99
   2 -10 -12   13.10    1.12
  -2  10  12   11.55    1.02
   2 -10 -13   38.18    4.89
   2 -10 -13   40.90    2.45
  -2  10  13   38.96    2.36
   2 -10 -14    3.71    1.33
   2 -10 -14    6.68    0.86
  -2  10  14    7.57    0.90
   2 -10 -15   10.93    1.95
   2 -10 -15    9.41    0.94
  -2  10  15    8.62    0.96
   2 -10 -16    5.77    1.57
   2 -10 -16    8.79    0.97
   2 -10 -17   26.42    3.60
   2 -10 -17   22.47    1.60
   2 -10 -18    5.71    1.60
   2 -10 -18    2.96    0.91
   2 -10 -18    4.75    0.86
   2 -10 -19    1.87    1.58
   2 -10 -19    2.59    0.94
   2 -10 -19    3.35    0.99
  -3   9 -17   -0.11    1.03
  -3   9 -16   43.68    5.50
  -3   9 -15    0.08    1.24
  -3   9 -14    1.09    1.06
  -3   9 -14    1.28    0.50
  -3   9 -14    0.99    0.47
  -3   9 -13   15.55    2.30
   3  -9  13   11.28    0.91
  -3   9 -13   12.51    0.93
  -3   9 -12   14.32    2.21
   3  -9  12   10.49    0.90
  -3   9 -12   11.28    0.91
  -3   9 -11   18.83    2.69
   3  -9  11   15.22    1.10
  -3   9 -11   15.28    1.06
  -3   9 -10    8.10    1.55
   3  -9  10    5.58    0.71
  -3   9 -10    5.51    0.72
  -3   9  -9    0.22    1.20
   3  -9   9    0.65    0.58
  -3   9  -9    0.04    0.52
  -3   9  -8  187.50   22.73
   3  -9   8  188.60   10.24
  -3   9  -8  199.60   10.85
  -3   9  -7    2.84    1.11
   3  -9   7    0.21    0.57
  -3   9  -7    1.07    0.53
  -3   9  -6    7.18    1.60
   3  -9   6    7.23    0.75
  -3   9  -6    7.96    0.76
  -3   9  -5    7.82    1.64
   3  -9   5    5.12    0.68
  -3   9  -5    5.01    0.71
  -3   9  -4  227.50   27.51
   3  -9   4  269.50   14.60
  -3   9  -4  262.00   14.18
  -3   9  -3    1.10    1.09
   3  -9   3    1.03    0.65
  -3   9  -3    0.38    0.55
   3  -9   2  107.60   13.10
  -3   9  -2  114.10   13.89
   3  -9   2  115.50    6.38
  -3   9  -2  117.50    6.50
   3  -9   1  100.90   12.29
  -3   9  -1  100.40   12.23
   3  -9   1   80.05    4.49
  -3   9  -1   82.35    4.62
   3  -9   0   31.59    4.05
  -3   9   0   33.06    4.24
   3  -9   0   36.34    2.23
  -3   9   0   36.44    2.23
   3  -9  -1  118.50   14.40
  -3   9   1  107.60   13.09
   3  -9  -1   96.01    5.37
  -3   9   1   98.07    5.49
   3  -9  -2  219.70   26.56
  -3   9   2  249.50   30.16
   3  -9  -2  213.60   11.63
  -3   9   2  213.50   11.64
   3  -9  -3   19.70    2.71
  -3   9   3   19.30    2.64
   3  -9  -3   19.61    1.39
  -3   9   3   20.49    1.47
   3  -9  -4  278.40   33.61
  -3   9   4  258.40   31.21
   3  -9  -4  291.30   15.78
  -3   9   4  291.60   15.81
   3  -9  -5   32.13    4.12
   3  -9  -5   21.21    1.46
  -3   9   5   21.20    1.45
   3  -9  -6  110.80   13.49
   3  -9  -6  100.30    5.59
  -3   9   6  114.10    6.33
   3  -9  -7    1.21    1.13
   3  -9  -7    1.26    0.70
  -3   9   7    1.80    0.64
   3  -9  -8   30.15    3.96
   3  -9  -8   21.98    1.52
  -3   9   8   19.34    1.39
   3  -9  -9   13.77    2.10
   3  -9  -9    9.21    0.92
  -3   9   9   10.90    1.02
   3  -9 -10  291.60   35.23
   3  -9 -10  299.10   16.18
  -3   9  10  292.20   15.82
   3  -9 -11   29.17    3.89
   3  -9 -11   18.71    1.39
  -3   9  11   17.05    1.29
   3  -9 -12    1.68    1.23
   3  -9 -12    0.92    0.71
  -3   9  12    1.63    0.68
   3  -9 -13   21.03    2.97
   3  -9 -13   16.79    1.29
  -3   9  13   19.65    1.40
   3  -9 -14    6.50    1.54
   3  -9 -14   10.84    1.00
  -3   9  14    8.69    0.98
   3  -9 -15    7.58    1.62
   3  -9 -15   10.00    1.00
   3  -9 -16   19.99    2.84
   3  -9 -16   18.07    1.36
   3  -9 -17    0.62    1.28
   3  -9 -17    1.28    0.77
   3  -9 -17   -0.08    0.65
   3  -9 -18   40.45    5.19
   3  -9 -18   42.23    2.57
   3  -9 -18   41.35    2.48
   3  -9 -19   -0.28    1.30
   3  -9 -19   -0.34    0.86
   3  -9 -19    0.54    0.80
  -4   8 -16   -0.41    1.21
  -4   8 -15   16.26    2.39
  -4   8 -14   36.60    4.68
  -4   8 -13    6.98    1.39
  -4   8 -12   88.17   10.80
  -4   8 -12   69.35    3.81
  -4   8 -11   38.34    4.86
   4  -8  11   41.09    2.34
  -4   8 -11   39.94    2.26
  -4   8 -10   45.79    5.79
   4  -8  10   42.73    2.44
  -4   8 -10   41.32    2.39
  -4   8  -9   21.64    2.95
   4  -8   9   21.36    1.37
  -4   8  -9   19.95    1.26
  -4   8  -8  145.40   17.68
   4  -8   8  116.60    6.38
  -4   8  -8  113.30    6.20
  -4   8  -7   25.69    3.44
   4  -8   7   23.04    1.45
  -4   8  -7   23.53    1.45
  -4   8  -6  266.10   32.19
   4  -8   6  248.30   13.41
  -4   8  -6  247.50   13.34
  -4   8  -5   -1.16    1.17
   4  -8   5    0.72    0.52
  -4   8  -5    0.81    0.51
  -4   8  -4   83.41   10.27
   4  -8   4   82.70    4.60
  -4   8  -4   82.24    4.58
   4  -8   3   97.20   11.89
  -4   8  -3   92.62   11.34
   4  -8   3   94.19    5.23
  -4   8  -3   99.85    5.49
   4  -8   2    5.04    1.29
  -4   8  -2    3.97    1.27
   4  -8   2    3.19    0.64
  -4   8  -2    4.05    0.66
   4  -8   1   44.77    5.64
  -4   8  -1   46.59    5.82
   4  -8   1   46.50    2.71
  -4   8  -1   46.06    2.71
   4  -8   0  565.90   68.21
  -4   8   0  561.50   67.68
   4  -8   0  525.00   28.24
  -4   8   0  526.70   28.31
   4  -8  -1    9.71    1.65
  -4   8   1   11.87    1.91
   4  -8  -1    9.32    0.92
  -4   8   1   10.34    0.90
   4  -8  -2  185.10   22.41
  -4   8   2  194.90   23.58
   4  -8  -2  192.90   10.52
  -4   8   2  205.30   11.18
   4  -8  -3   81.26    9.98
  -4   8   3   87.64   10.73
   4  -8  -3   94.80    5.31
  -4   8   3   89.84    5.02
   4  -8  -4  112.60   13.72
  -4   8   4  107.60   13.11
   4  -8  -4   80.39    4.55
  -4   8   4   81.91    4.64
   4  -8  -5    4.92    1.37
  -4   8   5    5.52    1.31
   4  -8  -5    5.70    0.82
  -4   8   5    6.76    0.81
   4  -8  -6  229.00   27.69
   4  -8  -6  194.40   10.60
  -4   8   6  192.80   10.51
   4  -8  -7   18.90    2.67
   4  -8  -7   23.68    1.58
  -4   8   7   26.42    1.74
   4  -8  -8  210.20   25.45
   4  -8  -8  207.60   11.30
  -4   8   8  207.00   11.27
   4  -8  -9   18.62    2.64
   4  -8  -9   17.60    1.25
  -4   8   9   18.90    1.35
   4  -8 -10   26.19    3.47
   4  -8 -10   24.29    1.59
  -4   8  10   27.22    1.78
   4  -8 -11   27.32    3.66
   4  -8 -11   37.32    2.28
  -4   8  11   41.40    2.50
   4  -8 -12  283.40   34.26
   4  -8 -12  238.30   12.95
  -4   8  12  239.50   13.00
   4  -8 -13   46.01    5.80
   4  -8 -13   43.93    2.60
  -4   8  13   44.56    2.64
   4  -8 -14   51.37    6.44
   4  -8 -14   49.89    2.93
   4  -8 -15    0.99    1.29
   4  -8 -15    0.21    0.67
   4  -8 -16   26.15    3.53
   4  -8 -16   26.91    1.76
   4  -8 -17   16.72    2.45
   4  -8 -17   14.70    1.17
   4  -8 -17   16.40    1.20
   4  -8 -18    9.05    1.77
   4  -8 -18    4.98    0.89
   4  -8 -18    4.30    0.75
   4  -8 -19   17.14    2.62
   4  -8 -19   19.45    1.45
   4  -8 -19   17.48    1.30
   4  -8 -20   18.27    2.70
   4  -8 -20   13.41    1.24
   4  -8 -20   12.88    1.16
  -5   7 -16    0.00    1.35
  -5   7 -15    6.22    1.56
  -5   7 -14    0.88    1.24
  -5   7 -13  138.80   16.86
  -5   7 -12    4.43    1.36
  -5   7 -11  190.00   23.03
  -5   7 -10   12.44    1.99
   5  -7  10    8.51    0.59
  -5   7 -10    8.94    0.60
  -5   7  -9    2.16    1.26
   5  -7   9    2.14    0.42
  -5   7  -9    2.57    0.43
  -5   7  -8   14.58    2.30
   5  -7   8   10.69    0.81
  -5   7  -8   10.24    0.76
  -5   7  -7  242.40   29.34
   5  -7   7  236.10   12.74
  -5   7  -7  226.00   12.21
  -5   7  -6    4.32    1.51
   5  -7   6    2.27    0.52
  -5   7  -6    4.04    0.53
  -5   7  -5  117.20   14.30
   5  -7   5  131.10    7.14
  -5   7  -5  133.30    7.25
  -5   7  -4   53.15    6.65
   5  -7   4   43.69    2.52
  -5   7  -4   43.32    2.52
   5  -7   3   47.36    5.97
  -5   7  -3   49.45    6.20
   5  -7   3   45.09    2.60
  -5   7  -3   48.20    2.78
   5  -7   2    5.65    1.27
  -5   7  -2    7.23    1.55
   5  -7   2    3.75    0.60
  -5   7  -2    4.64    0.63
   5  -7   1    8.83    1.75
  -5   7  -1    8.11    1.67
   5  -7   1    5.08    0.68
  -5   7  -1    5.50    0.76
   5  -7   0   47.50    5.98
  -5   7   0   43.77    5.54
   5  -7   0   39.01    2.32
  -5   7   0   41.38    2.47
   5  -7  -1  444.00   53.56
  -5   7   1  437.40   52.76
   5  -7  -1  467.50   25.16
  -5   7   1  467.00   25.12
   5  -7  -2   45.78    5.78
  -5   7   2   45.86    5.77
   5  -7  -2   27.75    1.80
  -5   7   2   26.11    1.69
   5  -7  -3  175.60   21.29
  -5   7   3  171.80   20.83
   5  -7  -3  186.50   10.18
  -5   7   3  215.00   11.69
   5  -7  -4   75.98    9.37
  -5   7   4   75.76    9.34
   5  -7  -4   49.14    2.91
  -5   7   4   49.92    2.92
   5  -7  -5  189.50   22.96
  -5   7   5  186.10   22.55
   5  -7  -5  154.00    8.46
  -5   7   5  142.10    7.84
   5  -7  -6  146.40   17.81
   5  -7  -6  150.50    8.28
  -5   7   6  155.00    8.51
   5  -7  -7  430.30   51.91
   5  -7  -7  334.70   18.11
  -5   7   7  317.30   17.16
   5  -7  -8   10.43    1.88
   5  -7  -8   14.52    1.13
  -5   7   8   14.73    1.17
   5  -7  -9   45.86    5.83
   5  -7  -9   50.96    2.99
  -5   7   9   50.83    2.97
   5  -7 -10   30.25    3.96
   5  -7 -10   23.85    1.58
  -5   7  10   21.11    1.48
   5  -7 -11   17.64    2.63
   5  -7 -11    8.48    0.88
  -5   7  11    9.36    0.96
   5  -7 -12   53.63    6.74
   5  -7 -12   47.69    2.84
  -5   7  12   48.70    2.88
   5  -7 -13  270.00   32.67
   5  -7 -13  278.20   15.07
   5  -7 -14    0.60    1.28
   5  -7 -14    3.55    0.73
   5  -7 -15   88.76   10.90
   5  -7 -15   92.97    5.19
   5  -7 -16    0.10    1.31
   5  -7 -16    1.12    0.70
   5  -7 -16    0.05    0.61
   5  -7 -17    1.01    1.33
   5  -7 -17    3.09    0.67
   5  -7 -17    2.73    0.71
   5  -7 -18    4.08    1.44
   5  -7 -18    2.14    0.68
   5  -7 -18    1.44    0.67
   5  -7 -19    4.99    1.56
   5  -7 -19    6.09    0.86
   5  -7 -19    4.79    0.81
   5  -7 -20    0.89    1.32
   5  -7 -20    0.20    0.82
   5  -7 -20   -0.13    0.71
   5  -7 -21   11.35    1.26
   5  -7 -21   10.73    1.23
  -6   6 -16    0.52    1.24
  -6   6 -15    6.49    1.69
  -6   6 -14   -0.06    1.26
  -6   6 -13   45.18    5.72
  -6   6 -12   39.72    5.07
  -6   6 -11   87.45   10.75
  -6   6 -10   12.44    2.00
  -6   6  -9  135.10   16.45
  -6   6  -8    0.35    1.25
   6  -6   8    0.01    0.22
  -6   6  -7    4.66    1.46
   6  -6   7    5.13    0.48
  -6   6  -7    4.03    0.42
  -6   6  -6   51.21    6.44
   6  -6   6   55.25    3.07
  -6   6  -6   56.02    3.09
  -6   6  -5  306.50   37.05
   6  -6   5  274.20   14.78
  -6   6  -5  299.30   16.10
  -6   6  -4    1.10    1.32
   6  -6   4    0.96    0.47
  -6   6  -4    1.86    0.45
   6  -6   3   16.04    2.46
  -6   6  -3   14.40    2.19
   6  -6   3   16.89    1.11
  -6   6  -3   18.40    1.23
   6  -6   2   78.18    9.63
  -6   6  -2   74.96    9.28
   6  -6   2   89.33    4.92
  -6   6  -2   86.95    4.80
   6  -6   1  351.20   42.41
  -6   6  -1  318.60   38.49
   6  -6   1  305.80   16.49
  -6   6  -1  303.10   16.35
   6  -6   0    2.79    1.34
  -6   6   0    3.54    1.38
   6  -6   0    3.67    0.63
  -6   6   0    3.70    0.68
   6  -6  -1   64.16    7.94
  -6   6   1   62.23    7.74
   6  -6  -1   50.59    2.92
  -6   6   1   54.28    3.12
   6  -6  -2    3.85    1.29
  -6   6   2    3.50    1.31
   6  -6  -2    5.03    0.75
  -6   6   2    5.86    0.75
   6  -6  -3  344.10   41.57
  -6   6   3  334.50   40.41
   6  -6  -3  297.80   16.11
  -6   6   3  304.80   16.49
   6  -6  -4    2.06    1.39
  -6   6   4   -0.15    1.40
   6  -6  -4    0.74    0.67
  -6   6   4   -0.14    0.63
   6  -6  -5  973.00  117.20
  -6   6   5  984.50  118.60
   6  -6  -5  903.90   48.52
  -6   6   5  925.50   49.66
   6  -6  -6  213.30   25.85
  -6   6   6  219.60   26.60
   6  -6  -6  219.30   11.95
  -6   6   6  232.00   12.62
  -6   6   7   16.80    1.30
   6  -6  -8   77.57    9.58
   6  -6  -8   87.10    4.90
  -6   6   8   90.61    5.08
   6  -6  -9   70.09    8.69
   6  -6  -9   53.73    3.13
  -6   6   9   58.57    3.37
   6  -6 -10    6.04    1.63
   6  -6 -10    7.04    0.86
  -6   6  10    7.67    0.87
   6  -6 -11  177.10   21.51
   6  -6 -11  178.90    9.77
  -6   6  11  178.90    9.78
   6  -6 -12   11.52    2.11
   6  -6 -12    9.84    0.96
   6  -6 -13  127.50   15.59
   6  -6 -13  139.40    7.68
   6  -6 -14   44.60    5.72
   6  -6 -14   53.37    3.14
   6  -6 -15   47.96    6.08
   6  -6 -15   34.13    2.10
   6  -6 -15   33.12    2.06
   6  -6 -16    5.70    1.57
   6  -6 -17   17.71    2.61
   6  -6 -17   16.82    1.22
   6  -6 -17   15.36    1.18
   6  -6 -18    0.22    1.27
   6  -6 -18    0.33    0.70
   6  -6 -18    0.08    0.65
   6  -6 -19    4.16    1.40
   6  -6 -19    4.57    0.77
   6  -6 -19    5.13    0.75
   6  -6 -20    1.12    1.41
   6  -6 -20    0.40    0.78
   6  -6 -20    0.26    0.65
   6  -6 -21   -0.95    1.22
   6  -6 -21    0.94    0.82
   6  -6 -21   -0.27    0.76
  -7   5 -15    0.75    1.37
  -7   5 -14    7.12    1.64
  -7   5 -13   15.24    2.48
  -7   5 -12   13.81    2.28
  -7   5 -11   19.76    2.89
  -7   5 -10  108.10   13.21
  -7   5  -9   15.10    2.43
  -7   5  -8  133.40   16.26
  -7   5  -7   24.21    3.35
  -7   5  -6    0.14    1.15
   7  -5   6    1.86    0.25
   7  -5   6    1.53    0.28
  -7   5  -5   33.71    4.44
   7  -5   5   31.92    1.81
   7  -5   4  269.70   32.64
  -7   5  -4  256.30   31.01
   7  -5   4  264.60   14.25
  -7   5  -4  256.00   13.78
   7  -5   3    0.08    1.28
  -7   5  -3    1.53    1.29
   7  -5   3    0.29    0.43
  -7   5  -3   -0.42    0.41
   7  -5   2    5.56    1.37
  -7   5  -2    4.12    1.47
   7  -5   2    6.66    0.66
  -7   5  -2    6.81    0.68
   7  -5   1    0.98    1.14
  -7   5  -1    3.06    1.29
   7  -5   1    2.01    0.52
  -7   5  -1    2.39    0.53
   7  -5   0  397.80   48.03
  -7   5   0  384.20   46.40
   7  -5   0  440.90   23.71
  -7   5   0  421.20   22.67
   7  -5  -1   94.42   11.57
  -7   5   1   90.79   11.16
   7  -5  -1   79.23    4.42
  -7   5   1   84.92    4.75
   7  -5  -2  179.90   21.81
  -7   5   2  188.90   22.91
   7  -5  -2  173.90    9.48
  -7   5   2  171.90    9.37
   7  -5  -3   29.10    3.91
  -7   5   3   26.87    3.69
   7  -5  -3   30.54    1.91
  -7   5   3   30.00    1.87
   7  -5  -4  216.10   26.18
  -7   5   4  212.70   25.78
   7  -5  -4  217.90   11.85
  -7   5   4  207.00   11.26
   7  -5  -5   28.56    3.82
  -7   5   5   30.82    4.09
   7  -5  -5   37.96    2.32
  -7   5   5   37.07    2.26
   7  -5  -6 2008.00  241.60
  -7   5   6 1978.00  238.10
   7  -5  -6 1996.00  106.90
  -7   5   6 2069.00  110.80
   7  -5  -7  423.10   51.07
  -7   5   7  394.10   47.58
   7  -5  -7  401.30   21.68
  -7   5   7  353.90   19.14
   7  -5  -8  218.20   26.44
   7  -5  -8  171.80    9.41
  -7   5   8  163.30    8.94
   7  -5  -9    7.90    1.83
   7  -5  -9    6.09    0.84
  -7   5   9    7.10    0.81
   7  -5 -10   67.52    8.43
   7  -5 -10   66.69    3.85
   7  -5 -11    1.09    1.44
   7  -5 -11    1.60    0.65
   7  -5 -12  179.60   21.84
   7  -5 -12  179.00    9.79
   7  -5 -13   19.31    2.96
   7  -5 -13   12.57    1.01
   7  -5 -13   15.29    1.20
   7  -5 -14   19.45    2.90
   7  -5 -14   27.69    1.80
   7  -5 -14   28.54    1.86
   7  -5 -15   20.12    2.91
   7  -5 -16   76.25    9.46
   7  -5 -16   70.37    4.00
   7  -5 -16   65.26    3.72
   7  -5 -17    0.90    1.25
   7  -5 -17    0.53    0.69
   7  -5 -17    0.89    0.58
   7  -5 -18   46.70    5.91
   7  -5 -18   44.89    2.65
   7  -5 -18   45.94    2.67
   7  -5 -19    5.65    1.53
   7  -5 -19    3.99    0.77
   7  -5 -19    3.40    0.66
   7  -5 -20    1.02    1.24
   7  -5 -20    0.64    0.64
   7  -5 -20   -0.20    0.72
   7  -5 -21    0.25    1.51
   7  -5 -21    1.10    0.85
   7  -5 -21    0.28    0.70
  -8   4 -15    4.67    1.58
  -8   4 -14   26.31    3.63
  -8   4 -13    0.86    1.35
  -8   4 -12   78.83    9.72
  -8   4 -11    5.85    1.45
  -8   4 -10   64.62    8.08
  -8   4  -9    4.80    1.59
  -8   4  -8   13.67    2.27
  -8   4  -7   11.57    2.04
  -8   4  -6   37.50    4.83
  -8   4  -5   12.29    2.07
   8  -4   4  246.20   29.80
  -8   4  -4  240.70   29.15
   8  -4   4  248.80   13.41
   8  -4   4  237.30   12.79
   8  -4   3   67.89    8.43
  -8   4  -3   67.92    8.45
   8  -4   3   67.36    3.71
   8  -4   3   70.19    3.86
   8  -4   2  190.60   23.14
  -8   4  -2  191.00   23.17
   8  -4   2  155.00    8.40
   8  -4   1   32.53    4.33
  -8   4  -1   33.92    4.48
   8  -4   1   25.00    1.54
   8  -4   0   50.18    6.38
  -8   4   0   47.16    5.99
   8  -4   0   39.59    2.31
   8  -4  -1    2.21    1.26
  -8   4   1    3.55    1.50
   8  -4  -1    3.67    0.62
  -8   4   1    2.70    0.60
   8  -4  -2  174.00   21.13
  -8   4   2  191.30   23.23
   8  -4  -2  171.70    9.36
  -8   4   2  182.60    9.95
   8  -4  -3    1.33    1.41
  -8   4   3    0.70    1.32
   8  -4  -3    2.06    0.62
  -8   4   3    0.50    0.58
   8  -4  -4  230.00   27.87
  -8   4   4  227.60   27.58
   8  -4  -4  241.30   13.09
  -8   4   4  264.00   14.29
   8  -4  -5    6.49    1.64
  -8   4   5    6.33    1.59
   8  -4  -5    6.38    0.82
  -8   4   5    5.93    0.77
   8  -4  -6  118.40   14.51
  -8   4   6  114.50   14.03
   8  -4  -6   79.64    4.50
   8  -4  -7  264.90   32.08
  -8   4   7  267.00   32.33
   8  -4  -7  300.90   16.30
   8  -4  -8  851.00  102.50
   8  -4  -8  841.60   45.19
   8  -4  -9  123.00   15.06
   8  -4  -9  109.50    6.10
   8  -4 -10    3.71    1.61
   8  -4 -10    4.92    0.81
   8  -4 -11   19.05    2.87
   8  -4 -11   17.54    1.34
   8  -4 -11   17.69    1.31
   8  -4 -12   11.32    2.22
   8  -4 -12    7.86    0.94
   8  -4 -12    7.50    0.86
   8  -4 -13   22.88    3.36
   8  -4 -13   25.22    1.69
   8  -4 -13   27.31    1.74
   8  -4 -14  200.50   24.35
   8  -4 -14  178.50    9.74
   8  -4 -14  179.80    9.81
   8  -4 -15    2.34    1.65
   8  -4 -15    5.46    0.83
   8  -4 -15    4.31    0.80
   8  -4 -16   57.03    7.20
   8  -4 -16   60.17    3.49
   8  -4 -16   61.82    3.50
   8  -4 -17   17.32    2.78
   8  -4 -17   17.78    1.36
   8  -4 -17   20.37    1.43
   8  -4 -18    3.89    1.41
   8  -4 -18    4.50    0.79
   8  -4 -18    4.75    0.75
   8  -4 -19   10.47    2.00
   8  -4 -19   13.05    1.11
   8  -4 -19   11.87    1.01
   8  -4 -20   21.09    2.99
   8  -4 -20   18.75    1.40
   8  -4 -20   19.81    1.37
   8  -4 -21    0.01    1.53
   8  -4 -21   -0.62    0.78
   8  -4 -21    0.54    0.71
   8  -4 -22    4.10    1.54
   8  -4 -22    4.88    1.06
   8  -4 -22    3.59    0.87
  -9   3 -14    2.56    1.44
  -9   3 -13   16.43    2.62
  -9   3 -12   -0.12    1.51
  -9   3 -11   27.82    3.81
  -9   3 -10   39.76    5.14
  -9   3  -9    7.10    1.77
  -9   3  -8   26.05    3.54
  -9   3  -7   26.29    3.56
  -9   3  -6    0.84    1.36
  -9   3  -5   15.63    2.53
   9  -3   4   30.39    4.11
  -9   3  -4   33.51    4.46
   9  -3   3   16.45    2.45
  -9   3  -3   14.85    2.46
   9  -3   3   24.24    1.43
   9  -3   3   21.60    1.28
   9  -3   2   64.98    8.15
  -9   3  -2   62.34    7.77
   9  -3   2   67.16    3.71
   9  -3   2   61.33    3.42
   9  -3   1  457.50   55.22
  -9   3  -1  442.50   53.40
   9  -3   1  397.70   21.38
   9  -3   1  362.60   19.51
   9  -3   0  181.90   22.08
  -9   3   0  181.40   22.04
   9  -3  -1   58.74    7.41
  -9   3   1   58.71    7.36
   9  -3  -1   54.11    3.08
   9  -3  -1   55.14    3.12
   9  -3  -2    2.69    1.66
  -9   3   2    4.47    1.52
   9  -3  -2    5.13    0.72
   9  -3  -2    5.62    0.68
   9  -3  -3   20.20    3.10
  -9   3   3   18.56    2.83
   9  -3  -3   18.23    1.27
   9  -3  -3   19.57    1.31
   9  -3  -4  131.70   16.13
  -9   3   4  129.60   15.80
   9  -3  -4  118.40    6.54
   9  -3  -4  123.10    6.79
   9  -3  -5   30.06    4.17
  -9   3   5   33.32    4.43
   9  -3  -5   23.64    1.59
   9  -3  -5   21.13    1.44
   9  -3  -6    4.77    1.61
  -9   3   6    4.16    1.55
   9  -3  -6    0.63    0.66
   9  -3  -6    1.37    0.60
   9  -3  -7  285.40   34.55
  -9   3   7  270.50   32.73
   9  -3  -7  262.80   14.27
   9  -3  -7  255.40   13.86
   9  -3  -8    8.81    1.88
  -9   3   8    7.45    1.77
   9  -3  -8    7.45    0.86
   9  -3  -8    6.45    0.84
   9  -3  -9  275.00   33.30
   9  -3  -9  351.10   18.98
   9  -3  -9  357.60   19.32
   9  -3 -10    5.64    1.80
   9  -3 -10    4.19    0.81
   9  -3 -10    4.72    0.79
   9  -3 -11   24.73    3.56
   9  -3 -11   31.50    1.99
   9  -3 -11   31.47    1.97
   9  -3 -12   19.38    2.99
   9  -3 -12   17.72    1.29
   9  -3 -12   21.18    1.48
   9  -3 -13   66.08    8.32
   9  -3 -13   51.04    3.03
   9  -3 -13   52.09    3.06
   9  -3 -14    0.60    1.53
   9  -3 -14    0.57    0.68
   9  -3 -14    1.36    0.64
   9  -3 -15   62.57    7.90
   9  -3 -15   68.33    3.92
   9  -3 -15   71.43    4.07
   9  -3 -16    4.86    1.83
   9  -3 -16    5.90    0.87
   9  -3 -16    4.62    0.74
   9  -3 -17   14.34    2.39
   9  -3 -17   19.02    1.40
   9  -3 -17   18.02    1.31
   9  -3 -18   12.99    2.39
   9  -3 -18    8.66    0.93
   9  -3 -18   10.84    0.92
   9  -3 -19    0.49    1.47
   9  -3 -19    0.78    0.72
   9  -3 -19    1.49    0.62
   9  -3 -20   -0.92    1.43
   9  -3 -20    0.27    0.75
   9  -3 -20    0.68    0.61
   9  -3 -21    5.63    1.81
   9  -3 -21    4.73    0.86
   9  -3 -21    5.36    0.87
   9  -3 -22    1.02    1.34
   9  -3 -22    0.39    0.89
   9  -3 -22    0.67    0.74
 -10   2 -13   18.34    2.69
 -10   2 -12   -1.16    1.46
 -10   2 -11   14.15    2.31
 -10   2 -10    1.00    1.52
 -10   2  -9  109.90   13.47
 -10   2  -8   -0.71    1.31
 -10   2  -7   -0.23    1.34
 -10   2  -6   30.56    4.05
 -10   2  -5    0.45    1.39
  10  -2   4   26.63    3.61
 -10   2  -4   28.89    3.92
  10  -2   3  147.40   17.97
 -10   2  -3  155.10   18.89
  10  -2   3  135.50    7.34
  10  -2   3  125.40    6.80
  10  -2   2   24.14    3.48
 -10   2  -2   24.67    3.41
  10  -2   2   22.65    1.37
  10  -2   2   22.70    1.40
  10  -2   1  366.90   44.36
 -10   2  -1  346.30   41.86
  10  -2   1  337.40   18.15
  10  -2   1  355.70   19.14
  10  -2   0   67.74    8.52
 -10   2   0   77.72    9.64
  10  -2   0   74.12    4.13
  10  -2   0   75.56    4.20
  10  -2  -1    8.22    1.96
 -10   2   1    9.59    1.84
  10  -2  -1    3.82    0.62
  10  -2  -1    3.59    0.61
  10  -2  -2    0.11    1.45
 -10   2   2    0.99    1.51
  10  -2  -2    1.14    0.54
  10  -2  -2    0.89    0.57
  10  -2  -3  166.90   20.35
 -10   2   3  152.70   18.60
  10  -2  -3  137.20    7.53
  10  -2  -3  135.40    7.41
  10  -2  -4   16.81    2.77
 -10   2   4   21.92    3.15
  10  -2  -4   17.65    1.27
  10  -2  -4   18.28    1.29
  10  -2  -5  268.50   32.53
 -10   2   5  275.90   33.39
  10  -2  -5  282.40   15.29
  10  -2  -5  273.60   14.81
  10  -2  -6    4.96    1.64
 -10   2   6    6.14    1.64
  10  -2  -6    3.01    0.73
  10  -2  -6    3.39    0.64
  10  -2  -7    6.72    1.90
 -10   2   7    5.85    1.79
  10  -2  -7    2.64    0.73
  10  -2  -7    3.50    0.70
  10  -2  -8    7.00    2.01
 -10   2   8    5.63    1.70
  10  -2  -8    4.03    0.78
  10  -2  -8    3.73    0.75
  10  -2  -9    9.13    2.13
  10  -2  -9   13.27    1.13
  10  -2  -9   15.20    1.20
  10  -2 -10   20.76    3.19
  10  -2 -10   23.26    1.59
  10  -2 -10   25.79    1.73
  10  -2 -11  208.00   25.30
  10  -2 -11  170.60    9.35
  10  -2 -11  169.10    9.24
  10  -2 -12    1.75    1.75
  10  -2 -12    3.03    0.75
  10  -2 -12    2.88    0.68
  10  -2 -13   36.76    4.94
  10  -2 -13   49.23    2.93
  10  -2 -13   46.59    2.76
  10  -2 -14   -0.25    1.79
  10  -2 -14    1.38    0.79
  10  -2 -14    0.92    0.67
  10  -2 -15    2.80    1.63
  10  -2 -15    0.95    0.63
  10  -2 -15    0.91    0.61
  10  -2 -16    0.34    1.62
  10  -2 -16    0.31    0.63
  10  -2 -16   -0.11    0.67
  10  -2 -17   17.45    2.83
  10  -2 -17   14.56    1.17
  10  -2 -17   15.38    1.14
  10  -2 -18    2.68    1.55
  10  -2 -18    0.20    0.68
  10  -2 -18    1.05    0.65
  10  -2 -19   14.12    2.42
  10  -2 -19   15.52    1.24
  10  -2 -19   13.47    1.08
  10  -2 -20    0.93    1.57
  10  -2 -20    0.12    0.67
  10  -2 -20   -0.35    0.64
  10  -2 -21   -1.31    1.60
  10  -2 -21    1.52    0.83
  10  -2 -21    0.51    0.70
  10  -2 -22    1.32    1.33
  10  -2 -22    1.50    0.85
  10  -2 -22    0.57    0.74
 -11   1 -13    3.46    1.43
 -11   1 -12   -0.95    1.35
 -11   1 -11   24.74    3.45
 -11   1 -10   37.22    4.88
 -11   1  -9    2.74    1.46
 -11   1  -8  133.40   16.29
 -11   1  -7    5.55    1.76
 -11   1  -6    1.03    1.46
 -11   1  -5  159.90   19.46
  11  -1   4  154.00   18.82
 -11   1  -4  133.00   16.24
  11  -1   3   12.81    2.32
 -11   1  -3   12.03    2.27
  11  -1   3   16.03    1.01
  11  -1   3   17.10    1.06
  11  -1   2  105.70   13.00
 -11   1  -2  112.20   13.80
  11  -1   2  100.10    5.46
  11  -1   2  105.00    5.74
  11  -1   1   -1.80    1.32
 -11   1  -1    0.08    1.50
  11  -1   1    1.58    0.48
  11  -1   1    0.79    0.51
  11  -1   0  231.60   28.09
 -11   1   0  219.90   26.68
  11  -1   0  232.30   12.56
  11  -1   0  236.30   12.77
  11  -1  -1  284.10   34.38
 -11   1   1  269.10   32.57
  11  -1  -1  264.30   14.28
  11  -1  -1  274.30   14.82
  11  -1  -2   39.65    5.14
 -11   1   2   40.78    5.33
  11  -1  -2   34.12    2.06
  11  -1  -2   32.55    1.97
  11  -1  -3  159.00   19.36
 -11   1   3  158.50   19.29
  11  -1  -3  183.00    9.98
  11  -1  -3  177.40    9.68
  11  -1  -4   88.42   10.99
 -11   1   4   91.68   11.30
  11  -1  -4   82.86    4.66
  11  -1  -4   88.33    4.92
  11  -1  -5    9.18    2.22
 -11   1   5   11.13    2.06
  11  -1  -5    9.66    0.96
  11  -1  -5   10.14    0.93
  11  -1  -6   86.77   10.82
 -11   1   6   90.76   11.21
  11  -1  -6   87.50    4.91
  11  -1  -6   95.03    5.29
  11  -1  -7   44.16    5.83
 -11   1   7   44.58    5.78
  11  -1  -7   43.15    2.60
  11  -1  -7   41.66    2.51
  11  -1  -8    2.82    2.03
 -11   1   8    5.61    1.75
  11  -1  -8    2.15    0.66
  11  -1  -8    1.27    0.69
  11  -1  -9   16.67    2.78
 -11   1   9   17.40    2.68
  11  -1  -9   20.43    1.48
  11  -1  -9   20.53    1.48
  11  -1 -10    7.30    1.92
  11  -1 -11   69.53    8.77
  11  -1 -11   73.95    4.22
  11  -1 -11   73.16    4.16
  11  -1 -12   95.24   11.79
  11  -1 -12   82.22    4.66
  11  -1 -12   79.31    4.48
  11  -1 -13    3.29    1.78
  11  -1 -13    2.59    0.76
  11  -1 -13    2.21    0.66
  11  -1 -14    1.87    1.63
  11  -1 -14    2.46    0.80
  11  -1 -14    0.99    0.68
  11  -1 -15   14.13    2.61
  11  -1 -15   16.96    1.38
  11  -1 -15   17.74    1.29
  11  -1 -16   16.25    2.76
  11  -1 -16   13.08    1.17
  11  -1 -16   12.53    1.04
  11  -1 -17    5.98    1.80
  11  -1 -17    6.90    0.90
  11  -1 -17    7.84    0.85
  11  -1 -18   13.64    2.32
  11  -1 -18   12.16    1.13
  11  -1 -18   14.08    1.10
  11  -1 -19    3.40    1.71
  11  -1 -19   -0.48    0.76
  11  -1 -19    0.95    0.66
  11  -1 -20    4.74    1.57
  11  -1 -20    4.35    0.90
  11  -1 -20    5.64    0.78
  11  -1 -21    3.49    1.49
  11  -1 -21    2.75    0.83
  11  -1 -21    1.25    0.71
  11  -1 -22   -2.19    1.41
  11  -1 -22   -0.88    0.80
  11  -1 -22    0.51    0.83
 -12   0 -12   17.41    2.63
 -12   0 -11   -1.07    1.51
 -12   0 -10   30.87    4.28
 -12   0  -9   -0.47    1.51
 -12   0  -8    1.94    1.65
 -12   0  -7    1.57    1.71
 -12   0  -6  142.50   17.37
 -12   0  -5    0.87    1.50
 -12   0  -4  162.80   19.80
  12   0   3    3.78    1.91
 -12   0  -3    0.71    1.51
  12   0   3    2.12    0.45
  12   0   3    1.20    0.45
  12   0   2    4.28    1.74
 -12   0  -2    5.80    1.73
  12   0   2    2.17    0.53
  12   0   2    1.63    0.51
  12   0   1   -1.27    1.75
 -12   0  -1    0.20    1.64
  12   0   1    0.27    0.50
  12   0   1    0.16    0.49
  12   0   0   11.91    2.27
 -12   0   0   12.17    2.19
  12   0   0    8.08    0.76
  12   0   0    8.55    0.80
  12   0  -1    0.42    1.72
 -12   0   1    0.67    1.60
  12   0  -1    1.14    0.55
  12   0  -1    1.80    0.62
  12   0  -2  628.40   75.83
 -12   0   2  619.40   74.70
  12   0  -2  592.70   31.84
  12   0  -2  596.90   32.07
  12   0  -3    1.30    1.78
 -12   0   3    0.63    1.44
  12   0  -3    0.70    0.66
  12   0  -3    1.42    0.60
  12   0  -4   43.49    5.74
 -12   0   4   47.05    6.07
  12   0  -4   66.23    3.78
  12   0  -4   63.56    3.63
  12   0  -5    1.30    1.78
 -12   0   5    0.51    1.42
  12   0  -5    1.31    0.61
  12   0  -5    0.08    0.61
  12   0  -6   13.17    2.48
 -12   0   6   19.76    3.03
  12   0  -6   10.10    1.02
  12   0  -6    8.66    0.89
  12   0  -7   -1.07    1.79
 -12   0   7   -0.73    1.69
  12   0  -7    0.46    0.59
  12   0  -7    0.30    0.62
  12   0  -8   70.37    8.83
 -12   0   8   70.47    8.82
  12   0  -9   -3.35    2.02
 -12   0   9    0.16    1.58
  12   0  -9    1.18    0.73
  12   0  -9    0.85    0.66
  12   0 -10    4.09    1.83
  12   0 -10    7.84    0.94
  12   0 -10   10.16    0.96
  12   0 -11    0.16    1.90
  12   0 -11    1.25    0.73
  12   0 -11    0.02    0.55
  12   0 -12   10.45    2.58
  12   0 -12   17.52    1.37
  12   0 -12   18.68    1.38
  12   0 -13   -0.95    1.83
  12   0 -13    0.00    0.68
  12   0 -13    0.49    0.71
  12   0 -14   58.21    7.51
  12   0 -14   43.23    2.63
  12   0 -14   43.34    2.58
  12   0 -15    0.12    1.70
  12   0 -15    0.21    0.68
  12   0 -15    1.12    0.69
  12   0 -16   27.92    3.96
  12   0 -16   35.04    2.18
  12   0 -16   33.44    2.05
  12   0 -17   -0.89    1.72
  12   0 -17   -0.02    0.68
  12   0 -17   -0.08    0.66
  12   0 -18    3.21    1.92
  12   0 -18    3.70    0.70
  12   0 -18    4.13    0.78
  12   0 -19   -0.65    1.62
  12   0 -20   26.50    3.82
  12   0 -20   22.90    1.59
  12   0 -20   24.91    1.62
  12   0 -21    0.34    1.59
  12   0 -21    0.49    0.71
  12   0 -21    0.39    0.76
  12   0 -22    1.25    1.50
  12   0 -22    3.26    0.94
  12   0 -22    2.31    0.78
 -13  -1 -11    9.26    2.14
 -13  -1 -10    0.81    1.89
 -13  -1  -9    1.35    1.68
 -13  -1  -8   30.70    4.19
 -13  -1  -7    1.08    1.65
 -13  -1  -6   61.43    7.72
 -13  -1  -5   96.40   11.88
 -13  -1  -4   34.17    4.61
  13   1   4   21.06    1.24
  13   1   4   20.17    1.20
  13   1   3   29.75    4.05
 -13  -1  -3   31.35    4.24
  13   1   3   30.78    1.79
  13   1   3   28.95    1.70
  13   1   2   56.19    7.12
 -13  -1  -2   52.45    6.68
  13   1   2   49.39    2.80
  13   1   2   50.33    2.86
  13   1   1   24.29    3.54
 -13  -1  -1   22.92    3.29
  13   1   1   16.96    1.19
  13   1   1   16.97    1.16
  13   1   0   62.63    7.89
 -13  -1   0   62.28    7.87
  13   1   0   70.77    3.97
  13   1   0   68.28    3.85
  13   1  -1   38.05    5.03
 -13  -1   1   38.85    5.13
  13   1  -1   38.08    2.29
  13   1  -1   39.59    2.36
  13   1  -2    5.80    1.62
 -13  -1   2    4.26    1.71
  13   1  -2    2.14    0.66
  13   1  -3  160.90   19.66
 -13  -1   3  151.30   18.47
  13   1  -3  160.80    8.78
  13   1  -4   22.76    3.50
 -13  -1   4   24.77    3.57
  13   1  -4   20.59    1.43
  13   1  -5    1.73    2.03
 -13  -1   5    0.99    1.68
  13   1  -5    0.90    0.69
  13   1  -6   77.10    9.76
 -13  -1   6   87.52   10.86
  13   1  -6   81.20    4.58
  13   1  -7   79.65   10.02
 -13  -1   7   86.87   10.80
  13   1  -7   80.08    4.53
  13   1  -8    0.65    1.83
 -13  -1   8    0.78    1.76
  13   1  -8    2.09    0.63
  13   1  -9   29.69    4.19
 -13  -1   9   26.18    3.83
  13   1  -9   29.42    1.90
  13   1 -10   67.35    8.52
  13   1 -10   47.59    2.83
  13   1 -11   -2.91    1.87
  13   1 -11    1.98    0.77
  13   1 -12  105.60   13.05
  13   1 -12   99.55    5.54
  13   1 -12  101.40    5.68
  13   1 -13    0.14    1.86
  13   1 -13    1.10    0.79
  13   1 -13    1.19    0.76
  13   1 -14   28.47    4.04
  13   1 -15   17.09    2.90
  13   1 -15   16.19    1.29
  13   1 -15   15.03    1.23
  13   1 -16    0.12    1.84
  13   1 -16    0.08    0.77
  13   1 -16    0.48    0.74
  13   1 -17   11.54    2.39
  13   1 -17   12.25    1.08
  13   1 -17   13.27    1.04
  13   1 -18   19.67    3.08
  13   1 -18   16.22    1.25
  13   1 -18   16.65    1.26
  13   1 -19    1.15    1.77
  13   1 -19    0.58    0.75
  13   1 -19    0.13    0.55
  13   1 -20   12.23    2.32
  13   1 -20   15.13    1.25
  13   1 -20   14.38    1.13
  13   1 -21   13.77    2.38
  13   1 -21   12.84    1.11
  13   1 -21   11.10    1.03
  13   1 -22   -1.46    1.60
  13   1 -22    0.42    0.74
  13   1 -22   -1.03    0.92
 -14  -2 -10    0.92    1.47
 -14  -2  -9   21.11    3.26
 -14  -2  -8    0.38    2.01
 -14  -2  -7   22.78    3.42
 -14  -2  -6    7.67    2.20
 -14  -2  -5   49.49    6.36
 -14  -2  -4    1.93    1.64
  14   2   4    1.11    0.46
  14   2   4    0.63    0.43
  14   2   3   67.08    8.45
 -14  -2  -3   68.66    8.62
  14   2   3   52.88    3.00
  14   2   3   50.81    2.87
  14   2   2    2.45    1.75
 -14  -2  -2    0.65    1.74
  14   2   2    1.38    0.55
  14   2   2    1.40    0.59
  14   2   1  125.30   15.44
 -14  -2  -1  125.80   15.42
  14   2   1  135.00    7.38
  14   2   1  134.00    7.32
  14   2   0    4.94    2.10
 -14  -2   0    5.55    1.71
  14   2   0    3.77    0.72
  14   2   0    3.25    0.65
  14   2  -1   39.91    5.39
 -14  -2   1   41.55    5.44
  14   2  -1   46.43    2.72
  14   2  -2   14.56    2.64
 -14  -2   2   11.23    2.23
  14   2  -2   13.21    1.06
  14   2  -3   32.01    4.53
 -14  -2   3   31.47    4.29
  14   2  -3   19.78    1.39
  14   2  -4    0.91    1.74
 -14  -2   4   -1.27    1.62
  14   2  -4    0.29    0.62
  14   2  -5   63.28    8.04
 -14  -2   5   64.22    8.09
  14   2  -5   63.13    3.64
  14   2  -6   12.33    2.47
 -14  -2   6   10.93    2.28
  14   2  -6   13.35    1.13
  14   2  -7  110.90   13.72
 -14  -2   7  119.10   14.65
  14   2  -7  125.10    6.91
  14   2  -8    3.36    2.14
 -14  -2   8    5.83    2.01
  14   2  -8    3.97    0.70
  14   2  -9    2.73    1.90
 -14  -2   9    6.31    2.17
  14   2  -9    6.33    0.86
  14   2 -10   78.39    9.97
  14   2 -10   73.82    4.20
  14   2 -11  104.70   13.05
  14   2 -11   96.10    5.39
  14   2 -12    7.85    2.74
  14   2 -12   10.92    1.12
  14   2 -13   73.30    9.42
  14   2 -13   77.25    4.36
  14   2 -14    0.44    2.14
  14   2 -14   -0.22    0.69
  14   2 -14    1.85    0.73
  14   2 -15    2.12    1.96
  14   2 -15    5.20    0.88
  14   2 -15    3.83    0.81
  14   2 -16   -0.39    1.66
  14   2 -16    1.16    0.78
  14   2 -16   -0.74    0.73
  14   2 -17    0.37    1.94
  14   2 -17    1.69    0.78
  14   2 -17    1.69    0.77
  14   2 -18   -1.15    1.97
  14   2 -18   -1.19    0.72
  14   2 -18   -0.13    0.62
  14   2 -19   38.97    5.21
  14   2 -19   34.84    2.13
  14   2 -19   35.66    2.17
  14   2 -20   -1.16    2.03
  14   2 -20   -0.37    0.77
  14   2 -20    1.43    0.70
  14   2 -21    2.88    1.78
  14   2 -21    7.36    0.97
  14   2 -21    8.08    0.87
  14   2 -22    0.98    1.46
  14   2 -22   -0.84    0.67
  14   2 -22   -0.20    0.80
 -15  -3  -8    1.82    1.64
 -15  -3  -7   18.28    3.08
 -15  -3  -6   -0.27    1.68
 -15  -3  -5   37.18    4.98
 -15  -3  -4   11.54    2.36
  15   3   4   12.50    0.92
  15   3   4   11.71    0.88
 -15  -3  -3   21.16    3.23
  15   3   3   23.80    1.50
  15   3   3   26.09    1.63
  15   3   2   12.38    2.42
 -15  -3  -2   11.86    2.23
  15   3   2   10.01    0.91
  15   3   2    9.88    0.88
  15   3   1   12.39    2.25
 -15  -3  -1   13.23    2.45
  15   3   1   17.66    1.27
  15   3   1   16.38    1.20
  15   3   0   11.88    2.18
 -15  -3   0   11.70    2.29
  15   3   0   15.56    1.15
  15   3  -1   28.62    4.02
 -15  -3   1   30.46    4.29
  15   3  -1   26.38    1.71
  15   3  -2    1.06    1.97
 -15  -3   2    1.42    1.60
  15   3  -2    3.37    0.69
  15   3  -3   65.20    8.33
 -15  -3   3   57.94    7.42
  15   3  -3   59.12    3.40
  15   3  -4   27.33    4.06
 -15  -3   4   23.36    3.55
  15   3  -4   21.64    1.48
  15   3  -5   30.39    4.53
 -15  -3   5   30.89    4.25
  15   3  -5   34.25    2.13
  15   3  -6    9.27    2.75
 -15  -3   6    4.32    2.02
  15   3  -6    9.11    0.97
  15   3  -7   18.37    3.40
 -15  -3   7   19.22    3.23
  15   3  -7   27.75    1.80
  15   3  -8    1.32    2.33
 -15  -3   8    3.38    1.88
  15   3  -8    2.71    0.76
  15   3  -9   41.01    5.52
 -15  -3   9   38.74    5.28
  15   3  -9   41.91    2.52
  15   3 -10   10.83    2.56
  15   3 -10    8.11    0.94
  15   3 -12   30.23    4.43
  15   3 -12   29.05    1.88
  15   3 -13    4.60    2.31
  15   3 -13    3.02    0.70
  15   3 -14   19.74    3.47
  15   3 -14   23.63    1.58
  15   3 -15   19.44    3.45
  15   3 -15   18.74    1.37
  15   3 -16    1.70    2.25
  15   3 -16    1.30    0.79
  15   3 -16    2.66    0.73
  15   3 -17   10.17    2.37
  15   3 -17   10.80    0.90
  15   3 -17    9.32    1.01
  15   3 -18   -1.18    1.85
  15   3 -18    1.20    0.75
  15   3 -18    1.40    0.63
  15   3 -19    2.92    2.18
  15   3 -19    1.41    0.69
  15   3 -19    0.31    0.77
  15   3 -20    5.17    2.06
  15   3 -20    5.61    0.82
  15   3 -20    5.33    0.91
  15   3 -21    4.39    1.83
  15   3 -21    3.43    0.70
  15   3 -21    3.49    0.85
 -16  -4  -7    0.79    1.71
 -16  -4  -6   23.41    3.53
 -16  -4  -5    5.14    1.82
 -16  -4  -4   19.37    3.17
 -16  -4  -3    1.35    1.58
  16   4   3    2.69    0.68
  16   4   3    2.61    0.73
  16   4   2   20.61    3.21
 -16  -4  -2   19.90    3.13
  16   4   2   27.19    1.74
  16   4   2   25.43    1.64
  16   4   1   -0.44    1.62
 -16  -4  -1    3.06    1.70
  16   4   1    1.10    0.64
  16   4   1    0.30    0.63
  16   4   0    2.57    1.88
 -16  -4   0    1.60    1.69
  16   4   0    1.40    0.66
  16   4  -1   12.72    2.40
 -16  -4   1   14.89    2.72
  16   4  -1   10.99    0.99
  16   4  -2   77.42    9.77
 -16  -4   2   76.14    9.53
  16   4  -2   71.64    4.05
  16   4  -3    2.77    1.91
 -16  -4   3    1.35    1.84
  16   4  -3    0.50    0.67
  16   4  -4    9.92    2.42
 -16  -4   4   11.81    2.50
  16   4  -4   14.01    1.09
 -16  -4   4   14.20    1.13
  16   4  -5    1.81    2.15
 -16  -4   5    4.39    2.02
  16   4  -5    3.50    0.75
 -16  -4   5    2.99    0.75
  16   4  -6   -0.69    2.12
 -16  -4   6    1.41    2.00
  16   4  -6   -0.58    0.64
 -16  -4   6   -1.02    0.68
  16   4  -7    2.45    2.34
 -16  -4   7    1.01    2.04
  16   4  -7    1.18    0.68
 -16  -4   7    0.44    0.72
  16   4  -8   47.70    6.46
 -16  -4   8   43.27    5.75
  16   4  -8   39.14    2.38
 -16  -4   8   43.47    2.61
  16   4  -9    3.24    2.36
 -16  -4   9    3.07    2.03
  16   4  -9    0.81    0.73
 -16  -4   9    0.04    0.62
  16   4 -10   47.37    6.42
  16   4 -10   45.16    2.68
  16   4 -11    5.59    2.41
  16   4 -11    5.55    0.83
  16   4 -12    7.47    2.74
  16   4 -12    4.17    0.78
  16   4 -13    8.89    2.80
  16   4 -13    9.08    0.98
  16   4 -14   27.92    4.42
  16   4 -14   15.28    1.23
  16   4 -15    1.95    2.04
  16   4 -15   -0.04    0.64
  16   4 -16   32.94    4.62
  16   4 -16   33.59    2.04
  16   4 -17    4.42    1.91
  16   4 -17    3.33    0.79
  16   4 -17    3.94    0.79
  16   4 -18    1.33    2.23
  16   4 -18    1.81    0.72
  16   4 -18    2.82    0.71
  16   4 -19    1.50    2.16
  16   4 -20    2.47    1.93
  16   4 -20    1.85    0.75
  16   4 -20    2.39    0.72
  16   4 -21   -0.65    1.85
  16   4 -21    0.28    0.72
  16   4 -21   -0.44    0.73
 -17  -5  -6    4.16    1.99
 -17  -5  -5    8.36    1.89
 -17  -5  -4    3.25    1.88
  17   5   4    0.84    0.72
  17   5   4    1.97    0.75
 -17  -5  -3    3.15    1.89
  17   5   3    3.81    0.82
  17   5   3    4.01    0.84
 -17  -5  -2    5.02    1.92
  17   5   2    2.98    0.81
  17   5   2    3.91    0.87
  17   5   1    5.43    2.06
 -17  -5  -1    1.22    1.94
  17   5   1    4.59    0.77
  17   5   0   27.15    3.93
 -17  -5   0   29.83    4.20
  17   5   0   27.37    1.75
  17   5  -1   13.82    2.74
 -17  -5   1    9.61    2.25
  17   5  -1    9.90    0.95
  17   5  -2    0.53    1.90
 -17  -5   2    4.57    2.00
  17   5  -2    4.24    0.75
  17   5  -3   44.92    6.01
 -17  -5   3   48.49    6.31
  17   5  -3   46.49    2.73
 -17  -5   3   50.42    2.98
  17   5  -4   42.02    5.67
 -17  -5   4   41.00    5.42
  17   5  -4   40.15    2.42
 -17  -5   4   39.58    2.40
  17   5  -5    9.55    2.69
 -17  -5   5   10.44    2.21
  17   5  -5   13.06    1.13
 -17  -5   5   12.99    1.07
  17   5  -6   51.05    6.76
 -17  -5   6   53.97    6.98
  17   5  -6   54.70    3.17
 -17  -5   6   59.06    3.41
  17   5  -7    2.26    2.24
 -17  -5   7    2.00    1.98
  17   5  -7    1.03    0.67
 -17  -5   7    0.87    0.72
  17   5  -8   15.97    3.24
 -17  -5   8   21.06    3.33
  17   5  -8   23.28    1.59
 -17  -5   8   24.01    1.60
  17   5  -9    2.93    2.33
 -17  -5   9   -0.28    1.72
  17   5  -9    1.85    0.70
 -17  -5   9    1.50    0.73
  17   5 -10   16.87    3.20
  17   5 -10   11.68    1.08
 -17  -5  10   11.79    1.01
  17   5 -11    8.27    2.63
  17   5 -11    9.23    0.94
 -17  -5  11   12.45    1.10
  17   5 -12   15.23    2.99
  17   5 -12   20.62    1.44
  17   5 -13    1.92    2.31
  17   5 -13    0.25    0.71
  17   5 -14   41.34    5.71
  17   5 -14   46.05    2.70
  17   5 -15    8.63    2.37
  17   5 -15    4.93    0.81
  17   5 -16    1.16    2.30
  17   5 -16    0.16    0.72
  17   5 -17    1.39    2.37
  17   5 -17    3.22    0.65
  17   5 -18    6.87    2.38
  17   5 -18    6.62    0.82
  17   5 -18    5.38    0.85
  17   5 -19    1.63    2.23
  17   5 -19   -0.13    0.64
  17   5 -19    0.63    0.70
  17   5 -20    1.20    1.80
  17   5 -20    3.38    0.73
  17   5 -20    2.57    0.81
 -18  -6  -4    1.44    2.12
  18   6   4    1.81    0.90
  18   6   4    2.05    0.89
 -18  -6  -3    8.73    2.14
 -18  -6  -2    0.41    1.91
  18   6   2    1.26    0.82
  18   6   2    2.71    0.90
 -18  -6  -1    9.91    2.14
  18   6   1   12.60    1.18
  18   6   0    5.59    1.97
 -18  -6   0    8.86    2.21
  18   6   0    9.54    1.03
  18   6  -1   20.97    3.30
 -18  -6   1   23.61    3.56
  18   6  -1   25.12    1.63
  18   6  -2    2.92    2.14
 -18  -6   2    2.04    1.85
  18   6  -2    2.22    0.74
  18   6  -3   -0.56    1.91
 -18  -6   3    0.03    1.88
  18   6  -3    0.85    0.69
 -18  -6   3    0.82    0.66
  18   6  -4    0.28    2.12
 -18  -6   4   -0.43    1.92
  18   6  -4    0.49    0.64
 -18  -6   4    0.86    0.70
  18   6  -5    6.17    2.37
 -18  -6   5    4.85    2.16
  18   6  -5    5.84    0.77
 -18  -6   5    5.65    0.80
  18   6  -6    1.72    2.28
 -18  -6   6   -0.42    1.96
  18   6  -6    3.64    0.75
 -18  -6   6    1.68    0.72
  18   6  -7   42.84    5.78
 -18  -6   7   40.29    5.36
  18   6  -7   38.43    2.31
 -18  -6   7   40.36    2.42
  18   6  -8   22.68    3.74
 -18  -6   8   19.65    3.11
  18   6  -8   26.49    1.73
 -18  -6   8   26.59    1.73
  18   6  -9   -0.15    2.41
  18   6  -9    3.97    0.68
 -18  -6   9    5.00    0.77
  18   6 -10    0.17    2.35
  18   6 -10    2.53    0.74
 -18  -6  10    2.52    0.71
  18   6 -11   13.11    2.96
  18   6 -11    8.16    0.89
 -18  -6  11    8.28    0.86
  18   6 -12    0.98    2.20
  18   6 -12   -0.10    0.65
 -18  -6  12    0.71    0.67
  18   6 -13   14.42    2.99
  18   6 -13   16.42    1.20
  18   6 -14    2.00    2.20
  18   6 -14    1.12    0.69
  18   6 -15    9.75    2.87
  18   6 -15    8.94    0.90
  18   6 -16    3.65    2.74
  18   6 -16    1.92    0.68
  18   6 -17   -1.02    2.68
  18   6 -17    0.43    0.65
  18   6 -18    3.08    2.21
  18   6 -18    0.06    0.60
  18   6 -19    4.41    1.94
  18   6 -19    5.36    0.79
  18   6 -19    4.73    0.84
 -19  -7  -2    4.07    2.32
  19   7   2    3.98    0.91
  19   7   2    2.39    0.91
 -19  -7  -1    4.97    1.87
  19   7   1    4.74    0.88
  19   7   1    5.09    1.00
 -19  -7   0   -0.16    2.09
  19   7   0    0.28    0.86
  19   7  -1    7.74    2.25
 -19  -7   1    8.64    2.27
  19   7  -1    7.28    0.96
  19   7  -2    2.16    2.12
 -19  -7   2    3.36    2.05
  19   7  -2    1.46    0.76
  19   7  -3    5.97    2.24
 -19  -7   3    4.28    2.07
  19   7  -3    5.97    0.89
  19   7  -4    0.36    2.11
 -19  -7   4    0.86    2.08
  19   7  -4    0.82    0.71
 -19  -7   4    0.37    0.68
  19   7  -5   -0.46    2.40
 -19  -7   5    1.47    2.31
  19   7  -5    4.69    0.76
 -19  -7   5    5.32    0.78
  19   7  -6    1.52    2.34
 -19  -7   6    1.15    2.12
  19   7  -6    0.04    0.59
 -19  -7   6    0.32    0.70
  19   7  -7    7.18    2.80
 -19  -7   7    9.16    2.38
  19   7  -7    3.60    0.71
 -19  -7   7    2.45    0.70
  19   7  -8    5.33    2.61
 -19  -7   8    6.58    2.03
  19   7  -8    4.87    0.74
 -19  -7   8    3.68    0.74
  19   7  -9   35.49    5.26
  19   7  -9   34.38    2.11
 -19  -7   9   33.76    2.08
  19   7 -10   -1.51    2.65
  19   7 -10    0.98    0.61
 -19  -7  10    0.94    0.62
  19   7 -11    6.04    2.70
  19   7 -11    9.14    0.89
 -19  -7  11    8.79    0.93
  19   7 -12    2.74    2.79
  19   7 -12    1.36    0.65
 -19  -7  12    0.75    0.60
  19   7 -13   -0.46    2.55
  19   7 -13   -0.25    0.63
  19   7 -14    0.88    2.68
  19   7 -14    0.64    0.65
  19   7 -15   20.30    3.69
  19   7 -15   13.61    1.15
  19   7 -16    0.70    2.42
  19   7 -16    1.12    0.77
  19   7 -17    7.49    2.59
  19   7 -17    5.91    0.75
  19   7 -18   -0.90    2.29
  19   7 -18    0.18    0.62
  20   8  -1    4.08    2.01
 -20  -8   1    3.31    2.49
  20   8  -1    4.63    0.98
  20   8  -2    3.20    2.12
 -20  -8   2    6.30    2.52
  20   8  -2    7.45    1.00
  20   8  -3    2.24    2.03
 -20  -8   3    3.65    2.42
  20   8  -3    2.68    0.78
  20   8  -4    6.38    2.54
 -20  -8   4    4.21    2.44
  20   8  -4    6.46    0.92
 -20  -8   4    7.36    0.84
  20   8  -5   -1.29    2.12
 -20  -8   5    1.30    2.09
  20   8  -5    2.81    0.75
 -20  -8   5    3.25    0.76
  20   8  -6    1.22    2.54
 -20  -8   6    0.90    2.07
  20   8  -6    0.70    0.69
 -20  -8   6    0.54    0.67
  20   8  -7    2.53    2.44
 -20  -8   7    0.73    2.18
  20   8  -7    3.42    0.79
 -20  -8   7    6.69    0.85
  20   8  -8    4.01    2.61
  20   8  -8    6.50    0.84
 -20  -8   8    4.97    0.81
  20   8  -9   -1.99    2.43
  20   8  -9    0.63    0.67
 -20  -8   9    0.02    0.69
  20   8 -10    8.12    2.89
  20   8 -10    9.47    0.93
 -20  -8  10    8.31    0.86
  20   8 -11   -0.17    2.74
  20   8 -11    4.31    0.71
 -20  -8  11    0.06    0.63
  20   8 -12    9.70    2.80
  20   8 -12    5.13    0.75
 -20  -8  12    5.81    0.73
  20   8 -13    5.82    2.53
  20   8 -13    5.70    0.77
 -20  -8  13    7.91    0.87
  20   8 -14    0.26    2.48
  20   8 -14    0.54    0.66
  20   8 -15   -2.10    2.29
  20   8 -15    0.03    0.62
  20   8 -16    2.02    2.07
  20   8 -16    6.98    0.80
  20   8 -17    0.19    2.11
  20   8 -17   -0.31    0.64
  21   9  -4    0.35    2.49
 -21  -9   4    0.16    2.39
  21   9  -4    1.31    0.88
  21   9  -5    2.45    2.61
 -21  -9   5   -0.59    2.11
  21   9  -5    1.72    0.92
 -21  -9   5    0.64    0.65
  21   9  -6    6.72    2.49
 -21  -9   6    2.22    2.09
  21   9  -6    5.63    0.92
 -21  -9   6    5.91    0.86
  21   9  -7   -0.61    2.66
  21   9  -7   -0.53    0.67
 -21  -9   7    0.05    0.67
  21   9  -8    2.94    2.29
  21   9  -8    3.94    0.77
 -21  -9   8    4.78    0.73
  21   9  -9   -1.34    2.29
  21   9  -9    0.40    0.64
 -21  -9   9    0.23    0.56
  21   9 -10    0.43    2.22
  21   9 -10    0.82    0.59
 -21  -9  10    0.79    0.62
  21   9 -11   -2.84    2.45
  21   9 -11   -0.28    0.62
 -21  -9  11    0.16    0.65
  21   9 -12   -1.76    2.39
  21   9 -12    0.57    0.64
 -21  -9  12   -0.35    0.56
  21   9 -13    0.28    2.27
  21   9 -13    0.19    0.62
 -21  -9  13    1.68    0.65
  21   9 -14    1.15    2.39
  21   9 -14    5.57    0.79
  -7 -21   9    2.36    0.80
   7  21  -9    0.98    0.59
  -7 -21   8    0.96    0.73
   7  21  -8    1.13    0.59
  -7 -21   7    3.54    0.90
   7  21  -7    4.77    0.71
  -7 -21   6    7.59    0.98
   7  21  -6    5.38    0.76
  -7 -21   5    0.17    0.72
   7  21  -5    0.17    0.64
  -7 -21   4    6.63    0.87
   7  21  -4    6.48    0.85
  -7 -21   3    0.01    0.68
   7  21  -3    0.84    0.75
  -7 -21   2    5.62    0.88
   7  21  -2    5.65    0.74
  -7 -21   1    8.84    1.00
   7  21  -1    9.43    0.90
  -7 -21   0    2.49    0.71
   7  21   0    3.26    0.70
  -7 -21  -1    0.75    0.73
   7  21   1    1.81    0.68
  -7 -21  -2   15.48    1.27
   7  21   2   15.08    1.17
  -7 -21  -3    0.96    0.84
   7  21   3    1.47    0.84
   6  20 -11    5.34    2.11
   6  20 -11    4.12    2.12
  -6 -20  11    4.41    0.87
   6  20 -11    5.73    0.74
   6  20 -10   -1.03    1.92
   6  20 -10    0.54    2.06
  -6 -20  10   -1.10    0.71
   6  20 -10   -0.10    0.67
   6  20  -9    1.10    1.53
   6  20  -9    2.68    1.66
  -6 -20   9    1.57    0.79
   6  20  -9    1.93    0.71
  -6 -20   8    0.93    0.76
   6  20  -8    0.18    0.66
  -6 -20   7    0.39    0.78
   6  20  -7    1.13    0.66
  -6 -20   6    2.84    0.80
   6  20  -6    1.50    0.60
  -6 -20   5   37.12    2.27
   6  20  -5   35.81    2.13
  -6 -20   4    1.66    0.80
   6  20  -4    0.64    0.72
  -6 -20   3   22.16    1.54
   6  20  -3   24.09    1.57
  -6 -20   2    4.07    0.77
   6  20  -2    3.41    0.76
  -6 -20   1   -1.02    0.84
   6  20  -1   -0.23    0.63
  -6 -20   0    0.55    0.82
   6  20   0    1.35    0.66
  -6 -20  -1   20.05    1.49
   6  20   1   18.39    1.30
  -6 -20  -2    1.18    0.67
   6  20   2    1.90    0.62
  -6 -20  -3   12.19    1.12
   6  20   3   13.97    1.15
  -6 -20  -4    0.45    0.75
   6  20   4    1.65    0.74
  -6 -20  -5    0.20    0.68
   6  20   5    0.31    0.79
  -6 -20  -6    1.40    0.73
   6  20   6    1.12    0.81
   5  19 -13    3.86    2.22
  -5 -19  13    1.37    0.88
   5  19 -13    2.71    0.79
   5  19 -12    1.96    2.08
  -5 -19  12    0.93    0.83
   5  19 -12    1.37    0.60
   5  19 -11    2.72    1.91
  -5 -19  11    2.87    0.80
   5  19 -11    2.48    0.70
   5  19 -10    2.75    1.73
   5  19 -10    1.92    1.85
  -5 -19  10    2.00    0.69
   5  19 -10    1.07    0.64
  -5 -19   9    5.93    0.91
   5  19  -9    6.27    0.79
   5  19  -8    0.17    1.47
   5  19  -8    0.82    1.59
  -5 -19   8   -0.06    0.75
   5  19  -8    0.47    0.63
  -5 -19   7   11.24    1.06
   5  19  -7   11.39    1.04
  -5 -19   6   -0.49    0.65
   5  19  -6    0.17    0.59
  -5 -19   5    5.11    0.85
   5  19  -5    4.08    0.69
  -5 -19   4   10.22    1.04
   5  19  -4   10.65    1.05
  -5 -19   3    2.68    0.85
   5  19  -3    1.72    0.64
  -5 -19   2    7.70    0.91
   5  19  -2    6.22    0.87
  -5 -19   1   22.80    1.58
   5  19  -1   21.83    1.46
  -5 -19   0    4.63    0.86
   5  19   0    5.29    0.76
  -5 -19  -1    0.12    0.71
   5  19   1    0.09    0.60
  -5 -19  -2   10.06    1.00
   5  19   2   12.35    1.10
  -5 -19  -3    0.33    0.71
   5  19   3    0.30    0.63
  -5 -19  -4    0.05    0.75
   5  19   4   -0.38    0.68
  -5 -19  -5    7.66    0.86
   5  19   5    6.65    0.87
  -5 -19  -6   -0.49    0.65
   5  19   6   -0.29    0.67
  -5 -19  -7    9.12    0.93
   5  19   7    8.86    0.95
  -5 -19  -8    1.20    0.77
   5  19   8    1.57    0.87
   4  18 -14    2.43    1.81
  -4 -18  14    1.59    0.84
   4  18 -14    2.35    0.74
   4  18 -13    1.95    1.78
  -4 -18  13    0.68    0.78
   4  18 -13   -0.89    0.70
   4  18 -12   17.07    2.71
  -4 -18  12   16.51    1.28
   4  18 -12   16.70    1.27
   4  18 -11    4.21    1.82
  -4 -18  11    3.33    0.76
   4  18 -11    4.02    0.75
   4  18 -10    5.93    1.84
  -4 -18  10    7.87    0.86
   4  18 -10    5.22    0.80
   4  18  -9    4.56    1.67
  -4 -18   9    3.16    0.72
   4  18  -9    1.45    0.66
   4  18  -8   27.80    3.80
  -4 -18   8   27.50    1.80
   4  18  -8   26.48    1.71
   4  18  -7    0.43    1.49
   4  18  -7   -0.15    1.17
  -4 -18   7   -0.43    0.75
   4  18  -7    0.34    0.65
   4  18  -6   23.85    3.11
   4  18  -6   25.50    3.37
  -4 -18   6   27.35    1.80
   4  18  -6   23.76    1.53
  -4 -18   5    3.79    0.75
   4  18  -5    3.70    0.78
  -4 -18   4   11.24    1.10
   4  18  -4    9.16    0.87
  -4 -18   3   20.66    1.45
   4  18  -3   21.73    1.52
  -4 -18   2   13.12    1.14
   4  18  -2   13.85    1.15
  -4 -18   1    1.18    0.74
   4  18  -1    0.13    0.69
  -4 -18   0   39.69    2.38
   4  18   0   36.89    2.28
  -4 -18  -1    4.02    0.75
   4  18   1    4.75    0.77
  -4 -18  -2    0.47    0.70
   4  18   2    0.50    0.66
  -4 -18  -3    0.55    0.64
   4  18   3    0.43    0.74
  -4 -18  -4    7.95    0.93
   4  18   4    9.65    0.93
  -4 -18  -5    6.62    0.81
   4  18   5    7.28    0.89
  -4 -18  -6   27.90    1.81
   4  18   6   26.81    1.70
  -4 -18  -7    1.26    0.76
   4  18   7    0.26    0.70
  -4 -18  -8    0.48    0.78
   4  18   8    0.59    0.68
  -4 -18  -9    4.34    0.73
   4  18   9    3.37    0.88
  -4 -18 -10    0.01    0.85
   4  18  10   -0.46    0.76
   3  17 -14   -1.63    1.52
  -3 -17  14    0.59    0.83
   3  17 -14   -0.55    0.69
   3  17 -13    3.56    1.49
  -3 -17  13    1.84    0.81
   3  17 -13    2.58    0.75
   3  17 -12    7.68    1.83
  -3 -17  12    8.43    0.93
   3  17 -12    8.16    0.90
   3  17 -11    2.72    1.43
  -3 -17  11    2.52    0.75
   3  17 -11    2.82    0.73
   3  17 -10   76.16    9.37
  -3 -17  10   73.05    4.12
   3  17 -10   72.97    4.13
   3  17  -9    1.31    1.37
  -3 -17   9    2.13    0.74
   3  17  -9    3.73    0.67
   3  17  -8    3.54    1.41
  -3 -17   8    3.70    0.80
   3  17  -8    3.10    0.79
   3  17  -7    6.38    1.52
  -3 -17   7    6.53    0.82
   3  17  -7    6.07    0.73
   3  17  -6   33.87    4.38
  -3 -17   6   32.97    2.09
   3  17  -6   29.77    1.93
   3  17  -5    2.47    1.24
  -3 -17   5    4.13    0.89
   3  17  -5    5.40    0.76
  -3 -17   4   29.83    1.96
   3  17  -4   30.12    1.90
  -3 -17   3    2.47    0.73
   3  17  -3    2.21    0.78
  -3 -17   2   75.60    4.30
   3  17  -2   68.93    3.92
  -3 -17   1    2.85    0.85
   3  17  -1    4.54    0.88
  -3 -17   0    0.78    0.70
   3  17   0    1.02    0.66
  -3 -17  -1   15.80    1.30
   3  17   1   15.75    1.28
  -3 -17  -2   68.33    3.90
   3  17   2   64.48    3.68
  -3 -17  -3    7.73    0.90
   3  17   3    6.59    0.85
  -3 -17  -4   16.15    1.28
   3  17   4   13.52    1.10
  -3 -17  -5    4.50    0.84
   3  17   5    5.15    0.81
  -3 -17  -6   30.72    1.94
   3  17   6   26.83    1.75
  -3 -17  -7   11.33    0.99
   3  17   7   11.29    1.02
  -3 -17  -8   17.25    1.32
   3  17   8   19.66    1.38
  -3 -17  -9    1.63    0.76
   3  17   9    0.92    0.75
  -3 -17 -10   17.43    1.31
   3  17  10   20.52    1.43
  -3 -17 -11   -0.79    0.73
   3  17  11   -0.54    0.79
  -3 -17 -12    4.20    0.97
   3  17  12    5.62    1.16
   2  16 -15    8.46    1.90
  -2 -16  15    4.80    0.90
   2  16 -15    5.88    0.86
   2  16 -14    5.69    1.65
  -2 -16  14    3.87    0.91
   2  16 -14    4.66    0.76
   2  16 -13    0.16    1.47
  -2 -16  13    0.70    0.82
   2  16 -13    1.06    0.67
   2  16 -12   13.01    2.10
  -2 -16  12    8.75    0.98
   2  16 -12    9.67    1.02
   2  16 -11   16.78    2.51
  -2 -16  11   18.77    1.38
   2  16 -11   19.73    1.38
   2  16 -10    3.22    1.30
  -2 -16  10    3.73    0.80
   2  16 -10    3.28    0.73
   2  16  -9   47.95    6.03
  -2 -16   9   52.44    3.05
   2  16  -9   56.16    3.25
   2  16  -8   22.59    3.15
  -2 -16   8   19.07    1.42
   2  16  -8   19.10    1.37
   2  16  -7    1.40    1.24
  -2 -16   7    1.34    0.74
   2  16  -7    0.12    0.70
   2  16  -6   15.51    2.29
  -2 -16   6   11.28    1.13
   2  16  -6   12.55    1.02
   2  16  -5   27.18    3.57
  -2 -16   5   31.06    2.01
   2  16  -5   30.00    1.94
   2  16  -4    1.44    1.11
  -2 -16   4    3.02    0.74
   2  16  -4    4.20    0.70
   2  16  -3   33.17    4.12
  -2 -16   3   35.09    2.21
   2  16  -3   33.73    2.16
  -2 -16   2   47.53    2.82
   2  16  -2   47.35    2.81
  -2 -16   1   23.96    1.64
   2  16  -1   18.47    1.34
  -2 -16   0    8.32    1.00
   2  16   0    5.79    0.91
  -2 -16  -1   13.38    1.21
   2  16   1   13.05    1.10
  -2 -16  -2   -0.45    0.74
   2  16   2    0.26    0.65
  -2 -16  -3   17.12    1.28
   2  16   3   16.13    1.26
  -2 -16  -4   -0.50    0.64
   2  16   4    0.15    0.65
  -2 -16  -5   49.78    2.95
   2  16   5   49.42    2.90
  -2 -16  -6   18.26    1.36
   2  16   6   19.09    1.37
  -2 -16  -7    0.07    0.63
   2  16   7    0.14    0.64
  -2 -16  -8    3.34    0.67
   2  16   8    4.61    0.82
  -2 -16  -9   32.66    2.00
   2  16   9   32.96    2.03
  -2 -16 -10    1.51    1.39
  -2 -16 -10    1.28    1.63
  -2 -16 -10    2.19    0.72
   2  16  10    1.72    0.77
  -2 -16 -11    7.44    2.05
  -2 -16 -11    8.75    2.29
  -2 -16 -11    9.27    0.94
   2  16  11    9.79    0.94
  -2 -16 -12    2.93    2.02
  -2 -16 -12    6.97    2.15
  -2 -16 -12    4.74    0.92
   2  16  12    5.83    0.93
  -2 -16 -13   -0.05    2.26
  -2 -16 -13   -2.45    2.10
  -2 -16 -13    1.21    0.92
   2  16  13    0.52    0.93
   1  15 -15    8.46    1.81
  -1 -15  15    6.92    1.03
   1  15 -15    8.06    1.01
   1  15 -14    0.25    1.25
  -1 -15  14    0.87    0.87
   1  15 -14   -0.12    0.78
   1  15 -13   31.70    4.18
  -1 -15  13   27.54    1.86
   1  15 -13   30.69    1.93
   1  15 -12    2.60    1.25
  -1 -15  12    2.30    0.80
   1  15 -12    3.04    0.74
   1  15 -11    0.74    1.21
  -1 -15  11    0.94    0.73
   1  15 -11    0.33    0.62
   1  15 -10   -1.14    1.23
  -1 -15  10    0.95    0.68
   1  15 -10    0.89    0.65
   1  15  -9   17.19    2.56
  -1 -15   9   21.25    1.47
   1  15  -9   20.96    1.49
   1  15  -8    1.81    1.21
  -1 -15   8    0.31    0.74
   1  15  -8    0.35    0.63
   1  15  -7   44.09    5.58
  -1 -15   7   44.32    2.63
   1  15  -7   45.30    2.69
   1  15  -6    0.94    1.17
  -1 -15   6   -0.21    0.78
   1  15  -6    0.28    0.64
   1  15  -5   70.37    8.66
  -1 -15   5   63.34    3.66
   1  15  -5   63.76    3.66
   1  15  -4    3.65    1.17
  -1 -15   4    7.02    0.93
   1  15  -4    6.09    0.89
   1  15  -3   29.24    3.77
  -1 -15   3   29.39    1.93
   1  15  -3   28.30    1.82
   1  15  -2   20.43    2.74
  -1 -15   2   15.73    1.26
   1  15  -2   17.84    1.39
  -1 -15   1  157.80    8.66
   1  15  -1  169.70    9.29
  -1 -15   0    4.31    0.90
   1  15   0    3.65    0.76
  -1 -15  -1   17.22    1.32
   1  15   1   18.75    1.41
  -1 -15  -2    5.46    0.82
   1  15   2    4.95    0.82
  -1 -15  -3   18.34    1.36
   1  15   3   20.83    1.48
  -1 -15  -4    6.59    0.91
   1  15   4    8.20    0.89
  -1 -15  -5   39.82    2.44
   1  15   5   38.23    2.36
  -1 -15  -6    6.86    0.94
   1  15   6    6.12    0.83
  -1 -15  -7  111.00    6.17
   1  15   7  116.60    6.44
  -1 -15  -8   -0.22    1.13
  -1 -15  -8    0.16    0.88
  -1 -15  -8    0.75    0.62
   1  15   8    0.21    0.68
  -1 -15  -9   11.36    1.78
  -1 -15  -9   15.34    2.42
  -1 -15  -9   12.32    1.01
   1  15   9   12.59    1.11
  -1 -15 -10   -0.40    1.47
  -1 -15 -10   -0.80    1.14
  -1 -15 -10    0.81    0.72
   1  15  10    0.13    0.64
  -1 -15 -11   16.67    2.65
  -1 -15 -11   15.99    2.51
  -1 -15 -11   13.24    1.10
   1  15  11   13.12    1.11
  -1 -15 -12   -0.45    1.56
  -1 -15 -12    1.15    1.69
  -1 -15 -12    1.87    0.74
   1  15  12    0.37    0.74
  -1 -15 -13   26.45    3.67
  -1 -15 -13   29.70    4.13
  -1 -15 -13   27.13    1.80
   1  15  13   29.61    1.93
  -1 -15 -14    0.33    1.64
  -1 -15 -14    1.17    1.99
  -1 -15 -14   -0.11    0.83
   1  15  14    0.38    0.83
  -1 -15 -15    2.84    1.11
   0  14 -16    0.98    1.29
   0 -14  16    0.83    1.01
   0  14 -16    0.88    0.98
   0  14 -15   -0.41    1.27
   0 -14  15    0.31    0.82
   0  14 -15    0.48    0.85
   0  14 -14    9.59    1.76
   0 -14  14   15.26    1.25
   0  14 -14   13.50    1.17
   0  14 -13    0.18    1.19
   0 -14  13   -0.04    0.79
   0  14 -13    0.78    0.75
   0  14 -12   32.52    4.22
   0 -14  12   27.11    1.80
   0  14 -12   30.29    1.90
   0  14 -11   22.14    3.03
   0 -14  11   14.93    1.20
   0  14 -11   16.61    1.20
   0  14 -10   15.80    2.40
   0 -14  10   15.96    1.25
   0  14 -10   15.90    1.20
   0  14  -9    8.92    1.61
   0 -14   9    8.94    0.95
   0  14  -9    9.55    0.91
   0  14  -8   27.31    3.66
   0 -14   8   28.98    1.87
   0  14  -8   31.99    1.99
   0  14  -7    3.02    1.30
   0 -14   7    2.88    0.83
   0  14  -7    2.99    0.78
   0  14  -6   22.93    3.08
   0 -14   6   28.68    1.88
   0  14  -6   29.38    1.89
   0  14  -5   15.73    2.33
   0 -14   5   14.41    1.20
   0  14  -5   15.20    1.17
   0  14  -4    2.40    1.10
   0 -14   4    2.01    0.74
   0  14  -4    1.70    0.76
   0  14  -3   41.47    5.21
   0 -14   3   30.46    1.98
   0  14  -3   31.60    2.05
   0  14  -2   33.20    4.24
   0 -14   2   34.61    2.18
   0  14  -2   25.73    1.70
   0  14  -1    0.80    1.03
   0 -14   1    0.48    0.82
   0  14  -1    0.99    0.71
   0  14   0  164.20   19.85
   0 -14   0  178.30    9.76
   0  14   0  168.00    9.20
   0 -14  -1    2.46    0.83
   0  14   1    2.33    0.80
   0 -14  -2   34.60    2.17
   0  14   2   33.72    2.14
   0 -14  -3   31.02    1.99
   0  14   3   30.56    1.95
   0 -14  -4    1.96    0.76
   0  14   4    2.25    0.71
   0 -14  -5   14.30    1.86
   0 -14  -5   14.57    1.22
   0  14   5   14.51    1.20
   0 -14  -6   22.63    2.93
   0 -14  -6   26.47    1.77
   0  14   6   24.63    1.63
   0 -14  -7    2.31    1.19
   0 -14  -7    2.71    0.76
   0  14   7    3.07    0.75
   0 -14  -8   26.23    3.52
   0 -14  -8   30.38    1.94
   0  14   8   29.91    1.91
   0 -14  -9    9.38    1.82
   0 -14  -9    7.54    0.95
   0  14   9    7.90    0.89
   0 -14 -10   16.51    2.54
   0 -14 -10   14.02    1.17
   0  14  10   15.24    1.19
   0 -14 -11   20.78    2.97
   0 -14 -11   15.05    1.20
   0  14  11   15.43    1.22
   0 -14 -12   31.84    4.22
   0 -14 -12   29.98    1.90
   0  14  12   28.93    1.90
   0 -14 -13   -1.21    1.57
   0 -14 -13    0.00    0.72
   0  14  13    0.77    0.71
   0 -14 -14   10.66    2.00
   0 -14 -14   13.36    2.51
   0 -14 -14   15.98    1.28
   0  14  14   14.28    1.20
   0 -14 -15    0.40    1.48
   0 -14 -15    0.35    1.92
   0 -14 -15    1.16    0.91
   0  14  15    0.04    0.80
   0 -14 -16    2.64    2.02
   0 -14 -16    0.56    1.99
   0 -14 -16    0.86    0.92
   0  14  16    1.14    0.98
  -1  13 -16   17.28    2.44
   1 -13  16   11.72    1.13
  -1  13 -16   10.29    1.29
  -1  13 -15    0.11    1.26
   1 -13  15    0.00    0.86
  -1  13 -15    1.45    0.88
  -1  13 -14    2.93    1.31
   1 -13  14    1.04    0.77
  -1  13 -14    1.10    0.75
  -1  13 -13   -0.31    1.17
   1 -13  13    0.22    0.79
  -1  13 -13    1.39    0.75
  -1  13 -12    3.72    1.29
   1 -13  12    4.73    0.89
  -1  13 -12    5.16    0.79
  -1  13 -11    1.75    1.27
   1 -13  11    1.84    0.74
  -1  13 -11    1.57    0.69
  -1  13 -10  132.40   16.11
   1 -13  10  145.30    7.96
  -1  13 -10  149.20    8.17
  -1  13  -9    4.93    1.39
   1 -13   9    5.53    0.80
  -1  13  -9    6.64    0.80
  -1  13  -8    2.70    1.25
   1 -13   8    1.97    0.69
  -1  13  -8    2.45    0.75
  -1  13  -7    1.00    1.16
   1 -13   7    3.22    0.82
  -1  13  -7    3.97    0.75
  -1  13  -6   12.19    1.99
   1 -13   6    9.18    0.97
  -1  13  -6   10.33    1.05
  -1  13  -5    1.69    1.10
   1 -13   5    0.69    0.71
  -1  13  -5   -0.11    0.76
  -1  13  -4  156.90   19.02
   1 -13   4  154.20    8.48
  -1  13  -4  147.60    8.08
  -1  13  -3    0.14    1.08
   1 -13   3    2.58    0.71
  -1  13  -3   -0.19    0.66
  -1  13  -2   91.21   11.17
   1 -13   2   87.08    4.90
  -1  13  -2   89.53    5.02
  -1  13  -1    4.42    1.32
   1 -13   1    2.34    0.72
  -1  13  -1    1.86    0.60
  -1  13   0    3.02    1.02
   1 -13   0    0.99    0.64
  -1  13   0    1.12    0.66
  -1  13   1    6.25    1.19
   1 -13  -1    9.10    0.99
  -1  13   1   11.78    1.00
   1 -13  -2  109.80   13.29
   1 -13  -2  111.30    6.20
  -1  13   2  109.50    6.10
   1 -13  -3    1.11    0.73
   1 -13  -3   -0.29    0.69
  -1  13   3    0.84    0.62
   1 -13  -4   63.68    7.77
   1 -13  -4   75.77    4.32
  -1  13   4   69.63    3.98
   1 -13  -5    0.28    0.93
   1 -13  -5    1.43    0.76
  -1  13   5    1.02    0.73
   1 -13  -6   -0.34    1.03
   1 -13  -6    0.17    0.72
  -1  13   6   -0.45    0.73
   1 -13  -7    2.69    1.28
   1 -13  -7    2.96    0.76
  -1  13   7    3.44    0.78
   1 -13  -8   30.44    3.98
   1 -13  -8   28.98    1.90
  -1  13   8   27.28    1.77
   1 -13  -9    0.42    1.27
   1 -13  -9    0.39    0.69
  -1  13   9   -0.81    0.72
   1 -13 -10   57.01    7.14
   1 -13 -10   53.04    3.10
  -1  13  10   51.71    3.01
   1 -13 -11    7.55    1.77
   1 -13 -11    5.65    0.83
  -1  13  11    7.28    0.89
   1 -13 -12   34.27    4.51
   1 -13 -12   35.54    2.16
  -1  13  12   35.11    2.17
   1 -13 -13    1.51    1.45
   1 -13 -13    3.40    0.79
  -1  13  13    2.06    0.75
   1 -13 -14   13.65    2.35
   1 -13 -14   13.16    1.16
  -1  13  14   12.07    1.05
   1 -13 -15    3.80    1.75
   1 -13 -15    2.99    0.81
  -1  13  15    2.07    0.77
   1 -13 -16    7.08    2.01
   1 -13 -16    5.30    0.95
  -1  13  16    5.67    0.98
   1 -13 -17    0.35    1.66
   1 -13 -17   -0.22    0.92
  -2  12 -16    0.45    1.16
  -2  12 -16   -0.13    0.83
  -2  12 -15    2.23    1.08
   2 -12  15    1.38    0.78
  -2  12 -15    0.89    0.78
  -2  12 -14   17.83    2.58
   2 -12  14   12.26    1.13
  -2  12 -14   12.96    1.08
  -2  12 -13    0.12    1.16
   2 -12  13    0.83    0.70
  -2  12 -13    1.21    0.69
  -2  12 -12   19.44    2.73
   2 -12  12   16.40    1.26
  -2  12 -12   16.84    1.24
  -2  12 -11   11.55    1.87
   2 -12  11   12.41    1.11
  -2  12 -11   12.47    1.09
  -2  12 -10    5.07    1.39
   2 -12  10    4.61    0.77
  -2  12 -10    6.02    0.83
  -2  12  -9   28.11    3.75
   2 -12   9   25.29    1.68
  -2  12  -9   16.54    1.20
  -2  12  -8   -0.10    1.24
   2 -12   8   -0.12    0.64
  -2  12  -8    1.37    0.69
  -2  12  -7   31.91    4.10
   2 -12   7   38.24    2.32
  -2  12  -7   36.34    2.19
  -2  12  -6  165.60   20.10
   2 -12   6  145.50    7.98
  -2  12  -6  108.50    5.99
  -2  12  -5   42.46    5.38
   2 -12   5   44.68    2.67
  -2  12  -5   47.18    2.80
  -2  12  -4   53.28    6.63
   2 -12   4   55.96    3.25
  -2  12  -4   56.49    3.25
  -2  12  -3   82.77   10.15
   2 -12   3   92.26    5.16
  -2  12  -3   91.24    5.09
  -2  12  -2   43.18    5.44
   2 -12   2   37.23    2.28
  -2  12  -2   40.34    2.48
  -2  12  -1   26.74    3.47
   2 -12   1   29.25    1.88
  -2  12  -1   28.13    1.84
   2 -12   0   81.66    9.96
  -2  12   0   92.43   11.29
   2 -12   0   86.73    4.87
  -2  12   0   81.69    4.59
   2 -12  -1   -0.10    0.81
  -2  12   1    0.25    1.10
   2 -12  -1    1.31    0.68
  -2  12   1    1.33    0.70
   2 -12  -2   98.19   11.94
  -2  12   2  107.40   13.06
   2 -12  -2   91.03    5.11
  -2  12   2   95.25    5.31
   2 -12  -3  112.30   13.64
   2 -12  -3  120.70    6.68
  -2  12   3  119.90    6.65
   2 -12  -4   74.62    9.14
   2 -12  -4   66.94    3.84
  -2  12   4   60.62    3.49
   2 -12  -5   51.39    6.38
   2 -12  -5   53.40    3.12
  -2  12   5   54.91    3.19
   2 -12  -6   55.39    6.86
   2 -12  -6   50.04    2.96
  -2  12   6   50.97    2.99
   2 -12  -7   11.73    1.96
   2 -12  -7   13.38    1.09
  -2  12   7   12.21    1.05
   2 -12  -8    2.23    1.36
   2 -12  -8    0.97    0.76
  -2  12   8    2.06    0.77
   2 -12  -9   10.45    1.85
   2 -12  -9   13.59    1.12
  -2  12   9   11.57    1.06
   2 -12 -10    3.28    1.39
   2 -12 -10    2.55    0.66
  -2  12  10    4.59    0.79
   2 -12 -11   23.41    3.28
   2 -12 -11   27.88    1.82
  -2  12  11   28.61    1.84
   2 -12 -12   35.80    4.68
   2 -12 -12   29.44    1.88
  -2  12  12   32.15    2.02
   2 -12 -13    4.68    1.49
   2 -12 -13    4.85    0.78
  -2  12  13    6.10    0.81
   2 -12 -14   20.31    2.91
   2 -12 -14   16.77    1.26
  -2  12  14   16.84    1.26
   2 -12 -15   29.39    3.95
   2 -12 -15   27.09    1.77
  -2  12  15   27.19    1.79
   2 -12 -16    0.82    1.49
   2 -12 -16    0.50    0.74
  -2  12  16   -0.11    0.75
   2 -12 -17    4.52    1.73
   2 -12 -17    6.99    0.93
   2 -12 -18    1.87    1.63
   2 -12 -18    0.50    0.92
  -3  11 -16    2.10    1.28
  -3  11 -14    3.27    1.27
   3 -11  14    2.03    0.73
  -3  11 -14    1.96    0.65
  -3  11 -13   23.27    3.13
   3 -11  13   30.91    1.94
  -3  11 -13   29.16    1.81
  -3  11 -12    3.69    1.23
   3 -11  12    4.39    0.78
  -3  11 -12    5.53    0.79
  -3  11 -11   40.28    5.15
   3 -11  11   45.88    2.72
  -3  11 -11   42.39    2.48
  -3  11 -10    1.72    1.23
   3 -11  10    1.50    0.63
  -3  11 -10    2.26    0.63
  -3  11  -9    2.13    1.09
   3 -11   9    2.46    0.68
  -3  11  -9    1.36    0.65
  -3  11  -8    6.61    1.42
   3 -11   8    3.52    0.76
  -3  11  -8    5.62    0.74
  -3  11  -7   91.17   11.16
   3 -11   7   98.56    5.48
  -3  11  -7  102.40    5.71
  -3  11  -6   -0.06    1.25
   3 -11   6    1.80    0.69
  -3  11  -6    1.77    0.63
  -3  11  -5  312.70   37.77
   3 -11   5  370.50   20.00
  -3  11  -5  349.00   18.83
  -3  11  -4    3.70    1.29
   3 -11   4    4.46    0.73
  -3  11  -4    6.72    0.85
  -3  11  -3    4.76    1.35
   3 -11   3    2.41    0.61
  -3  11  -3    2.70    0.63
  -3  11  -2    0.10    1.09
   3 -11   2   -0.87    0.65
  -3  11  -2    0.41    0.54
   3 -11   1   88.82   10.83
  -3  11  -1  100.70   12.29
   3 -11   1   98.08    5.48
  -3  11  -1   96.18    5.38
   3 -11   0    1.17    1.01
  -3  11   0   -0.25    1.13
   3 -11   0    1.85    0.63
  -3  11   0    1.05    0.61
   3 -11  -1  401.70   48.44
  -3  11   1  447.40   53.93
   3 -11  -1  420.10   22.66
  -3  11   1  446.90   24.08
   3 -11  -2   46.13    5.74
  -3  11   2   46.33    5.76
   3 -11  -2   40.71    2.48
  -3  11   2   34.60    2.18
   3 -11  -3    5.73    1.25
  -3  11   3    6.12    1.34
   3 -11  -3    8.76    0.89
  -3  11   3    7.73    0.88
   3 -11  -4    1.10    1.06
  -3  11   4    0.97    0.89
   3 -11  -4    1.61    0.62
  -3  11   4    2.70    0.72
   3 -11  -5   48.55    6.08
   3 -11  -5   52.02    3.07
  -3  11   5   53.56    3.11
   3 -11  -6   -0.25    1.16
   3 -11  -6    2.02    0.64
  -3  11   6    0.46    0.62
   3 -11  -7  185.70   22.50
   3 -11  -7  174.80    9.56
  -3  11   7  177.70    9.71
   3 -11  -8    1.77    1.22
   3 -11  -8    0.67    0.67
  -3  11   8    0.14    0.65
   3 -11  -9   40.65    5.20
   3 -11  -9   30.15    1.94
  -3  11   9   32.57    2.08
   3 -11 -10   10.79    1.93
   3 -11 -10    6.19    0.86
  -3  11  10    6.44    0.79
   3 -11 -11    3.97    1.47
   3 -11 -11    1.94    0.68
  -3  11  11    2.06    0.73
   3 -11 -12    8.48    1.84
   3 -11 -12    4.10    0.81
  -3  11  12    3.64    0.75
   3 -11 -13   95.49   11.72
   3 -11 -13   83.55    4.68
  -3  11  13   84.74    4.75
   3 -11 -14    1.44    1.31
   3 -11 -14    1.32    0.73
  -3  11  14    0.55    0.70
   3 -11 -15   25.63    3.49
   3 -11 -15   30.85    1.94
  -3  11  15   28.75    1.85
   3 -11 -16   -0.06    1.47
   3 -11 -16    0.66    0.71
   3 -11 -17    0.36    1.49
   3 -11 -17    1.06    0.79
   3 -11 -18   -0.25    1.58
   3 -11 -18   -0.34    0.80
   3 -11 -18   -0.91    0.63
  -4  10 -16    1.40    1.30
  -4  10 -15   16.26    2.33
  -4  10 -14   18.31    2.61
  -4  10 -13    2.42    1.26
   4 -10  13    3.03    0.63
  -4  10 -13    2.91    0.58
  -4  10 -12   10.40    1.81
   4 -10  12   13.66    1.06
  -4  10 -12   13.59    0.99
  -4  10 -11    1.15    1.29
   4 -10  11    0.06    0.57
  -4  10 -11    0.36    0.51
  -4  10 -10    7.00    1.41
   4 -10  10    5.97    0.77
  -4  10 -10    7.01    0.77
  -4  10  -9    2.16    1.28
   4 -10   9    1.36    0.63
  -4  10  -9    0.92    0.59
  -4  10  -8   29.88    3.90
   4 -10   8   30.25    1.88
  -4  10  -8   31.18    1.89
  -4  10  -7   37.91    4.85
   4 -10   7   41.20    2.45
  -4  10  -7   42.30    2.49
  -4  10  -6   41.84    5.31
   4 -10   6   51.50    3.00
  -4  10  -6   52.95    3.03
  -4  10  -5    4.01    1.31
   4 -10   5    6.25    0.81
  -4  10  -5    4.18    0.61
  -4  10  -4  126.40   15.39
   4 -10   4  157.90    8.64
  -4  10  -4  147.80    8.10
  -4  10  -3  212.10   25.66
   4 -10   3  193.20   10.52
  -4  10  -3  183.30    9.98
   4 -10   2   11.71    1.85
  -4  10  -2   11.26    1.94
   4 -10   2   11.99    1.03
  -4  10  -2   11.03    0.93
   4 -10   1   57.01    7.06
  -4  10  -1   62.01    7.69
   4 -10   1   59.35    3.42
  -4  10  -1   65.08    3.73
   4 -10   0  101.90   12.43
  -4  10   0  102.00   12.43
   4 -10   0  117.30    6.49
  -4  10   0  110.20    6.12
   4 -10  -1   44.24    5.54
  -4  10   1   45.44    5.71
   4 -10  -1   33.93    2.11
  -4  10   1   33.96    2.07
   4 -10  -2   27.50    3.57
  -4  10   2   29.30    3.82
   4 -10  -2   43.99    2.63
  -4  10   2   40.30    2.42
   4 -10  -3  313.60   37.85
  -4  10   3  372.20   44.93
   4 -10  -3  299.70   16.23
  -4  10   3  308.60   16.73
   4 -10  -4   56.47    7.02
  -4  10   4   63.53    7.88
   4 -10  -4   53.50    3.13
  -4  10   4   51.03    3.01
   4 -10  -5   41.33    5.23
  -4  10   5   34.72    4.47
   4 -10  -5   39.12    2.38
  -4  10   5   39.90    2.44
   4 -10  -6    6.83    1.49
   4 -10  -6    9.47    0.98
  -4  10   6    9.54    0.94
   4 -10  -7   17.40    2.66
   4 -10  -7   18.09    1.37
  -4  10   7   18.09    1.33
   4 -10  -8   57.03    7.11
   4 -10  -8   68.73    3.94
  -4  10   8   60.17    3.48
   4 -10  -9  134.10   16.33
   4 -10  -9  113.60    6.30
  -4  10   9  105.80    5.90
   4 -10 -10   44.29    5.63
   4 -10 -10   40.89    2.50
  -4  10  10   41.68    2.54
   4 -10 -11   57.02    7.13
   4 -10 -11   53.33    3.12
  -4  10  11   54.02    3.16
   4 -10 -12   14.72    2.36
   4 -10 -12   11.46    1.02
  -4  10  12   10.44    0.98
   4 -10 -13   60.25    7.51
   4 -10 -13   64.70    3.72
  -4  10  13   59.40    3.43
   4 -10 -14   32.04    4.23
   4 -10 -14   33.61    2.10
  -4  10  14   36.32    2.24
   4 -10 -15    0.83    1.32
   4 -10 -15   -0.12    0.67
  -4  10  15    0.30    0.69
   4 -10 -16   -0.21    1.32
   4 -10 -16    1.09    0.77
   4 -10 -17    9.84    1.88
   4 -10 -17   10.20    1.00
   4 -10 -18    2.04    1.42
   4 -10 -18    1.62    0.77
   4 -10 -18    1.22    0.67
   4 -10 -19    4.95    1.62
   4 -10 -19    3.37    0.84
   4 -10 -19    4.81    0.77
  -5   9 -16   11.75    2.11
  -5   9 -15   -0.37    1.30
  -5   9 -14   12.35    2.03
  -5   9 -13    2.89    1.29
  -5   9 -12   14.09    2.17
  -5   9 -11   -0.94    1.19
   5  -9  11    0.45    0.49
  -5   9 -11   -0.23    0.44
  -5   9 -10   42.83    5.42
   5  -9  10   39.14    2.27
  -5   9 -10   36.47    2.10
  -5   9  -9    0.97    1.22
   5  -9   9    0.96    0.58
  -5   9  -9    1.68    0.51
  -5   9  -8   12.81    2.07
   5  -9   8   10.52    0.89
  -5   9  -8   11.22    0.86
  -5   9  -7   10.98    1.94
   5  -9   7    7.46    0.75
  -5   9  -7    7.97    0.78
  -5   9  -6    0.55    1.20
   5  -9   6    2.58    0.60
  -5   9  -6    2.13    0.60
  -5   9  -5   30.54    4.04
   5  -9   5   20.57    1.37
  -5   9  -5   23.28    1.46
  -5   9  -4   42.96    5.45
   5  -9   4   41.07    2.41
  -5   9  -4   39.46    2.31
   5  -9   3    3.67    1.25
  -5   9  -3    5.02    1.36
   5  -9   3    5.38    0.74
  -5   9  -3    6.66    0.76
   5  -9   2  356.20   43.00
  -5   9  -2  357.60   43.18
   5  -9   2  343.00   18.51
  -5   9  -2  366.30   19.75
   5  -9   1    3.47    1.28
  -5   9  -1    1.87    1.26
   5  -9   1    1.88    0.65
  -5   9  -1    3.37    0.65
   5  -9   0    1.01    1.16
  -5   9   0    1.96    1.20
   5  -9   0    2.45    0.66
  -5   9   0    1.79    0.68
   5  -9  -1   29.96    3.92
  -5   9   1   28.07    3.75
   5  -9  -1   18.96    1.34
  -5   9   1   19.64    1.41
   5  -9  -2  323.00   39.01
  -5   9   2  328.20   39.63
   5  -9  -2  304.00   16.46
  -5   9   2  297.60   16.10
   5  -9  -3   20.37    2.84
  -5   9   3   18.54    2.60
   5  -9  -3   18.90    1.36
  -5   9   3   16.87    1.31
   5  -9  -4  284.10   34.33
  -5   9   4  271.80   32.84
   5  -9  -4  276.70   15.01
  -5   9   4  267.90   14.53
   5  -9  -5    7.58    1.62
  -5   9   5    7.28    1.51
   5  -9  -5   10.05    1.04
  -5   9   5    9.58    0.96
   5  -9  -6   15.95    2.42
   5  -9  -6   20.24    1.43
  -5   9   6   19.83    1.44
   5  -9  -7   55.75    6.99
   5  -9  -7   34.30    2.15
  -5   9   7   35.41    2.17
   5  -9  -8   17.45    2.61
   5  -9  -8   24.41    1.66
  -5   9   8   25.84    1.70
   5  -9  -9   48.41    6.14
   5  -9  -9   37.95    2.32
  -5   9   9   36.86    2.27
   5  -9 -10  382.40   46.17
   5  -9 -10  358.00   19.34
  -5   9  10  365.40   19.75
   5  -9 -11    6.61    1.69
   5  -9 -11    7.74    0.89
  -5   9  11    8.11    0.91
   5  -9 -12   27.38    3.73
   5  -9 -12   32.47    2.04
  -5   9  12   28.75    1.86
   5  -9 -13    6.63    1.62
   5  -9 -13   10.63    0.96
  -5   9  13    9.20    0.97
   5  -9 -14    5.52    1.46
   5  -9 -14    9.10    0.95
  -5   9  14    8.06    0.92
   5  -9 -15    6.72    1.65
   5  -9 -15    4.94    0.81
   5  -9 -16    2.18    1.30
   5  -9 -16    1.65    0.69
   5  -9 -17    1.71    1.51
   5  -9 -17    1.75    0.72
   5  -9 -17    1.97    0.61
   5  -9 -18   28.73    3.87
   5  -9 -19    3.77    1.65
   5  -9 -19    3.53    0.88
   5  -9 -19    2.95    0.70
   5  -9 -20    0.63    1.41
   5  -9 -20    1.52    0.79
   5  -9 -20    1.34    0.76
  -6   8 -15   13.25    2.11
  -6   8 -14   22.55    3.13
  -6   8 -13    6.68    1.42
  -6   8 -12   21.31    2.91
  -6   8 -11    8.65    1.71
  -6   8 -10   40.57    5.18
   6  -8  10   42.56    2.40
  -6   8  -9   20.75    2.94
   6  -8   9   21.67    1.32
  -6   8  -9   22.05    1.31
  -6   8  -8    2.10    1.10
   6  -8   8    0.76    0.47
  -6   8  -8    0.95    0.48
  -6   8  -7    8.73    1.72
   6  -8   7    7.97    0.73
  -6   8  -7    8.45    0.71
  -6   8  -6  283.10   34.23
   6  -8   6  243.90   13.17
  -6   8  -6  245.60   13.27
  -6   8  -5   12.02    1.95
   6  -8   5   14.53    1.05
  -6   8  -5   14.77    1.01
  -6   8  -4   76.47    9.43
   6  -8   4   87.41    4.84
  -6   8  -4   87.45    4.81
   6  -8   3   -0.33    1.21
  -6   8  -3    2.52    1.31
   6  -8   3    1.05    0.55
  -6   8  -3    0.68    0.54
   6  -8   2    2.31    1.26
  -6   8  -2    1.70    1.37
   6  -8   2    1.05    0.55
  -6   8  -2    0.61    0.56
   6  -8   1   97.34   11.94
  -6   8  -1   94.69   11.63
   6  -8   1  101.70    5.63
  -6   8  -1  102.00    5.62
   6  -8   0  108.40   13.25
  -6   8   0  107.60   13.17
   6  -8   0   89.77    5.01
  -6   8   0   88.69    4.94
   6  -8  -1    3.81    1.35
  -6   8   1    5.44    1.51
   6  -8  -1    3.22    0.65
  -6   8   1    3.51    0.72
   6  -8  -2  524.70   63.28
  -6   8   2  490.50   59.14
   6  -8  -2  501.70   27.00
  -6   8   2  554.20   29.81
   6  -8  -3  238.30   28.86
  -6   8   3  216.50   26.21
   6  -8  -3  231.70   12.59
  -6   8   3  225.50   12.26
   6  -8  -4    6.80    1.68
  -6   8   4    6.04    1.53
   6  -8  -4    9.89    0.96
  -6   8   4   10.19    0.98
   6  -8  -5   12.42    2.15
  -6   8   5   14.26    2.20
   6  -8  -5   16.71    1.27
  -6   8   5   17.49    1.31
   6  -8  -6   70.39    8.71
  -6   8   6   73.86    9.13
   6  -8  -6   55.64    3.27
  -6   8   6   58.38    3.40
   6  -8  -7   44.08    5.63
   6  -8  -7   34.85    2.19
  -6   8   7   32.10    2.05
   6  -8  -8  190.30   23.09
   6  -8  -8  183.40   10.04
  -6   8   8  185.50   10.13
   6  -8  -9   23.23    3.27
   6  -8  -9   17.98    1.34
  -6   8   9   18.10    1.34
   6  -8 -10   61.66    7.71
   6  -8 -10   66.25    3.80
  -6   8  10   64.90    3.73
   6  -8 -11  111.50   13.65
   6  -8 -11  122.80    6.82
  -6   8  11  119.80    6.64
   6  -8 -12  101.70   12.47
   6  -8 -12   85.21    4.81
  -6   8  12   82.81    4.69
   6  -8 -13    1.28    1.34
   6  -8 -13    0.01    0.68
  -6   8  13    0.28    0.69
   6  -8 -14   10.26    1.93
   6  -8 -14    8.35    0.95
   6  -8 -15    0.55    1.20
   6  -8 -15    0.03    0.68
   6  -8 -16   54.13    6.81
   6  -8 -16   55.91    3.24
   6  -8 -17   12.06    2.05
   6  -8 -17   10.11    0.92
   6  -8 -17   10.04    0.99
   6  -8 -18    2.47    1.52
   6  -8 -18    0.22    0.71
   6  -8 -18    1.36    0.63
   6  -8 -19    4.63    1.65
   6  -8 -19    6.24    0.85
   6  -8 -19    5.05    0.79
   6  -8 -20    5.74    1.68
   6  -8 -20    4.88    0.85
   6  -8 -20    4.86    0.78
  -7   7 -15   -0.56    1.34
  -7   7 -14    1.34    1.20
  -7   7 -13   34.08    4.43
  -7   7 -12    0.61    1.21
  -7   7 -11   72.73    8.96
  -7   7 -10   63.24    7.87
  -7   7  -9    2.33    1.27
  -7   7  -8   11.83    2.00
   7  -7   8   10.72    0.69
  -7   7  -7    3.87    1.30
   7  -7   7    3.22    0.46
  -7   7  -7    2.29    0.39
  -7   7  -6   45.60    5.80
   7  -7   6   33.34    1.93
  -7   7  -6   33.18    1.93
  -7   7  -5  312.60   37.78
   7  -7   5  325.00   17.50
  -7   7  -5  324.90   17.49
   7  -7   4  119.80   14.65
  -7   7  -4  113.40   13.86
   7  -7   4   80.04    4.43
  -7   7  -4   85.34    4.69
   7  -7   3   20.94    3.01
  -7   7  -3   20.52    2.89
   7  -7   3   14.02    1.00
  -7   7  -3   15.21    1.06
   7  -7   2   11.84    2.07
  -7   7  -2   11.67    1.92
   7  -7   2   14.80    1.08
  -7   7  -2   14.16    1.08
   7  -7   1    7.62    1.55
  -7   7  -1    9.03    1.83
   7  -7   1    9.66    0.84
  -7   7  -1   10.91    0.90
   7  -7   0   53.16    6.68
  -7   7   0   56.67    7.11
   7  -7   0   47.30    2.75
  -7   7   0   45.11    2.60
   7  -7  -1  190.50   23.10
  -7   7   1  232.90   28.19
   7  -7  -1  223.10   12.11
  -7   7   1  227.10   12.32
   7  -7  -2    2.53    1.51
  -7   7   2    3.78    1.42
   7  -7  -2    7.49    0.83
  -7   7   2    6.70    0.84
   7  -7  -3  183.30   22.25
  -7   7   3  172.90   20.99
   7  -7  -3  217.90   11.85
  -7   7   3  206.00   11.21
   7  -7  -4    8.51    1.84
  -7   7   4   10.38    1.92
   7  -7  -4   11.79    1.00
  -7   7   4    9.59    1.00
   7  -7  -5   35.00    4.59
  -7   7   5   31.01    4.12
   7  -7  -5   21.07    1.46
  -7   7   5   21.95    1.52
   7  -7  -6   12.15    2.13
  -7   7   6   12.36    2.12
   7  -7  -6    7.64    0.89
  -7   7   6    7.83    0.83
   7  -7  -7  492.10   59.37
  -7   7   7  473.10   57.10
   7  -7  -7  455.20   24.55
  -7   7   7  458.90   24.74
   7  -7  -8   12.13    2.09
   7  -7  -8   20.89    1.46
  -7   7   8   20.18    1.43
   7  -7  -9   78.41    9.72
   7  -7  -9   86.28    4.87
  -7   7   9   88.08    4.94
   7  -7 -10    3.26    1.60
   7  -7 -10    4.20    0.77
  -7   7  10    4.30    0.70
   7  -7 -11   28.33    3.88
   7  -7 -11   34.31    2.12
  -7   7  11   34.86    2.18
   7  -7 -12   10.77    2.11
   7  -7 -12    8.50    0.95
  -7   7  12    8.89    0.90
   7  -7 -13  183.00   22.24
   7  -7 -13  166.90    9.15
   7  -7 -14    3.32    1.47
   7  -7 -14    0.71    0.63
   7  -7 -15   28.24    3.81
   7  -7 -15   27.08    1.77
   7  -7 -16    0.81    1.32
   7  -7 -16   -0.12    0.63
   7  -7 -16   -0.57    0.67
   7  -7 -17   22.05    3.16
   7  -7 -17   27.06    1.70
   7  -7 -17   24.89    1.65
   7  -7 -18   -0.08    1.35
   7  -7 -18    0.52    0.65
   7  -7 -18    0.10    0.64
   7  -7 -19   10.74    1.96
   7  -7 -19    9.18    0.93
   7  -7 -19    9.93    0.94
   7  -7 -20   -0.03    1.38
   7  -7 -20   -0.43    0.74
   7  -7 -20    0.19    0.65
   7  -7 -21    4.06    1.46
   7  -7 -21    4.60    0.89
   7  -7 -21    4.18    0.74
  -8   6 -14    1.27    1.23
  -8   6 -13   -0.58    1.42
  -8   6 -12    5.67    1.60
  -8   6 -11   15.09    2.36
  -8   6 -10    6.87    1.53
  -8   6  -9  164.80   20.00
  -8   6  -8    1.28    1.35
  -8   6  -7   40.57    5.21
  -8   6  -6    5.92    1.48
   8  -6   6    5.11    0.46
  -8   6  -5   81.08   10.00
   8  -6   5   71.10    3.90
   8  -6   4   14.44    2.36
  -8   6  -4   16.11    2.56
   8  -6   4   19.93    1.25
  -8   6  -4   17.70    1.14
   8  -6   3  198.50   24.09
  -8   6  -3  194.70   23.61
   8  -6   3  189.30   10.25
  -8   6  -3  199.60   10.79
   8  -6   2   17.56    2.69
  -8   6  -2   20.31    2.95
   8  -6   2   20.21    1.30
  -8   6  -2   17.32    1.16
   8  -6   1   75.60    9.36
  -8   6  -1   75.47    9.33
   8  -6   1   73.18    4.09
  -8   6  -1   69.21    3.90
   8  -6   0    2.03    1.42
  -8   6   0   -0.54    1.33
   8  -6   0    0.44    0.54
  -8   6   0    0.82    0.53
   8  -6  -1  155.20   18.86
  -8   6   1  162.50   19.77
   8  -6  -1  192.40   10.46
  -8   6   1  184.30   10.01
   8  -6  -2   52.60    6.63
  -8   6   2   49.08    6.26
   8  -6  -2   55.48    3.19
  -8   6   2   56.49    3.25
   8  -6  -3  318.10   38.46
  -8   6   3  286.70   34.67
   8  -6  -3  268.00   14.51
  -8   6   3  267.60   14.51
   8  -6  -4    4.26    1.66
  -8   6   4    5.38    1.56
   8  -6  -4   11.18    1.03
  -8   6   4   10.79    0.98
   8  -6  -5   71.48    8.88
  -8   6   5   69.94    8.70
   8  -6  -5   62.71    3.61
  -8   6   5   63.95    3.70
   8  -6  -6    7.49    1.77
  -8   6   6    8.70    1.86
   8  -6  -6    7.43    0.91
  -8   6   6    8.97    0.96
   8  -6  -7  260.30   31.51
  -8   6   7  262.70   31.81
   8  -6  -7  297.90   16.14
  -8   6   7  302.40   16.37
   8  -6  -8   28.38    3.93
  -8   6   8   30.09    4.04
   8  -6  -8   40.07    2.43
  -8   6   8   42.76    2.60
   8  -6  -9  269.20   32.60
   8  -6  -9  219.70   11.96
  -8   6   9  214.70   11.68
   8  -6 -10   -1.05    1.65
   8  -6 -10    1.72    0.66
  -8   6  10    0.59    0.59
   8  -6 -11   14.37    2.41
   8  -6 -11   15.14    1.21
   8  -6 -12    3.36    1.68
   8  -6 -12    7.44    0.87
   8  -6 -13   80.35    9.98
   8  -6 -13   86.95    4.91
   8  -6 -14   50.82    6.48
   8  -6 -14   53.10    3.07
   8  -6 -14   54.64    3.22
   8  -6 -15   34.32    4.55
   8  -6 -15   26.85    1.76
   8  -6 -15   26.21    1.73
   8  -6 -16    1.24    1.36
   8  -6 -16    1.06    0.64
   8  -6 -16    2.24    0.71
   8  -6 -17   14.02    2.29
   8  -6 -17   12.33    0.99
   8  -6 -17   12.41    1.08
   8  -6 -18    5.83    1.66
   8  -6 -18    7.41    0.84
   8  -6 -18    9.09    0.90
   8  -6 -19   11.57    2.18
   8  -6 -19   13.35    1.08
   8  -6 -19   13.34    1.06
   8  -6 -20    0.43    1.49
   8  -6 -20    0.01    0.67
   8  -6 -20   -0.07    0.72
   8  -6 -21    0.89    1.55
   8  -6 -21    0.35    0.68
   8  -6 -21    1.29    0.87
  -9   5 -14   21.99    3.01
  -9   5 -13   11.19    2.03
  -9   5 -12    1.56    1.54
  -9   5 -11   17.20    2.67
  -9   5 -10   49.74    6.25
  -9   5  -9    0.50    1.50
  -9   5  -8   49.84    6.34
  -9   5  -7   15.40    2.44
  -9   5  -6    9.94    1.85
  -9   5  -5   25.30    3.48
   9  -5   5   23.01    1.33
   9  -5   5   23.91    1.37
   9  -5   4   45.65    5.87
  -9   5  -4   53.31    6.74
   9  -5   4   38.59    2.17
   9  -5   4   38.95    2.20
   9  -5   3   98.67   12.14
  -9   5  -3   95.30   11.73
   9  -5   3   98.86    5.41
   9  -5   2  264.70   32.06
  -9   5  -2  264.20   31.97
   9  -5   2  274.60   14.82
   9  -5   1    3.69    1.38
  -9   5  -1    3.88    1.53
   9  -5   1    1.62    0.53
   9  -5   0   26.93    3.75
  -9   5   0   26.74    3.71
   9  -5   0   35.59    2.11
  -9   5   0   34.29    2.06
   9  -5  -1   49.24    6.21
  -9   5   1   62.27    7.80
   9  -5  -1   51.85    2.98
  -9   5   1   52.98    3.01
   9  -5  -2    4.69    1.50
  -9   5   2    5.52    1.58
   9  -5  -2    2.22    0.66
  -9   5   2    2.31    0.58
   9  -5  -3    2.78    1.63
  -9   5   3    1.91    1.34
   9  -5  -3    2.45    0.64
  -9   5   3    2.86    0.67
   9  -5  -4   16.12    2.64
  -9   5   4   18.21    2.77
   9  -5  -4   15.44    1.15
  -9   5   4   15.46    1.22
   9  -5  -5  139.30   17.03
  -9   5   5  137.10   16.73
   9  -5  -5  153.60    8.42
  -9   5   5  155.30    8.52
   9  -5  -6  495.70   59.80
  -9   5   6  486.70   58.73
   9  -5  -6  519.00   27.94
  -9   5   6  515.40   27.76
   9  -5  -7  162.90   19.82
  -9   5   7  170.90   20.80
   9  -5  -7  158.60    8.70
   9  -5  -8   27.62    3.90
  -9   5   8   26.66    3.68
   9  -5  -8   34.02    2.10
   9  -5  -9   96.66   11.92
   9  -5  -9   97.11    5.43
   9  -5 -10  520.20   62.80
   9  -5 -10  423.60   22.84
   9  -5 -11    0.28    1.48
   9  -5 -11    0.42    0.69
   9  -5 -12   52.99    6.74
   9  -5 -12   50.43    2.98
   9  -5 -12   53.72    3.12
   9  -5 -13    1.81    1.77
   9  -5 -13    3.41    0.74
   9  -5 -13    1.63    0.63
   9  -5 -14   27.24    3.93
   9  -5 -14   37.35    2.37
   9  -5 -14   38.68    2.31
   9  -5 -15   25.86    3.73
   9  -5 -15   27.93    1.83
   9  -5 -15   29.33    1.90
   9  -5 -16   29.30    4.06
   9  -5 -16   22.81    1.58
   9  -5 -16   24.49    1.60
   9  -5 -17    0.68    1.49
   9  -5 -17    2.13    0.77
   9  -5 -17    1.97    0.67
   9  -5 -18   16.92    2.69
   9  -5 -18   13.76    1.12
   9  -5 -18   14.70    1.06
   9  -5 -19   -0.89    1.51
   9  -5 -19    0.66    0.68
   9  -5 -19    1.33    0.57
   9  -5 -20   13.86    2.35
   9  -5 -20   13.78    1.15
   9  -5 -20   14.92    1.11
   9  -5 -21    5.72    1.73
   9  -5 -21    7.61    0.98
   9  -5 -21    8.11    0.85
   9  -5 -22    1.82    1.59
   9  -5 -22   -0.97    0.94
   9  -5 -22    0.31    0.67
 -10   4 -13    2.15    1.29
 -10   4 -12   25.47    3.53
 -10   4 -11   -0.38    1.40
 -10   4 -10   30.53    4.16
 -10   4  -9    0.38    1.34
 -10   4  -8   21.83    3.15
 -10   4  -7   10.13    1.96
 -10   4  -6   49.41    6.27
 -10   4  -5   12.98    2.19
  10  -4   4   37.59    4.98
 -10   4  -4   38.07    4.97
  10  -4   4   34.69    1.95
  10  -4   4   38.30    2.16
  10  -4   3    8.69    1.96
 -10   4  -3   10.48    2.15
  10  -4   3   10.72    0.78
  10  -4   3   11.38    0.80
  10  -4   2    1.25    1.59
 -10   4  -2    0.79    1.56
  10  -4   1   17.79    2.67
 -10   4  -1   20.20    2.96
  10  -4   1   22.01    1.38
  10  -4   1   22.11    1.40
  10  -4   0  199.50   24.23
 -10   4   0  204.30   24.81
  10  -4   0  186.20   10.10
  10  -4   0  177.10    9.62
  10  -4  -1    7.45    1.86
 -10   4   1    3.97    1.52
  10  -4  -1    5.04    0.66
  10  -4  -1    4.05    0.60
  10  -4  -2  207.20   25.16
 -10   4   2  215.90   26.18
  10  -4  -2  203.20   11.04
  10  -4  -3   -0.23    1.58
 -10   4   3    1.62    1.53
  10  -4  -3    0.60    0.60
  10  -4  -4   27.89    3.96
 -10   4   4   25.46    3.57
  10  -4  -4   39.85    2.40
  10  -4  -5    9.63    2.15
 -10   4   5   12.30    2.25
  10  -4  -5    7.94    0.87
  10  -4  -6   44.52    5.82
 -10   4   6   45.91    5.89
  10  -4  -6   33.28    2.09
  10  -4  -7  223.90   27.17
 -10   4   7  237.40   28.80
  10  -4  -7  245.90   13.36
  10  -4  -8  532.90   64.30
 -10   4   8  573.20   69.17
  10  -4  -8  524.80   28.26
  10  -4  -8  554.50   29.87
  10  -4  -9   28.21    3.98
 -10   4   9   29.19    3.97
  10  -4  -9   30.23    1.95
  10  -4  -9   30.64    1.94
  10  -4 -10  100.80   12.48
  10  -4 -10  124.00    6.86
  10  -4 -10  126.70    6.99
  10  -4 -11   28.78    4.02
  10  -4 -11   39.04    2.38
  10  -4 -11   39.13    2.40
  10  -4 -12    0.20    1.58
  10  -4 -12    1.34    0.71
  10  -4 -12    0.71    0.64
  10  -4 -13   20.35    3.27
  10  -4 -13   23.49    1.67
  10  -4 -13   23.78    1.63
  10  -4 -14   60.21    7.69
  10  -4 -14   53.73    3.17
  10  -4 -14   50.93    3.01
  10  -4 -15    4.08    1.69
  10  -4 -15    6.94    0.86
  10  -4 -15    8.05    0.87
  10  -4 -16   46.22    6.00
  10  -4 -16   47.31    2.80
  10  -4 -16   47.48    2.82
  10  -4 -17    2.67    1.75
  10  -4 -17    1.34    0.78
  10  -4 -17    0.88    0.56
  10  -4 -18    2.29    1.55
  10  -4 -18    0.69    0.74
  10  -4 -18   -0.20    0.64
  10  -4 -19   -1.77    1.54
  10  -4 -19    0.33    0.77
  10  -4 -19    0.11    0.62
  10  -4 -20    0.45    1.43
  10  -4 -20   -0.22    0.75
  10  -4 -20    0.57    0.61
  10  -4 -21   -0.11    1.48
  10  -4 -21   -0.24    0.77
  10  -4 -21    0.75    0.66
  10  -4 -22    6.53    1.71
  10  -4 -22    7.20    1.05
  10  -4 -22    7.85    0.80
 -11   3 -12    4.44    1.53
 -11   3 -11   21.23    3.12
 -11   3 -10   15.12    2.43
 -11   3  -9    3.94    1.75
 -11   3  -8   42.30    5.46
 -11   3  -7  106.90   13.11
 -11   3  -6   -0.38    1.68
 -11   3  -5  159.50   19.41
  11  -3   4    0.48    1.63
 -11   3  -4   -0.40    1.35
  11  -3   4    1.70    0.34
  11  -3   4    1.67    0.31
  11  -3   3   23.93    3.58
 -11   3  -3   24.48    3.52
  11  -3   3   23.30    1.39
  11  -3   3   24.20    1.44
  11  -3   2  114.70   14.10
 -11   3  -2  114.60   14.10
  11  -3   2   97.80    5.35
  11  -3   2   93.94    5.15
  11  -3   1   72.49    9.08
 -11   3  -1   73.11    9.14
  11  -3   1   53.33    3.01
  11  -3   1   56.75    3.20
  11  -3   0   33.89    4.61
 -11   3   0   32.50    4.43
  11  -3   0   34.28    2.03
  11  -3   0   33.55    1.98
  11  -3  -1  241.90   29.32
 -11   3   1  244.10   29.58
  11  -3  -1  228.60   12.37
  11  -3  -1  219.80   11.90
  11  -3  -2    2.13    1.48
 -11   3   2    1.53    1.66
  11  -3  -2    2.07    0.62
  11  -3  -2    1.64    0.59
  11  -3  -3  231.90   28.15
 -11   3   3  232.90   28.24
  11  -3  -3  237.80   12.90
  11  -3  -3  232.00   12.57
  11  -3  -4  143.20   17.52
 -11   3   4  143.50   17.50
  11  -3  -4  141.70    7.78
  11  -3  -4  147.20    8.06
  11  -3  -5    7.68    2.06
 -11   3   5    4.74    1.58
  11  -3  -5    1.17    0.69
  11  -3  -5    1.39    0.63
  11  -3  -6   78.73    9.82
 -11   3   6   73.10    9.09
  11  -3  -6   88.93    4.97
  11  -3  -6   93.64    5.24
  11  -3  -7   40.31    5.37
 -11   3   7   46.88    6.06
  11  -3  -7   40.37    2.43
  11  -3  -7   37.23    2.30
  11  -3  -8   22.31    3.44
 -11   3   8   19.03    3.04
  11  -3  -8   14.14    1.10
  11  -3  -8   16.30    1.29
  11  -3  -9  196.50   23.91
 -11   3   9  193.50   23.53
  11  -3  -9  205.40   11.19
  11  -3  -9  187.90   10.27
  11  -3 -10   42.01    5.54
  11  -3 -10   40.28    2.43
  11  -3 -10   38.47    2.34
  11  -3 -11   10.46    2.28
  11  -3 -11   19.73    1.42
  11  -3 -11   21.99    1.52
  11  -3 -12   56.04    7.22
  11  -3 -12   47.26    2.80
  11  -3 -12   46.41    2.82
  11  -3 -13   16.92    2.78
  11  -3 -13    9.94    1.09
  11  -3 -13   11.17    1.00
  11  -3 -14    3.17    1.67
  11  -3 -14    5.17    0.85
  11  -3 -14    4.03    0.80
  11  -3 -15   22.09    3.33
  11  -3 -15   26.55    1.82
  11  -3 -15   25.44    1.69
  11  -3 -16    5.12    2.09
  11  -3 -16    3.56    0.70
  11  -3 -16    3.48    0.89
  11  -3 -17    1.56    1.95
  11  -3 -17    2.63    0.69
  11  -3 -17    2.18    0.76
  11  -3 -18   25.84    3.69
  11  -3 -19   17.56    2.83
  11  -3 -19   13.67    1.06
  11  -3 -19   11.44    1.03
  11  -3 -20    2.37    1.62
  11  -3 -20    4.41    0.65
  11  -3 -20    5.07    0.88
  11  -3 -21    0.13    1.64
  11  -3 -21    1.34    0.70
  11  -3 -21    0.57    0.80
  11  -3 -22    1.73    1.58
  11  -3 -22    1.17    0.81
  11  -3 -22    1.37    0.75
 -12   2 -12    4.16    1.58
 -12   2 -11    2.31    1.49
 -12   2 -10    1.63    1.85
 -12   2  -9  109.80   13.46
 -12   2  -8    7.61    1.99
 -12   2  -7  144.40   17.61
 -12   2  -6   34.57    4.57
 -12   2  -5    9.57    2.09
  12  -2   4    3.07    1.64
 -12   2  -4    2.03    1.65
  12  -2   3  158.40   19.32
 -12   2  -3  161.80   19.73
  12  -2   3  130.70    7.09
  12  -2   3  126.50    6.87
  12  -2   2    3.34    1.63
 -12   2  -2    3.25    1.83
  12  -2   1  199.40   24.21
 -12   2  -1  201.50   24.50
  12  -2   0   26.34    3.78
 -12   2   0   20.81    3.06
  12  -2   0   24.23    1.52
  12  -2   0   21.93    1.40
  12  -2  -1   19.44    3.08
 -12   2   1   16.34    2.62
  12  -2  -1   29.67    1.80
  12  -2  -1   30.22    1.84
  12  -2  -2    1.81    1.53
 -12   2   2    1.01    1.64
  12  -2  -2    1.94    0.60
  12  -2  -2    1.75    0.55
  12  -2  -3   17.84    3.05
 -12   2   3   19.22    3.07
  12  -2  -3   12.10    1.02
  12  -2  -3   12.67    1.00
  12  -2  -4    7.84    2.16
 -12   2   4    8.39    2.09
  12  -2  -4    6.96    0.85
  12  -2  -4    6.80    0.78
  12  -2  -5  206.80   25.18
 -12   2   5  216.00   26.23
  12  -2  -5  213.40   11.60
  12  -2  -5  211.40   11.50
  12  -2  -6    3.04    1.99
 -12   2   6    3.76    1.60
  12  -2  -6    3.22    0.71
  12  -2  -6    3.72    0.71
  12  -2  -7   19.82    3.23
 -12   2   7   23.86    3.49
  12  -2  -8    2.68    1.90
 -12   2   8    1.58    1.77
  12  -2  -8    1.54    0.69
  12  -2  -8    2.84    0.74
  12  -2  -9   25.74    3.72
 -12   2   9   24.84    3.57
  12  -2  -9   15.87    1.21
  12  -2  -9   14.75    1.21
  12  -2 -10   20.11    3.13
  12  -2 -10   25.99    1.73
  12  -2 -10   24.09    1.65
  12  -2 -11   63.70    8.06
  12  -2 -11   57.97    3.33
  12  -2 -11   60.55    3.52
  12  -2 -12   25.10    3.81
  12  -2 -12   22.76    1.61
  12  -2 -12   21.74    1.54
  12  -2 -13   67.88    8.64
  12  -2 -13   72.21    4.13
  12  -2 -13   73.94    4.22
  12  -2 -14   12.03    2.56
  12  -2 -15    1.79    2.04
  12  -2 -15   -0.49    0.74
  12  -2 -15    1.22    0.74
  12  -2 -16    2.48    2.13
  12  -2 -16    2.11    0.65
  12  -2 -16    1.97    0.72
  12  -2 -17   53.67    6.92
  12  -2 -17   43.77    2.57
  12  -2 -17   42.77    2.58
  12  -2 -18    0.37    1.86
  12  -2 -18   -0.47    0.61
  12  -2 -18   -0.13    0.80
  12  -2 -19   36.42    4.83
  12  -2 -19   38.98    2.32
  12  -2 -19   38.29    2.35
  12  -2 -20    3.58    1.87
  12  -2 -20    2.62    0.69
  12  -2 -20    1.11    0.80
  12  -2 -21    2.09    1.72
  12  -2 -21    3.59    0.70
  12  -2 -21    5.22    0.81
  12  -2 -22   -0.10    1.59
  12  -2 -22    0.34    0.88
  12  -2 -22   -0.11    0.70
 -13   1 -11    5.01    1.58
 -13   1 -10    2.20    1.80
 -13   1  -9    2.29    1.72
 -13   1  -8   32.50    4.41
 -13   1  -7   -1.27    1.70
 -13   1  -6   68.84    8.64
 -13   1  -5  107.10   13.14
  13  -1   4   36.86    5.02
 -13   1  -4   30.87    4.24
  13  -1   3   32.81    4.58
 -13   1  -3   25.79    3.74
  13  -1   3   31.25    1.81
  13  -1   3   29.22    1.70
  13  -1   2   53.77    6.93
 -13   1  -2   54.44    6.95
  13  -1   2   49.28    2.79
  13  -1   2   48.97    2.78
  13  -1   1   24.80    3.86
 -13   1  -1   26.95    3.93
  13  -1   1   18.53    1.26
  13  -1   1   16.96    1.16
  13  -1   0   75.28    9.48
 -13   1   0   68.43    8.61
  13  -1   0   67.38    3.79
  13  -1   0   68.09    3.83
  13  -1  -1   39.60    5.32
 -13   1   1   39.62    5.25
  13  -1  -1   39.70    2.38
  13  -1  -1   38.80    2.32
  13  -1  -2    4.00    1.62
 -13   1   2    7.11    1.87
  13  -1  -2    3.39    0.70
  13  -1  -2    1.87    0.62
  13  -1  -3  154.60   18.87
 -13   1   3  154.70   18.88
  13  -1  -3  175.30    9.57
  13  -1  -3  174.00    9.49
  13  -1  -4   25.53    3.61
 -13   1   4   21.13    3.18
  13  -1  -4   18.94    1.33
  13  -1  -4   20.07    1.38
  13  -1  -5    1.66    1.80
 -13   1   5    0.69    1.55
  13  -1  -5    2.23    0.65
  13  -1  -5    0.96    0.66
  13  -1  -6   89.07   11.10
 -13   1   6   96.24   11.89
  13  -1  -7   77.92    9.81
 -13   1   7   80.46   10.04
  13  -1  -7   72.68    4.14
  13  -1  -7   73.99    4.20
  13  -1  -8    0.41    2.03
 -13   1   8    2.28    1.75
  13  -1  -8    2.08    0.71
  13  -1  -8    2.02    0.61
  13  -1  -9   25.08    3.77
 -13   1   9   25.65    3.73
  13  -1  -9   31.77    2.02
  13  -1  -9   32.09    2.00
  13  -1 -10   70.11    8.92
 -13   1  10   64.06    8.14
  13  -1 -10   50.12    2.95
  13  -1 -10   52.52    3.12
  13  -1 -11   -2.97    2.26
  13  -1 -11    1.28    0.78
  13  -1 -11    0.63    0.70
  13  -1 -12  110.00   13.64
  13  -1 -12   98.61    5.53
  13  -1 -12  101.20    5.63
  13  -1 -13    0.04    2.00
  13  -1 -13    0.64    0.72
  13  -1 -13    1.05    0.71
  13  -1 -14   31.86    4.42
  13  -1 -14   36.31    2.23
  13  -1 -14   35.60    2.23
  13  -1 -15   19.46    3.03
  13  -1 -15   14.97    1.24
  13  -1 -15   15.98    1.23
  13  -1 -16    0.67    1.77
  13  -1 -16    1.03    0.66
  13  -1 -16   -0.05    0.70
  13  -1 -17    9.43    2.51
  13  -1 -17   11.67    1.01
  13  -1 -17    9.74    1.01
  13  -1 -18   18.25    3.12
  13  -1 -18   15.69    1.17
  13  -1 -18   16.15    1.27
  13  -1 -19    0.53    1.63
  13  -1 -19    0.70    0.74
  13  -1 -19    1.02    0.59
  13  -1 -20    9.70    2.16
  13  -1 -20   14.00    1.12
  13  -1 -20   15.29    1.30
  13  -1 -21   13.00    2.46
  13  -1 -21   11.66    1.02
  13  -1 -21   12.23    1.15
  13  -1 -22   -1.02    1.66
  13  -1 -22   -0.49    0.68
  13  -1 -22    1.26    0.74
 -14   0 -10    9.78    2.11
 -14   0  -9   -0.95    1.59
 -14   0  -8    0.32    1.86
 -14   0  -7    0.81    1.87
 -14   0  -6   22.53    3.49
 -14   0  -5    0.33    1.70
 -14   0  -4  185.60   22.58
  14   0   3    1.50    1.48
 -14   0  -3    1.27    1.65
  14   0   3    1.06    0.46
  14   0   3    1.75    0.50
  14   0   2   17.76    2.82
 -14   0  -2   15.98    2.74
  14   0   2   23.81    1.47
  14   0   2   21.68    1.36
  14   0   1    0.93    1.62
 -14   0  -1   -0.16    1.46
  14   0   1   -0.46    0.58
  14   0   1    0.22    0.59
  14   0   0    9.51    2.37
 -14   0   0   10.62    2.31
  14   0   0    9.16    0.86
  14   0   0    9.57    0.89
  14   0  -1    5.19    2.21
 -14   0   1   -0.61    1.80
  14   0  -1    1.49    0.67
  14   0  -1   -0.28    0.63
  14   0  -2  194.10   23.67
 -14   0   2  181.10   22.08
  14   0  -2  184.60   10.07
  14   0  -2  184.60   10.04
  14   0  -3    0.23    1.72
 -14   0   3    0.55    1.86
  14   0  -3   -0.12    0.66
  14   0  -3    0.42    0.67
  14   0  -4   43.12    5.81
 -14   0   4   51.26    6.60
  14   0  -4   65.63    3.76
  14   0  -4   67.63    3.85
  14   0  -5    1.99    2.15
 -14   0   5    1.34    1.77
  14   0  -5   -0.16    0.67
  14   0  -5    0.34    0.62
  14   0  -6   29.87    4.41
 -14   0   6   32.15    4.46
  14   0  -6   35.33    2.18
  14   0  -6   36.48    2.24
  14   0  -7    1.55    2.12
 -14   0   7    1.06    1.84
  14   0  -7    1.30    0.62
  14   0  -7    1.35    0.61
  14   0  -8  207.40   25.26
 -14   0   8  215.60   26.24
  14   0  -8  203.30   11.08
  14   0  -8  214.30   11.69
  14   0  -9   -3.31    2.17
 -14   0   9    1.69    1.89
  14   0  -9    1.53    0.73
  14   0  -9    0.60    0.70
  14   0 -10   73.37    9.24
 -14   0  10   72.23    9.15
  14   0 -10   84.42    4.77
  14   0 -10   84.73    4.77
  14   0 -11    1.70    2.30
  14   0 -11    0.56    0.78
  14   0 -11   -0.61    0.69
  14   0 -12   24.79    3.85
  14   0 -12   23.50    1.65
  14   0 -12   25.36    1.72
  14   0 -13   -0.69    1.93
  14   0 -13   -0.32    0.77
  14   0 -13    0.36    0.71
  14   0 -14   14.83    2.81
  14   0 -14   10.64    1.06
  14   0 -14   12.62    1.09
  14   0 -15   -2.22    2.29
  14   0 -15    0.63    0.70
  14   0 -15   -0.65    0.67
  14   0 -16    3.20    1.98
  14   0 -16    6.61    0.94
  14   0 -16    6.96    0.83
  14   0 -17   -1.13    1.85
  14   0 -17   -0.39    0.69
  14   0 -17   -0.46    0.66
  14   0 -18    3.42    1.90
  14   0 -18    9.26    0.98
  14   0 -18    9.58    0.96
  14   0 -19   -2.16    1.70
  14   0 -19    0.81    0.73
  14   0 -19    0.35    0.71
  14   0 -20   12.33    2.68
  14   0 -20    8.34    0.97
  14   0 -20    8.87    0.90
  14   0 -21    0.79    1.84
  14   0 -21    0.31    0.66
  14   0 -21    0.47    0.68
  14   0 -22   22.22    3.38
  14   0 -22   25.30    1.75
  14   0 -22   25.47    1.67
 -15  -1  -9    1.04    1.56
 -15  -1  -8   24.17    3.56
 -15  -1  -7    5.21    2.23
 -15  -1  -6   14.26    2.81
 -15  -1  -5   19.10    3.01
 -15  -1  -4    6.77    2.14
  15   1   3   47.86    6.30
 -15  -1  -3   51.73    6.71
  15   1   3   46.17    2.61
  15   1   3   47.99    2.71
  15   1   2   63.42    8.05
 -15  -1  -2   67.19    8.41
  15   1   2   67.18    3.75
  15   1   2   67.64    3.79
  15   1   1    0.00    1.65
 -15  -1  -1   -2.41    1.83
  15   1   1    0.53    0.63
  15   1   1   -0.09    0.58
  15   1   0   26.32    3.88
 -15  -1   0   24.32    3.63
  15   1   0   26.09    1.67
  15   1   0   27.49    1.73
  15   1  -1   15.72    2.92
 -15  -1   1   21.02    3.22
  15   1  -1   18.57    1.34
  15   1  -1   18.75    1.34
  15   1  -2    5.95    2.16
 -15  -1   2    7.67    2.21
  15   1  -2   11.65    1.03
  15   1  -2   11.78    1.03
  15   1  -3   54.36    7.02
 -15  -1   3   44.57    5.88
  15   1  -4   40.34    5.43
 -15  -1   4   39.69    5.33
  15   1  -4   32.42    2.04
  15   1  -4   33.27    2.05
  15   1  -5    2.33    2.09
 -15  -1   5    2.98    1.95
  15   1  -5    0.98    0.65
  15   1  -5    0.04    0.70
  15   1  -6   18.03    3.26
 -15  -1   6   16.54    2.98
  15   1  -6   18.58    1.35
  15   1  -6   18.69    1.40
  15   1  -7   -0.69    2.22
 -15  -1   7    0.56    2.06
  15   1  -7    0.62    0.67
  15   1  -7    1.13    0.78
  15   1  -8   32.38    4.80
 -15  -1   8   29.40    4.36
  15   1  -8   42.13    2.58
  15   1  -8   41.43    2.54
  15   1  -9   39.87    5.66
 -15  -1   9   34.75    4.84
  15   1  -9   39.06    2.39
  15   1  -9   38.26    2.36
  15   1 -10    1.04    2.39
 -15  -1  10    1.39    2.16
  15   1 -10    1.60    0.71
  15   1 -10    1.14    0.75
  15   1 -11    0.82    2.14
  15   1 -11    2.00    0.79
  15   1 -11    1.44    0.73
  15   1 -12   12.29    3.02
  15   1 -12    9.97    1.04
  15   1 -12    9.58    1.00
  15   1 -13   -1.94    2.40
  15   1 -13    0.35    0.76
  15   1 -13    0.32    0.73
  15   1 -14    5.46    2.08
  15   1 -14   10.41    1.04
  15   1 -14   10.78    1.03
  15   1 -15   42.75    5.83
  15   1 -15   38.57    2.39
  15   1 -15   37.75    2.30
  15   1 -16    9.28    2.55
  15   1 -16    5.87    0.91
  15   1 -16    4.56    0.83
  15   1 -17    1.14    1.87
  15   1 -17    0.97    0.70
  15   1 -17    2.07    0.70
  15   1 -18    2.71    1.96
  15   1 -18    3.14    0.79
  15   1 -18    3.33    0.76
  15   1 -19    0.47    2.00
  15   1 -19   -0.08    0.75
  15   1 -19    0.39    0.58
  15   1 -20   19.21    3.03
  15   1 -20   15.22    1.27
  15   1 -20   16.72    1.25
  15   1 -21    3.41    1.74
  15   1 -21    4.90    0.84
  15   1 -21    4.32    0.72
  15   1 -22   -2.70    1.78
  15   1 -22    0.66    0.82
  15   1 -22    1.29    0.74
 -16  -2  -7   21.63    3.25
 -16  -2  -6    2.32    2.01
 -16  -2  -5    3.91    1.95
 -16  -2  -4    1.05    1.88
 -16  -2  -3    3.02    2.03
  16   2   3   -0.24    0.61
  16   2   3    1.23    0.65
  16   2   2    1.87    1.88
 -16  -2  -2    3.17    1.80
  16   2   2    2.15    0.66
  16   2   2    2.08    0.60
  16   2   1   44.67    5.81
 -16  -2  -1   53.94    6.95
  16   2   1   54.21    3.11
  16   2   1   52.65    3.02
  16   2   0   13.15    2.56
 -16  -2   0   16.17    2.74
  16   2  -1    8.97    2.19
 -16  -2   1   12.68    2.66
  16   2  -1   13.61    1.14
  16   2  -1   14.31    1.11
  16   2  -2    2.66    2.21
 -16  -2   2    2.20    2.05
  16   2  -2    2.94    0.71
  16   2  -2    3.61    0.72
  16   2  -3   -1.47    2.29
 -16  -2   3    0.31    1.92
  16   2  -3    1.64    0.64
  16   2  -3    0.23    0.66
  16   2  -4   -1.39    2.36
 -16  -2   4    1.44    1.96
  16   2  -4    0.72    0.66
  16   2  -5   88.17   11.07
 -16  -2   5   85.16   10.66
  16   2  -5   77.87    4.40
  16   2  -6    7.93    2.46
 -16  -2   6    6.52    2.16
  16   2  -6    9.01    0.95
  16   2  -7    7.74    2.33
 -16  -2   7    5.91    2.24
  16   2  -7    6.95    0.90
  16   2  -8    5.65    2.40
 -16  -2   8    5.46    2.02
  16   2  -8    6.57    0.83
  16   2  -9   -0.28    2.13
 -16  -2   9    2.62    2.03
  16   2  -9   -0.06    0.72
  16   2 -10    1.69    2.19
 -16  -2  10    0.04    2.03
  16   2 -10    2.07    0.67
  16   2 -11   24.29    3.85
  16   2 -11   25.42    1.75
  16   2 -12    2.59    2.14
  16   2 -12    2.80    0.74
  16   2 -12    1.55    0.77
  16   2 -13   60.88    7.91
  16   2 -13   61.53    3.58
  16   2 -13   58.62    3.40
  16   2 -14    6.55    2.84
  16   2 -14    4.52    0.81
  16   2 -14    4.07    0.85
  16   2 -15    5.37    2.32
  16   2 -15    8.45    0.99
  16   2 -15    9.27    0.87
  16   2 -16    1.04    2.32
  16   2 -16    0.90    0.70
  16   2 -16    1.03    0.70
  16   2 -17    6.41    1.94
  16   2 -17    3.43    0.81
  16   2 -17    3.08    0.74
  16   2 -18    3.06    2.13
  16   2 -18    0.64    0.74
  16   2 -18    0.43    0.65
  16   2 -19    8.69    2.20
  16   2 -19   10.16    1.02
  16   2 -19   10.97    0.98
  16   2 -20    1.33    1.88
  16   2 -20    0.09    0.78
  16   2 -20    0.89    0.68
  16   2 -21    3.36    1.77
  16   2 -21    8.97    1.03
  16   2 -21    9.80    0.95
 -17  -3  -6    3.13    1.71
 -17  -3  -5   17.34    3.02
 -17  -3  -4    1.06    1.96
 -17  -3  -3    9.10    2.17
  17   3   3    8.06    0.87
  17   3   3    9.03    0.91
  17   3   2   10.28    2.44
 -17  -3  -2    7.16    1.98
  17   3   2    7.33    0.87
  17   3   2    6.31    0.83
  17   3   1    2.17    1.91
 -17  -3  -1    1.29    1.89
  17   3   1    0.14    0.70
  17   3   1    0.48    0.66
  17   3   0   17.16    2.97
 -17  -3   0   15.33    2.64
  17   3   0   18.36    1.35
  17   3   0   17.33    1.26
  17   3  -1    3.33    2.15
 -17  -3   1    1.10    1.73
  17   3  -1    3.28    0.79
  17   3  -1    4.07    0.73
  17   3  -2    3.36    2.17
 -17  -3   2    2.27    1.78
  17   3  -2    1.30    0.69
  17   3  -2    1.48    0.68
  17   3  -3   15.30    3.00
 -17  -3   3   15.52    2.90
  17   3  -3   15.04    1.17
  17   3  -4    1.06    1.94
 -17  -3   4    3.01    2.06
  17   3  -4    1.19    0.70
  17   3  -5    0.99    1.83
 -17  -3   5    2.55    1.83
  17   3  -5   -0.73    0.65
  17   3  -6   44.64    6.00
 -17  -3   6   41.24    5.52
  17   3  -6   41.90    2.51
  17   3  -7   18.45    3.36
 -17  -3   7   14.47    2.95
  17   3  -7   12.83    1.08
  17   3  -8    5.74    2.55
 -17  -3   8    4.95    2.07
  17   3  -8    7.95    0.90
  17   3  -9   28.95    4.35
 -17  -3   9   31.24    4.44
  17   3  -9   37.43    2.27
  17   3 -10    1.32    2.29
 -17  -3  10    0.99    1.85
  17   3 -10    0.03    0.61
  17   3 -11    4.24    2.52
  17   3 -11    9.84    0.98
  17   3 -12    0.59    2.33
  17   3 -12    0.40    0.64
  17   3 -13    1.13    2.33
  17   3 -13    0.11    0.68
  17   3 -14    3.27    2.34
  17   3 -14    3.49    0.69
  17   3 -14    1.93    0.70
  17   3 -15   17.03    3.30
  17   3 -15   15.43    1.27
  17   3 -15   13.18    1.10
  17   3 -16    0.50    2.06
  17   3 -16    4.47    0.78
  17   3 -16    4.25    0.78
  17   3 -17   19.27    3.27
  17   3 -17   20.11    1.45
  17   3 -17   20.02    1.37
  17   3 -18    2.05    2.36
  17   3 -18   -0.17    0.68
  17   3 -18    0.87    0.61
  17   3 -19    2.06    1.94
  17   3 -19   -0.49    0.75
  17   3 -19    0.72    0.67
  17   3 -20    2.45    1.69
  17   3 -20    1.26    0.82
  17   3 -20    0.96    0.77
  17   3 -21    1.15    1.64
  17   3 -21    2.14    0.91
  17   3 -21    1.66    0.71
 -18  -4  -4   21.74    3.31
 -18  -4  -3    0.16    2.00
  18   4   3    2.54    0.76
  18   4   3    1.44    0.82
 -18  -4  -2    8.52    2.34
  18   4   2   10.08    1.03
  18   4   2    9.56    1.06
  18   4   1   -0.20    1.98
 -18  -4  -1    2.31    2.15
  18   4   1    2.03    0.81
  18   4   1    2.46    0.82
  18   4   0    1.89    1.91
 -18  -4   0    0.06    1.97
  18   4   0    0.15    0.77
  18   4   0   -0.30    0.76
  18   4  -1    1.85    2.23
 -18  -4   1    2.13    2.00
  18   4  -1    5.20    0.85
  18   4  -1    6.34    0.86
  18   4  -2   16.19    2.97
 -18  -4   2   14.83    2.73
  18   4  -2   16.08    1.25
  18   4  -2   16.86    1.26
  18   4  -3   -0.51    2.01
 -18  -4   3   -0.10    1.86
  18   4  -3    0.46    0.67
  18   4  -4   24.22    3.92
 -18  -4   4   25.86    3.88
  18   4  -4   28.53    1.82
  18   4  -5   20.55    3.73
 -18  -4   5   17.43    2.95
  18   4  -5   24.76    1.64
  18   4  -6    1.93    2.12
 -18  -4   6    0.07    2.14
  18   4  -6    0.41    0.66
  18   4  -7   10.67    2.92
 -18  -4   7   11.58    2.70
  18   4  -7   10.84    1.02
  18   4  -8   30.18    4.45
 -18  -4   8   29.29    4.33
  18   4  -8   23.60    1.58
  18   4  -9    2.37    2.34
 -18  -4   9    3.37    2.20
  18   4  -9    5.74    0.80
  18   4 -10   17.68    3.20
  18   4 -10   24.47    1.61
  18   4 -11    3.13    2.43
  18   4 -11    3.49    0.72
  18   4 -12    1.67    2.57
  18   4 -12    2.44    0.72
  18   4 -13    4.04    2.46
  18   4 -13    3.52    0.66
  18   4 -14    9.54    2.75
  18   4 -14    6.65    0.85
  18   4 -15    4.16    2.69
  18   4 -15    4.03    0.71
  18   4 -16   16.98    3.67
  18   4 -16   14.29    1.17
  18   4 -16   14.35    1.06
  18   4 -17   -0.29    2.74
  18   4 -17   -0.54    0.78
  18   4 -17    0.04    0.65
  18   4 -18    5.72    2.66
  18   4 -18    5.75    0.91
  18   4 -18    6.22    0.77
  18   4 -19    1.22    1.84
  18   4 -19    0.84    0.79
  18   4 -19    1.33    0.71
  18   4 -20    1.17    1.81
  18   4 -20   -0.10    0.78
  18   4 -20    1.51    0.79
 -19  -5  -3    2.11    1.97
  19   5   3    1.57    0.84
  19   5   3    1.56    0.84
 -19  -5  -2    6.54    2.09
  19   5   2    5.82    0.94
  19   5   2    6.61    0.95
 -19  -5  -1    2.02    1.69
  19   5   1    1.23    0.93
  19   5   1    2.40    0.86
  19   5   0    4.99    2.04
 -19  -5   0    7.89    2.22
  19   5   0    8.46    1.08
  19   5   0    8.64    1.05
  19   5  -1    1.63    1.74
 -19  -5   1    0.88    1.80
  19   5  -1    1.08    0.83
  19   5  -1    1.02    0.78
  19   5  -2    9.46    2.61
 -19  -5   2    9.66    2.37
  19   5  -2   14.90    1.23
  19   5  -3    2.17    2.18
 -19  -5   3    2.87    2.06
  19   5  -3    1.71    0.75
  19   5  -4    7.98    2.62
 -19  -5   4    5.85    2.20
  19   5  -4    6.32    0.83
  19   5  -5    0.44    2.28
 -19  -5   5    2.16    2.06
  19   5  -5    1.53    0.67
  19   5  -6    7.06    2.64
 -19  -5   6   13.43    2.85
  19   5  -6   12.01    1.07
  19   5  -7   -0.55    2.56
 -19  -5   7    3.97    2.26
  19   5  -7    2.28    0.68
  19   5  -8   44.02    5.93
 -19  -5   8   41.51    5.55
  19   5  -8   45.48    2.67
  19   5  -9    2.39    2.45
 -19  -5   9    4.70    2.21
  19   5  -9    2.68    0.73
  19   5 -10    2.85    2.47
  19   5 -10    1.37    0.69
  19   5 -11    6.83    2.76
  19   5 -11    5.89    0.81
  19   5 -12   15.69    3.48
  19   5 -12   16.73    1.25
  19   5 -13    4.04    2.70
  19   5 -13   -0.74    0.61
  19   5 -14    0.58    2.59
  19   5 -14    3.77    0.74
  19   5 -15    2.10    2.49
  19   5 -15    3.15    0.69
  19   5 -16    2.34    2.33
  19   5 -16    1.51    0.64
  19   5 -17    4.35    2.45
  19   5 -17    1.45    0.72
  19   5 -17    2.47    0.66
  19   5 -18    3.58    2.36
  19   5 -18    2.09    0.76
  19   5 -18    0.86    0.70
  19   5 -19   -1.38    2.19
  19   5 -19    0.59    0.80
  19   5 -19    1.41    0.74
  20   6   1    4.42    1.11
  20   6   1    5.67    1.00
  20   6   0   -0.22    1.82
 -20  -6   0    1.11    2.21
  20   6   0   -0.58    0.95
  20   6   0    0.21    0.92
  20   6  -1    3.93    2.04
 -20  -6   1    5.74    2.21
  20   6  -1    5.62    0.93
  20   6  -1    6.22    0.96
  20   6  -2    3.42    1.92
 -20  -6   2    5.72    2.16
  20   6  -2    6.15    0.94
  20   6  -3    0.58    2.11
 -20  -6   3   -1.42    1.95
  20   6  -3    0.60    0.82
  20   6  -4    1.95    2.31
 -20  -6   4   -1.18    2.04
  20   6  -4    0.38    0.74
  20   6  -5    6.96    2.84
 -20  -6   5    9.23    2.44
  20   6  -5    9.45    0.93
  20   6  -6    0.44    2.39
 -20  -6   6    1.26    2.13
  20   6  -6    0.34    0.67
  20   6  -7   13.85    3.25
 -20  -6   7   11.57    2.77
  20   6  -7   14.77    1.15
  20   6  -8    1.13    2.81
 -20  -6   8    5.71    2.10
  20   6  -8    5.10    0.81
  20   6  -9   11.01    2.79
 -20  -6   9    9.74    2.39
  20   6  -9   14.61    1.13
  20   6 -10    0.55    2.35
  20   6 -10    6.08    0.75
  20   6 -11    2.23    2.85
  20   6 -11    2.51    0.73
  20   6 -12    4.96    2.76
  20   6 -12    0.95    0.63
  20   6 -13   14.62    3.46
  20   6 -13   11.02    0.99
  20   6 -14    1.08    2.82
  20   6 -14    1.73    0.69
  20   6 -15    0.55    2.85
  20   6 -15    1.48    0.74
  20   6 -16    5.75    2.47
  20   6 -16    5.11    0.82
  20   6 -17    1.97    2.18
  20   6 -17    0.15    0.67
  20   6 -18   -2.38    2.16
  20   6 -18    1.52    0.86
  20   6 -18    2.84    0.70
  21   7  -2    1.38    2.54
 -21  -7   2    2.12    2.59
  21   7  -2    0.88    0.89
  21   7  -2    0.86    0.88
  21   7  -3   10.60    2.58
 -21  -7   3   13.10    2.89
  21   7  -3   17.01    1.33
  21   7  -4    1.08    2.17
 -21  -7   4   -1.74    2.44
  21   7  -4    0.66    0.80
  21   7  -5    3.32    2.32
 -21  -7   5    4.43    2.25
  21   7  -5    6.76    0.91
  21   7  -6    0.74    2.58
 -21  -7   6    1.64    2.02
  21   7  -6    0.95    0.59
  21   7  -7   -0.33    2.30
 -21  -7   7    0.06    2.03
  21   7  -7   -0.19    0.66
  21   7  -8   -0.75    2.54
 -21  -7   8    0.56    2.01
  21   7  -8    0.92    0.67
  21   7  -9   14.69    3.41
  21   7  -9   13.55    1.17
  21   7 -10   -1.63    2.76
  21   7 -10   -0.24    0.66
  21   7 -11    6.03    2.89
  21   7 -11    8.86    0.89
  21   7 -12    0.89    2.80
  21   7 -12    0.32    0.61
  21   7 -13    1.62    2.35
  21   7 -13    5.21    0.75
  21   7 -14   -0.77    2.29
  21   7 -14    0.31    0.66
  21   7 -15    0.70    2.13
  21   7 -15    2.77    0.70
  21   7 -16    2.45    2.12
  21   7 -16    0.97    0.69
  22   8  -6   -0.24    2.65
  22   8  -6    1.42    0.95
  22   8  -7    3.68    2.89
 -22  -8   7    5.45    2.40
  22   8  -7    2.58    0.81
  22   8  -8    1.17    2.50
  22   8  -8    1.57    0.72
  22   8  -9    0.30    2.46
  22   8  -9    1.37    0.67
  22   8 -10    3.65    2.46
  22   8 -10    6.62    0.86
  22   8 -11   -0.96    2.47
  22   8 -11   -0.13    0.63
  22   8 -12    0.98    2.50
  22   8 -12    1.04    0.79
  22   8 -13    0.63    2.83
  22   8 -13   -0.28    0.60
  -6 -22   6    4.26    0.89
   6  22  -6    4.10    0.71
  -6 -22   5   -0.76    0.75
   6  22  -5   -0.84    0.69
  -6 -22   4    1.10    0.67
   6  22  -4    0.21    0.64
  -6 -22   3    0.54    0.80
   6  22  -3    0.14    0.65
  -6 -22   2    1.83    0.80
   6  22  -2    2.27    0.66
  -6 -22   1    0.15    0.75
   6  22  -1   -0.04    0.61
  -6 -22   0   10.87    1.08
   6  22   0    9.99    1.03
  -6 -22  -1    0.07    0.83
   6  22   1    0.38    0.65
   5  21  -9    2.66    1.63
   5  21  -9    0.01    1.70
  -5 -21   9    3.49    0.82
   5  21  -9    1.59    0.59
  -5 -21   8    1.24    0.87
   5  21  -8    2.25    0.69
  -5 -21   7    2.67    0.82
   5  21  -7    3.43    0.73
  -5 -21   6    4.80    0.85
   5  21  -6    3.84    0.73
  -5 -21   5    0.70    0.73
   5  21  -5    0.99    0.71
  -5 -21   4   12.84    1.11
   5  21  -4    9.26    0.96
  -5 -21   3    3.73    0.75
   5  21  -3    3.67    0.69
  -5 -21   2    5.11    0.88
   5  21  -2    6.27    0.81
  -5 -21   1    3.17    0.78
   5  21  -1    4.46    0.76
  -5 -21   0   -0.51    0.75
   5  21   0    0.80    0.66
  -5 -21  -1    2.60    0.81
   5  21   1    2.31    0.74
  -5 -21  -2   15.59    1.26
   5  21   2   15.16    1.19
  -5 -21  -3    5.18    0.74
   5  21   3    4.26    0.82
  -5 -21  -4    5.72    0.81
   5  21   4    6.30    0.87
  -5 -21  -5    4.19    0.84
   5  21   5    2.22    0.86
   4  20 -11    3.62    2.15
  -4 -20  11    5.22    0.87
   4  20 -11    4.43    0.75
   4  20 -10   -0.30    1.85
  -4 -20  10    0.97    0.75
   4  20 -10    0.73    0.67
   4  20  -9    4.07    2.15
   4  20  -9    5.08    1.92
  -4 -20   9    5.84    0.91
   4  20  -9    6.23    0.81
   4  20  -8    2.68    1.94
   4  20  -8    2.26    1.68
  -4 -20   8    1.91    0.77
   4  20  -8    2.12    0.69
  -4 -20   7    0.84    0.76
   4  20  -7   -0.30    0.69
  -4 -20   6   -0.43    0.66
   4  20  -6    0.23    0.66
  -4 -20   5   16.31    1.21
   4  20  -5   16.46    1.20
  -4 -20   4    0.20    0.66
   4  20  -4    0.36    0.73
  -4 -20   3   22.27    1.55
   4  20  -3   23.53    1.52
  -4 -20   2   -1.00    0.79
   4  20  -2    0.37    0.68
  -4 -20   1    3.84    0.86
   4  20  -1    1.64    0.64
  -4 -20   0   -0.23    0.66
   4  20   0   -0.37    0.61
  -4 -20  -1   10.25    0.98
   4  20   1   12.10    0.98
  -4 -20  -2   -0.16    0.66
   4  20   2    0.57    0.63
  -4 -20  -3   24.10    1.58
   4  20   3   22.81    1.51
  -4 -20  -4   -0.14    0.74
   4  20   4   -0.40    0.74
  -4 -20  -5    1.32    0.67
   4  20   5    1.37    0.65
  -4 -20  -6    1.56    0.64
   4  20   6    0.68    0.76
  -4 -20  -7    2.46    0.72
   4  20   7    1.52    0.84
  -4 -20  -8    0.15    0.81
   4  20   8    1.00    0.85
   3  19 -12   -1.24    1.91
  -3 -19  12    0.33    0.79
   3  19 -12   -0.38    0.66
   3  19 -11    4.10    1.93
  -3 -19  11    2.68    0.76
   3  19 -11    2.53    0.76
   3  19 -10    9.65    2.27
  -3 -19  10    9.72    0.96
   3  19 -10    9.57    0.99
   3  19  -9   17.72    2.95
  -3 -19   9   15.39    1.22
   3  19  -9   14.24    1.13
   3  19  -8    2.00    1.80
  -3 -19   8    2.55    0.75
   3  19  -8    2.01    0.68
   3  19  -7    7.21    1.88
  -3 -19   7    7.25    0.93
   3  19  -7    6.57    0.87
   3  19  -6    0.47    1.42
   3  19  -6    0.08    1.16
  -3 -19   6    1.15    0.75
   3  19  -6    1.85    0.66
  -3 -19   5   17.47    1.36
   3  19  -5   16.75    1.22
  -3 -19   4   23.77    1.66
   3  19  -4   21.97    1.49
  -3 -19   3   33.58    2.09
   3  19  -3   33.66    2.04
  -3 -19   2    0.98    0.70
   3  19  -2    0.21    0.75
  -3 -19   1   26.35    1.72
   3  19  -1   24.30    1.58
  -3 -19   0    0.37    0.69
   3  19   0    0.48    0.69
  -3 -19  -1    9.16    0.99
   3  19   1   11.85    1.00
  -3 -19  -2   16.12    1.27
   3  19   2   14.41    1.19
  -3 -19  -3   -0.51    0.75
   3  19   3    1.63    0.67
  -3 -19  -4    5.40    0.82
   3  19   4    5.27    0.76
  -3 -19  -5   15.57    1.24
   3  19   5   17.74    1.31
  -3 -19  -6    0.72    0.68
   3  19   6   -0.07    0.68
  -3 -19  -7   18.68    1.36
   3  19   7   16.33    1.23
  -3 -19  -8    4.72    0.83
   3  19   8    5.15    0.83
  -3 -19  -9   -0.29    0.65
   3  19   9   -0.76    0.80
  -3 -19 -10    0.64    0.83
   3  19  10   -0.13    0.86
   2  18 -13   -4.00    1.87
  -2 -18  13    0.44    0.88
   2  18 -13   -0.03    0.70
   2  18 -12   14.46    2.57
  -2 -18  12   11.63    1.13
   2  18 -12   12.70    1.08
   2  18 -11    7.91    1.99
  -2 -18  11    8.23    0.97
   2  18 -11    9.14    1.00
   2  18 -10    0.09    1.57
  -2 -18  10    0.00    0.73
   2  18 -10   -0.12    0.66
   2  18  -9   16.24    2.52
  -2 -18   9   13.60    1.12
   2  18  -9   12.95    1.11
   2  18  -8   23.90    3.37
  -2 -18   8   22.72    1.58
   2  18  -8   25.19    1.65
   2  18  -7    1.38    1.56
  -2 -18   7    1.78    0.66
   2  18  -7    1.70    0.74
   2  18  -6   27.06    3.72
  -2 -18   6   28.25    1.85
   2  18  -6   25.84    1.71
   2  18  -5    4.29    1.47
  -2 -18   5    1.73    0.81
   2  18  -5    1.38    0.70
   2  18  -4    3.89    1.09
  -2 -18   4    4.18    0.89
   2  18  -4    3.95    0.70
  -2 -18   3    3.42    0.76
   2  18  -3    3.24    0.78
  -2 -18   2   59.70    3.43
   2  18  -2   59.79    3.43
  -2 -18   1   18.20    1.35
   2  18  -1   19.04    1.37
  -2 -18   0   36.70    2.29
   2  18   0   38.98    2.38
  -2 -18  -1    1.51    0.72
   2  18   1    0.89    0.70
  -2 -18  -2   16.79    1.29
   2  18   2   15.98    1.23
  -2 -18  -3    1.58    0.77
   2  18   3    1.98    0.67
  -2 -18  -4    3.49    0.76
   2  18   4    2.59    0.67
  -2 -18  -5    0.61    0.61
   2  18   5    1.48    0.71
  -2 -18  -6   25.93    1.72
   2  18   6   26.74    1.74
  -2 -18  -7    0.49    0.72
   2  18   7    0.86    0.68
  -2 -18  -8   14.39    1.17
   2  18   8   15.03    1.20
  -2 -18  -9    0.54    0.73
   2  18   9    1.59    0.74
  -2 -18 -10    2.05    0.80
   2  18  10    1.77    0.77
  -2 -18 -11    1.66    0.82
   2  18  11    1.33    0.70
   1  17 -14   -0.01    1.76
  -1 -17  14    1.35    0.91
   1  17 -14    1.08    0.75
   1  17 -13    1.30    1.54
  -1 -17  13    1.84    0.88
   1  17 -13    0.90    0.70
   1  17 -12    0.33    1.45
  -1 -17  12    1.70    0.80
   1  17 -12    0.80    0.76
   1  17 -11    0.36    1.43
  -1 -17  11    0.43    0.75
   1  17 -11   -0.07    0.69
   1  17 -10   40.95    5.27
  -1 -17  10   37.83    2.31
   1  17 -10   38.87    2.33
   1  17  -9    1.68    1.38
  -1 -17   9    2.96    0.75
   1  17  -9    2.29    0.70
   1  17  -8   14.86    2.29
  -1 -17   8   15.72    1.27
   1  17  -8   18.15    1.32
   1  17  -7    2.91    1.48
  -1 -17   7    0.43    0.69
   1  17  -7   -0.49    0.66
   1  17  -6   12.92    2.24
  -1 -17   6   15.28    1.23
   1  17  -6   16.06    1.24
   1  17  -5    2.74    1.39
  -1 -17   5    2.77    0.86
   1  17  -5    2.29    0.78
   1  17  -4    5.12    1.46
  -1 -17   4    4.22    0.83
   1  17  -4    5.12    0.91
   1  17  -3    2.15    1.37
  -1 -17   3    0.75    0.68
   1  17  -3    1.06    0.68
  -1 -17   2   18.33    1.36
   1  17  -2   18.28    1.35
  -1 -17   1   10.88    1.08
   1  17  -1   10.53    1.05
  -1 -17   0   26.29    1.74
   1  17   0   28.58    1.82
  -1 -17  -1    5.64    0.90
   1  17   1    6.96    0.86
  -1 -17  -2   27.76    1.80
   1  17   2   26.00    1.70
  -1 -17  -3    3.64    0.80
   1  17   3    4.13    0.81
  -1 -17  -4    3.61    0.76
   1  17   4    2.81    0.78
  -1 -17  -5    0.56    0.63
   1  17   5   -0.63    0.63
  -1 -17  -6   13.24    1.07
   1  17   6   10.52    0.95
  -1 -17  -7    4.27    0.74
   1  17   7    5.12    0.84
  -1 -17  -8   11.09    1.03
   1  17   8   10.21    0.97
  -1 -17  -9    1.20    0.71
   1  17   9    0.98    0.63
  -1 -17 -10   28.66    1.83
   1  17  10   28.61    1.82
  -1 -17 -11    0.58    1.47
  -1 -17 -11   -0.73    1.85
  -1 -17 -11    1.29    0.65
   1  17  11    1.95    0.75
  -1 -17 -12    5.26    2.15
  -1 -17 -12    1.69    1.80
  -1 -17 -12    3.54    0.81
   1  17  12    2.53    0.83
  -1 -17 -13    1.31    2.31
  -1 -17 -13   -1.40    2.51
  -1 -17 -13    0.23    0.85
   1  17  13    0.23    1.04
   0  16 -14    5.19    1.70
   0 -16  14    4.33    0.98
   0  16 -14    3.13    0.91
   0  16 -13    1.18    1.43
   0 -16  13    1.66    0.90
   0  16 -13    3.58    0.78
   0  16 -12    4.69    1.51
   0 -16  12    3.25    0.89
   0  16 -12    1.66    0.76
   0  16 -11   14.00    2.33
   0 -16  11   15.08    1.23
   0  16 -11   15.31    1.19
   0  16 -10   -1.27    1.28
   0 -16  10    0.27    0.74
   0  16 -10   -0.70    0.68
   0  16  -9   24.62    3.38
   0 -16   9   24.49    1.64
   0  16  -9   25.20    1.62
   0  16  -8   26.68    3.62
   0 -16   8   21.09    1.49
   0  16  -8   21.27    1.47
   0  16  -7   -0.31    1.18
   0 -16   7   -0.08    0.77
   0  16  -7   -0.17    0.66
   0  16  -6   19.60    2.79
   0 -16   6   17.20    1.35
   0  16  -6   17.51    1.36
   0  16  -5   14.02    2.26
   0 -16   5   15.87    1.28
   0  16  -5   14.69    1.18
   0  16  -4   -0.25    1.21
   0 -16   4    0.17    0.78
   0  16  -4   -0.42    0.73
   0  16  -3   12.87    2.03
   0 -16   3   13.11    1.18
   0  16  -3   12.70    1.17
   0  16  -2    2.59    1.26
   0 -16   2    1.31    0.75
   0  16  -2    0.85    0.68
   0  16  -1    4.22    1.05
   0 -16   1    2.38    0.84
   0  16  -1    2.44    0.73
   0 -16   0   25.14    1.71
   0  16   0   24.56    1.61
   0 -16  -1    1.41    0.74
   0  16   1    2.65    0.69
   0 -16  -2    2.77    0.73
   0  16   2    1.59    0.71
   0 -16  -3   10.31    1.04
   0  16   3    9.85    0.98
   0 -16  -4    0.92    0.74
   0  16   4   -0.14    0.77
   0 -16  -5   12.72    1.14
   0  16   5   13.29    1.08
   0 -16  -6   15.72    1.26
   0  16   6   14.21    1.16
   0 -16  -7    0.70    0.61
   0  16   7   -0.26    0.72
   0 -16  -8   25.08    3.18
   0 -16  -8   25.55    3.29
   0 -16  -8   20.36    1.45
   0  16   8   22.46    1.55
   0 -16  -9   19.20    2.62
   0 -16  -9   22.71    3.16
   0 -16  -9   23.76    1.59
   0  16   9   25.12    1.65
   0 -16 -10    0.64    1.35
   0 -16 -10   -0.22    1.54
   0 -16 -10   -0.03    0.70
   0  16  10    1.05    0.60
   0 -16 -11   13.62    2.31
   0 -16 -11   14.04    2.69
   0 -16 -11   16.66    1.28
   0  16  11   14.75    1.19
   0 -16 -12    4.03    1.82
   0 -16 -12    3.53    2.17
   0 -16 -12    2.63    0.76
   0  16  12    2.82    0.81
   0 -16 -13    0.77    1.85
   0 -16 -13    1.54    2.15
   0 -16 -13    2.13    0.81
   0  16  13    5.53    0.90
   0 -16 -14    2.45    1.92
   0 -16 -14    3.99    2.19
   0 -16 -14    4.88    0.91
   0  16  14    4.71    0.96
  -1  15 -15    3.73    1.50
  -1  15 -15    3.13    1.04
  -1  15 -14    1.72    1.27
   1 -15  14    0.01    0.86
  -1  15 -14    0.28    0.81
  -1  15 -13   27.95    3.68
   1 -15  13   27.56    1.83
  -1  15 -13   28.32    1.83
  -1  15 -12   -0.34    1.23
   1 -15  12    0.45    0.87
  -1  15 -12   -0.56    0.78
  -1  15 -11   16.68    2.47
   1 -15  11   14.32    1.20
  -1  15 -11   16.67    1.25
  -1  15 -10   -0.93    1.27
   1 -15  10    1.57    0.75
  -1  15 -10    1.06    0.68
  -1  15  -9   14.53    2.26
   1 -15   9   13.52    1.15
  -1  15  -9   11.47    1.02
  -1  15  -8   -0.44    1.21
   1 -15   8    1.29    0.73
  -1  15  -8    0.20    0.67
  -1  15  -7  116.50   14.22
   1 -15   7  116.00    6.42
  -1  15  -7  114.20    6.31
  -1  15  -6    5.66    1.47
   1 -15   6    5.37    0.82
  -1  15  -6    5.65    0.84
  -1  15  -5   46.69    5.91
   1 -15   5   40.71    2.48
  -1  15  -5   45.44    2.72
  -1  15  -4    5.57    1.39
   1 -15   4    7.64    0.94
  -1  15  -4    7.42    0.87
  -1  15  -3   21.71    3.02
   1 -15   3   20.73    1.49
  -1  15  -3   19.10    1.41
  -1  15  -2    5.47    1.49
   1 -15   2    5.23    0.83
  -1  15  -2    6.39    0.88
  -1  15  -1   24.46    3.33
   1 -15   1   19.34    1.45
  -1  15  -1   16.10    1.25
  -1  15   0    3.92    1.14
   1 -15   0    3.32    0.76
  -1  15   0    4.69    0.79
  -1  15   1  189.70   22.94
   1 -15  -1  168.70    9.27
  -1  15   1  164.20    8.98
   1 -15  -2   19.59    1.43
  -1  15   2   15.91    1.26
   1 -15  -3   25.73    1.78
  -1  15   3   29.67    1.97
   1 -15  -4    4.19    0.79
   1 -15  -4    6.88    0.91
  -1  15   4    6.98    0.92
   1 -15  -5   64.06    7.81
   1 -15  -5   58.40    3.39
  -1  15   5   59.72    3.46
   1 -15  -6    0.32    0.91
   1 -15  -6    0.50    0.70
  -1  15   6   -0.29    0.64
   1 -15  -7   45.45    5.68
   1 -15  -7   46.36    2.74
  -1  15   7   43.25    2.58
   1 -15  -8    0.89    1.24
   1 -15  -8    0.59    0.74
  -1  15   8    0.87    0.68
   1 -15  -9   19.53    2.81
   1 -15  -9   20.81    1.47
  -1  15   9   20.01    1.42
   1 -15 -10    3.51    1.56
   1 -15 -10    1.81    0.77
  -1  15  10   -0.11    0.56
   1 -15 -11    0.58    1.66
   1 -15 -11   -0.14    0.69
  -1  15  11    0.76    0.69
   1 -15 -12    0.09    1.76
   1 -15 -12    1.64    0.72
  -1  15  12    1.14    0.75
   1 -15 -13   29.81    4.15
   1 -15 -13   31.52    1.98
  -1  15  13   31.27    2.00
   1 -15 -14    0.92    1.92
   1 -15 -14    0.18    0.78
  -1  15  14    0.40    0.73
   1 -15 -15    7.58    2.30
   1 -15 -15    9.24    1.01
  -1  15  15    6.82    0.98
  -2  14 -15    8.99    1.68
   2 -14  15    5.78    1.01
  -2  14 -15    5.11    1.37
  -2  14 -14    2.71    1.16
   2 -14  14    3.42    0.87
  -2  14 -14    3.27    0.90
  -2  14 -13    1.22    1.22
   2 -14  13    1.06    0.84
  -2  14 -13    1.08    0.78
  -2  14 -12   23.33    3.15
   2 -14  12   23.33    1.65
  -2  14 -12   27.20    1.77
  -2  14 -11   11.84    1.90
   2 -14  11    8.99    0.97
  -2  14 -11   10.23    0.96
  -2  14 -10    1.03    1.18
   2 -14  10   -0.66    0.70
  -2  14 -10   -0.11    0.68
  -2  14  -9   37.31    4.83
   2 -14   9   27.33    1.77
  -2  14  -9   29.71    1.88
  -2  14  -8   42.73    5.44
   2 -14   8   47.75    2.80
  -2  14  -8   45.85    2.67
  -2  14  -7    4.21    1.29
   2 -14   7    4.18    0.83
  -2  14  -7    4.02    0.87
  -2  14  -6   70.85    8.75
   2 -14   6   74.54    4.22
  -2  14  -6   80.30    4.49
  -2  14  -5    2.91    1.36
   2 -14   5    4.61    0.82
  -2  14  -5    5.03    0.79
  -2  14  -4   22.95    3.14
   2 -14   4   23.71    1.68
  -2  14  -4   23.80    1.62
  -2  14  -3   77.23    9.52
   2 -14   3   63.04    3.64
  -2  14  -3   68.16    3.87
  -2  14  -2   49.57    6.22
   2 -14   2   53.97    3.16
  -2  14  -2   52.28    3.08
  -2  14  -1    0.33    1.25
   2 -14   1   -1.37    0.78
  -2  14  -1    0.07    0.74
  -2  14   0   19.22    2.69
   2 -14   0   23.11    1.59
  -2  14   0   21.26    1.47
  -2  14   1   50.82    6.31
   2 -14  -1   59.20    3.45
  -2  14   1   53.04    3.14
   2 -14  -2   82.80   10.09
  -2  14   2  107.50   13.09
   2 -14  -2  105.60    5.90
  -2  14   2  105.50    5.86
   2 -14  -3   17.83    2.41
   2 -14  -3   12.43    1.10
  -2  14   3   10.12    1.04
   2 -14  -4    2.55    1.07
   2 -14  -4    5.50    0.82
  -2  14   4    4.00    0.82
   2 -14  -5    7.41    1.36
   2 -14  -5    5.94    0.88
  -2  14   5    7.48    0.87
   2 -14  -6   79.16    9.69
   2 -14  -6   88.40    4.97
  -2  14   6   79.85    4.53
   2 -14  -7    6.65    1.55
   2 -14  -7    3.25    0.71
  -2  14   7    3.82    0.82
   2 -14  -8   34.06    4.45
   2 -14  -8   32.40    2.06
  -2  14   8   30.12    1.92
   2 -14  -9   40.48    5.24
   2 -14  -9   37.68    2.32
  -2  14   9   32.26    2.02
   2 -14 -10    0.77    1.61
   2 -14 -10    0.77    0.65
  -2  14  10    0.92    0.69
   2 -14 -11   27.87    3.84
   2 -14 -11   24.11    1.62
  -2  14  11   23.29    1.59
   2 -14 -12    1.52    1.54
   2 -14 -12    1.56    0.75
  -2  14  12    2.60    0.77
   2 -14 -13    0.72    1.54
   2 -14 -13    1.39    0.67
  -2  14  13    0.08    0.61
   2 -14 -14   15.29    2.63
   2 -14 -14   20.11    1.38
  -2  14  14   18.96    1.36
   2 -14 -15    1.34    1.84
   2 -14 -15    0.32    0.78
  -2  14  15    0.44    0.73
   2 -14 -16    0.64    1.87
   2 -14 -16    4.77    0.89
  -2  14  16    4.09    0.93
  -3  13 -15   -0.43    1.14
   3 -13  15    0.94    0.79
  -3  13 -15   -0.68    0.85
  -3  13 -14   10.49    1.82
   3 -13  14    6.27    1.00
  -3  13 -14    7.11    0.97
  -3  13 -13   -0.77    1.23
   3 -13  13    0.58    0.76
  -3  13 -13   -0.16    0.82
  -3  13 -12    2.16    1.18
   3 -13  12    1.51    0.86
  -3  13 -12    1.64    0.73
  -3  13 -11    3.06    1.12
   3 -13  11    4.33    0.89
  -3  13 -11    3.30    0.72
  -3  13 -10   70.57    8.71
   3 -13  10   67.72    3.84
  -3  13 -10   69.26    3.90
  -3  13  -9    1.61    1.25
   3 -13   9    1.70    0.76
  -3  13  -9    1.29    0.66
  -3  13  -8    2.69    1.35
   3 -13   8    1.68    0.67
  -3  13  -8    1.86    0.69
  -3  13  -7    4.61    1.42
   3 -13   7    5.08    0.86
  -3  13  -7    6.50    0.82
  -3  13  -6   30.12    3.95
   3 -13   6   28.36    1.82
  -3  13  -6   29.75    1.88
  -3  13  -5    5.25    1.41
   3 -13   5    7.50    0.92
  -3  13  -5    8.50    0.94
  -3  13  -4  147.30   17.89
   3 -13   4  135.40    7.46
  -3  13  -4  137.70    7.61
  -3  13  -3   -0.87    1.19
   3 -13   3    0.91    0.68
  -3  13  -3    0.51    0.70
  -3  13  -2  146.50   17.80
   3 -13   2  136.80    7.53
  -3  13  -2  126.30    6.94
  -3  13  -1   -0.06    1.22
   3 -13   1    2.36    0.74
  -3  13  -1    1.00    0.62
   3 -13   0   14.45    2.08
  -3  13   0   17.51    2.55
   3 -13   0   14.22    1.18
  -3  13   0   15.85    1.21
   3 -13  -1    5.53    1.36
  -3  13   1    5.16    1.45
   3 -13  -1    2.09    0.74
  -3  13   1    2.88    0.73
   3 -13  -2  190.10   23.01
  -3  13   2  209.20   25.32
   3 -13  -2  172.50    9.44
  -3  13   2  196.00   10.71
   3 -13  -3    3.53    1.21
  -3  13   3    2.20    1.18
   3 -13  -3    2.71    0.70
  -3  13   3    1.95    0.68
   3 -13  -4  144.30   17.50
   3 -13  -4  155.20    8.52
  -3  13   4  157.40    8.64
   3 -13  -5   40.74    5.14
   3 -13  -5   40.68    2.50
  -3  13   5   37.49    2.31
   3 -13  -6   34.50    4.48
   3 -13  -6   35.61    2.25
  -3  13   6   35.07    2.20
   3 -13  -7    7.92    1.84
   3 -13  -7    3.14    0.80
  -3  13   7    3.18    0.76
   3 -13  -8   83.43   10.26
   3 -13  -8   69.84    3.98
  -3  13   8   63.86    3.71
   3 -13  -9    2.01    1.52
   3 -13  -9    3.37    0.81
  -3  13   9    2.58    0.73
   3 -13 -10  142.30   17.31
   3 -13 -10  132.70    7.31
  -3  13  10  130.00    7.17
   3 -13 -11    4.38    1.53
   3 -13 -11    4.46    0.81
  -3  13  11    5.93    0.85
   3 -13 -12   58.02    7.28
   3 -13 -12   60.96    3.50
  -3  13  12   59.31    3.41
   3 -13 -13    4.30    1.62
   3 -13 -13    1.41    0.71
  -3  13  13    3.85    0.80
   3 -13 -14    3.22    1.58
   3 -13 -14    0.50    0.67
  -3  13  14    0.48    0.66
   3 -13 -15    0.44    1.52
   3 -13 -15   -0.03    0.71
  -3  13  15   -0.27    0.66
   3 -13 -16   17.63    2.85
   3 -13 -16   16.24    1.26
  -3  13  16   16.42    1.29
   3 -13 -17   -0.75    1.80
   3 -13 -17   -0.18    0.74
  -4  12 -15   13.76    2.17
   4 -12  14    4.07    0.77
  -4  12 -13    0.56    1.12
   4 -12  13    0.09    0.78
  -4  12 -13   -0.11    0.65
  -4  12 -12    8.65    1.51
   4 -12  12    5.80    0.87
  -4  12 -12    5.11    0.78
  -4  12 -11    4.03    1.33
   4 -12  11    5.60    0.88
  -4  12 -11    6.84    0.89
  -4  12 -10    7.27    1.66
   4 -12  10    7.73    0.89
  -4  12 -10    8.82    0.92
  -4  12  -9   31.17    4.04
   4 -12   9   30.17    1.90
  -4  12  -9   26.99    1.70
  -4  12  -8    7.64    1.65
   4 -12   8    5.23    0.80
  -4  12  -8    5.00    0.83
  -4  12  -7    1.16    1.18
   4 -12   7    0.70    0.72
  -4  12  -7    1.62    0.63
  -4  12  -6   55.77    6.97
   4 -12   6   50.13    2.92
  -4  12  -6   51.13    3.00
  -4  12  -5   -0.29    0.96
   4 -12   5    0.72    0.71
  -4  12  -5    0.96    0.65
  -4  12  -4  105.70   12.93
   4 -12   4   96.57    5.38
  -4  12  -4   97.90    5.45
  -4  12  -3  181.10   21.97
   4 -12   3  208.50   11.34
  -4  12  -3  198.40   10.82
  -4  12  -2   32.21    4.24
   4 -12   2   21.68    1.51
  -4  12  -2   22.15    1.49
   4 -12   1   24.81    3.33
  -4  12  -1   23.98    3.28
   4 -12   1   32.14    2.02
  -4  12  -1   32.94    2.04
   4 -12   0  166.30   20.16
  -4  12   0  175.50   21.29
   4 -12   0  161.60    8.86
  -4  12   0  148.80    8.19
   4 -12  -1    1.78    1.16
  -4  12   1    1.29    1.35
   4 -12  -1    0.70    0.60
  -4  12   1    1.30    0.63
   4 -12  -2  174.40   21.12
  -4  12   2  191.20   23.16
   4 -12  -2  178.20    9.73
  -4  12   2  169.30    9.25
   4 -12  -3  119.80   14.58
  -4  12   3  131.70   16.01
   4 -12  -3  133.00    7.34
  -4  12   3  132.70    7.34
   4 -12  -4   22.37    3.06
  -4  12   4   26.24    3.42
   4 -12  -4   17.44    1.30
  -4  12   4   15.88    1.19
   4 -12  -5    8.21    1.67
   4 -12  -5   11.14    1.04
  -4  12   5   12.16    1.12
   4 -12  -6   84.70   10.39
   4 -12  -6   79.52    4.51
  -4  12   6   82.99    4.68
   4 -12  -7   30.35    4.05
   4 -12  -7   30.02    1.96
  -4  12   7   33.29    2.14
   4 -12  -8  143.30   17.45
   4 -12  -8  127.50    7.06
  -4  12   8  121.20    6.71
   4 -12  -9  114.60   14.01
   4 -12  -9  108.70    6.04
  -4  12   9  109.20    6.07
   4 -12 -10   13.50    2.26
   4 -12 -10   16.58    1.29
  -4  12  10   17.91    1.35
   4 -12 -11   74.09    9.21
   4 -12 -11   63.38    3.64
  -4  12  11   64.05    3.68
   4 -12 -12    0.70    1.40
   4 -12 -12    0.23    0.69
  -4  12  12    0.24    0.69
   4 -12 -13   23.92    3.41
   4 -12 -13   30.38    1.93
  -4  12  13   27.83    1.78
   4 -12 -14   52.96    6.69
   4 -12 -14   49.47    2.89
  -4  12  14   47.48    2.82
   4 -12 -15    9.08    1.90
   4 -12 -15    7.05    0.87
  -4  12  15    7.66    0.88
   4 -12 -16    6.95    1.83
   4 -12 -16    6.44    0.85
  -4  12  16    4.90    0.81
   4 -12 -17    8.09    1.99
   4 -12 -17    8.86    0.96
   4 -12 -18   -0.47    1.67
   4 -12 -18   -1.33    0.77
  -5  11 -15   -0.63    1.09
  -5  11 -14    1.10    1.19
  -5  11 -12    0.44    1.08
   5 -11  12    1.56    0.69
  -5  11 -12    0.81    0.56
  -5  11 -11   16.22    2.39
   5 -11  11   15.09    1.13
  -5  11 -11   13.55    1.04
  -5  11 -10    2.60    1.24
   5 -11  10    2.98    0.74
  -5  11 -10    2.83    0.66
  -5  11  -9    3.00    1.33
   5 -11   9    7.12    0.84
  -5  11  -9    7.18    0.77
  -5  11  -8    5.39    1.43
   5 -11   8    5.82    0.80
  -5  11  -8    6.59    0.78
  -5  11  -7  125.40   15.27
   5 -11   7  135.10    7.41
  -5  11  -7  129.10    7.06
  -5  11  -6    1.18    1.04
   5 -11   6    0.07    0.62
  -5  11  -6    0.92    0.63
  -5  11  -5  111.60   13.62
   5 -11   5  127.20    7.00
  -5  11  -5  132.70    7.30
  -5  11  -4   25.17    3.43
   5 -11   4   16.97    1.25
  -5  11  -4   21.21    1.41
  -5  11  -3  117.10   14.29
   5 -11   3  119.90    6.61
  -5  11  -3  125.20    6.90
   5 -11   2    7.33    1.42
  -5  11  -2    7.72    1.62
   5 -11   2    5.96    0.77
  -5  11  -2    4.23    0.77
   5 -11   1   66.40    8.21
  -5  11  -1   73.97    9.17
   5 -11   1   61.93    3.55
  -5  11  -1   69.54    3.91
   5 -11   0    0.80    1.12
  -5  11   0    0.74    1.33
   5 -11   0    1.65    0.68
  -5  11   0    1.18    0.64
   5 -11  -1  497.20   59.97
  -5  11   1  483.80   58.34
   5 -11  -1  482.70   26.00
  -5  11   1  475.30   25.62
   5 -11  -2   23.01    3.15
  -5  11   2   30.02    3.95
   5 -11  -2   24.83    1.69
  -5  11   2   21.90    1.50
  -5  11   3   29.71    3.92
  -5  11   3   40.63    2.47
   5 -11  -4   18.13    2.61
  -5  11   4   18.86    2.75
   5 -11  -4   14.58    1.21
  -5  11   4   14.77    1.21
   5 -11  -5  144.80   17.63
  -5  11   5  152.70   18.56
   5 -11  -5  118.70    6.58
  -5  11   5  120.40    6.67
   5 -11  -6    8.45    1.78
   5 -11  -6   10.33    1.01
  -5  11   6   10.59    1.01
   5 -11  -7   70.03    8.67
   5 -11  -7   65.31    3.76
  -5  11   7   70.90    4.02
   5 -11  -8    4.67    1.56
   5 -11  -8    4.28    0.85
  -5  11   8    2.37    0.76
   5 -11  -9   85.12   10.49
   5 -11  -9   96.28    5.39
  -5  11   9   90.55    5.10
   5 -11 -10    6.43    1.73
   5 -11 -10   11.11    1.01
  -5  11  10    9.47    0.96
   5 -11 -11    3.23    1.51
   5 -11 -11    7.37    0.85
  -5  11  11    5.46    0.80
   5 -11 -12    4.06    1.66
   5 -11 -12   -0.36    0.65
  -5  11  12    1.10    0.66
   5 -11 -13   28.26    3.88
   5 -11 -13   22.20    1.55
  -5  11  13   20.75    1.48
   5 -11 -14    4.65    1.71
   5 -11 -14    3.01    0.80
  -5  11  14    3.60    0.77
   5 -11 -15   60.22    7.54
   5 -11 -15   63.19    3.61
  -5  11  15   60.00    3.45
   5 -11 -16    3.02    1.50
   5 -11 -16   -0.80    0.72
   5 -11 -17    3.40    1.68
   5 -11 -17    0.74    0.72
   5 -11 -18    0.43    1.51
   5 -11 -18    0.40    0.76
   5 -11 -19   -1.19    1.62
   5 -11 -19    1.60    0.78
   5 -11 -19    0.33    0.64
  -6  10 -14   -0.01    1.07
  -6  10 -13    0.18    1.18
  -6  10 -12   23.99    3.18
  -6  10 -11   21.48    2.96
   6 -10  11   15.55    1.06
  -6  10 -11   15.84    1.03
  -6  10 -10   12.75    2.04
   6 -10  10   15.33    1.11
  -6  10 -10   17.61    1.17
  -6  10  -9   32.55    4.23
   6 -10   9   27.12    1.67
  -6  10  -9   27.56    1.69
  -6  10  -8    0.01    1.23
   6 -10   8    0.01    0.62
  -6  10  -8    0.97    0.57
  -6  10  -7    1.52    1.31
   6 -10   7    0.88    0.63
  -6  10  -7    1.63    0.58
  -6  10  -6   57.20    7.14
   6 -10   6   67.99    3.83
  -6  10  -6   67.76    3.78
  -6  10  -5   18.04    2.58
   6 -10   5   13.19    1.06
  -6  10  -5   12.94    1.04
  -6  10  -4    7.04    1.62
   6 -10   4   11.57    1.02
  -6  10  -4    9.38    0.84
   6 -10   3  186.70   22.68
  -6  10  -3  195.20   23.65
   6 -10   3  175.10    9.55
  -6  10  -3  153.90    8.38
   6 -10   2    9.11    1.62
  -6  10  -2   14.28    2.34
   6 -10   2   15.64    1.16
  -6  10  -2   16.61    1.21
   6 -10   1  130.10   15.86
  -6  10  -1  138.00   16.81
   6 -10   1  127.70    7.03
  -6  10  -1  122.80    6.75
   6 -10   0   39.83    5.10
  -6  10   0   39.80    5.07
   6 -10   0   39.78    2.40
  -6  10   0   41.39    2.43
   6 -10  -1    9.13    1.80
  -6  10   1    7.44    1.72
   6 -10  -1    3.23    0.70
  -6  10   1    2.58    0.70
   6 -10  -2  158.10   19.19
  -6  10   2  157.90   19.22
   6 -10  -2  176.00    9.62
  -6  10   2  174.70    9.56
   6 -10  -3  243.40   29.45
  -6  10   3  241.90   29.29
   6 -10  -3  211.90   11.54
  -6  10   3  207.60   11.28
   6 -10  -4   27.49    3.67
  -6  10   4   30.93    4.08
   6 -10  -4   24.25    1.65
  -6  10   4   23.15    1.60
   6 -10  -5  141.30   17.21
  -6  10   5  135.00   16.47
   6 -10  -5  131.00    7.24
  -6  10   5  127.20    7.04
   6 -10  -6  194.40   23.58
  -6  10   6  190.40   23.11
   6 -10  -6  177.20    9.70
  -6  10   6  165.30    9.05
   6 -10  -7   12.78    2.13
   6 -10  -7    7.82    0.91
  -6  10   7    7.82    0.91
   6 -10  -8    9.89    1.94
   6 -10  -8   12.22    1.08
  -6  10   8   13.24    1.13
   6 -10  -9    9.43    1.90
   6 -10  -9   12.84    1.07
  -6  10   9   12.97    1.11
   6 -10 -10    2.49    1.54
   6 -10 -10    4.47    0.81
  -6  10  10    2.53    0.73
   6 -10 -11   15.80    2.58
   6 -10 -11   12.14    1.09
  -6  10  11   11.98    1.07
   6 -10 -12   -0.72    1.50
   6 -10 -12    0.51    0.62
  -6  10  12    0.34    0.68
   6 -10 -13   34.89    4.61
   6 -10 -13   32.84    2.06
  -6  10  13   30.04    1.92
   6 -10 -14   61.75    7.77
   6 -10 -14   52.66    3.10
  -6  10  14   51.92    3.04
   6 -10 -15    4.82    1.68
   6 -10 -15    2.85    0.79
  -6  10  15    3.15    0.70
   6 -10 -16   10.66    2.12
   6 -10 -16   12.94    1.07
   6 -10 -17   21.68    3.13
   6 -10 -17   17.85    1.28
   6 -10 -18    3.30    1.59
   6 -10 -18    2.73    0.69
   6 -10 -18    1.43    0.72
   6 -10 -19    4.12    1.79
   6 -10 -19    3.40    0.84
   6 -10 -19    2.71    0.72
   6 -10 -20    2.50    1.84
   6 -10 -20    0.35    0.82
   6 -10 -20    0.09    0.66
  -7   9 -14    1.09    1.25
  -7   9 -13    6.76    1.63
  -7   9 -12    0.58    1.25
  -7   9 -11   -0.39    1.21
  -7   9 -10   40.11    5.07
  -7   9  -9    1.62    1.31
   7  -9   9    2.12    0.53
  -7   9  -9    1.52    0.47
  -7   9  -8  106.60   13.03
   7  -9   8  103.50    5.66
  -7   9  -8  110.00    5.99
  -7   9  -7    2.81    1.32
   7  -9   7    1.87    0.60
  -7   9  -7    2.52    0.58
  -7   9  -6    5.55    1.50
   7  -9   6    3.39    0.63
  -7   9  -6    4.54    0.59
  -7   9  -5   25.47    3.47
   7  -9   5   18.28    1.25
  -7   9  -5   22.13    1.44
  -7   9  -4  147.80   17.97
   7  -9   4  139.10    7.61
  -7   9  -4  153.70    8.39
   7  -9   3   14.14    2.34
  -7   9  -3   12.72    2.12
   7  -9   3   11.29    0.95
  -7   9  -3   10.66    0.88
   7  -9   2  175.30   21.28
  -7   9  -2  200.00   24.24
   7  -9   2  185.00   10.06
  -7   9  -2  162.00    8.85
   7  -9   1    9.86    1.89
  -7   9  -1   10.11    1.91
   7  -9   1    6.22    0.75
  -7   9  -1    7.07    0.84
   7  -9   0  138.90   16.92
  -7   9   0  113.40   13.90
   7  -9   0  140.40    7.71
  -7   9   0  139.00    7.61
   7  -9  -1    4.02    1.47
  -7   9   1    5.04    1.63
   7  -9  -1    4.16    0.74
  -7   9   1    4.38    0.69
   7  -9  -2  110.50   13.51
  -7   9   2  112.10   13.70
   7  -9  -2   95.24    5.33
  -7   9   2   90.20    5.06
   7  -9  -3    2.27    1.47
  -7   9   3    3.41    1.46
   7  -9  -3    3.20    0.75
  -7   9   3    1.96    0.68
   7  -9  -4  396.20   47.84
  -7   9   4  471.90   56.92
   7  -9  -4  356.30   19.26
  -7   9   4  361.00   19.48
   7  -9  -5   17.67    2.70
  -7   9   5   16.49    2.56
   7  -9  -5   23.43    1.59
  -7   9   5   22.89    1.63
   7  -9  -6   82.82   10.24
  -7   9   6   91.90   11.30
   7  -9  -6   95.32    5.35
  -7   9   6   95.02    5.33
   7  -9  -7   25.72    3.57
  -7   9   7   24.67    3.33
   7  -9  -7   35.71    2.22
  -7   9   7   32.79    2.07
   7  -9  -8   34.06    4.48
   7  -9  -8   19.81    1.44
  -7   9   8   20.16    1.42
   7  -9  -9   13.75    2.35
   7  -9  -9    8.38    0.90
  -7   9   9    9.64    0.98
   7  -9 -10   72.54    9.00
   7  -9 -10   61.27    3.56
  -7   9  10   58.76    3.42
   7  -9 -11    1.58    1.49
   7  -9 -11    0.36    0.75
  -7   9  11   -0.88    0.68
   7  -9 -12   23.93    3.32
   7  -9 -12   25.88    1.72
  -7   9  12   26.33    1.71
   7  -9 -13    7.38    1.84
   7  -9 -13    2.80    0.71
  -7   9  13    3.97    0.79
   7  -9 -14   13.46    2.31
   7  -9 -14   19.27    1.41
  -7   9  14   17.62    1.30
   7  -9 -15   -0.13    1.50
   7  -9 -15    1.43    0.73
   7  -9 -16    3.32    1.50
   7  -9 -16    2.77    0.74
   7  -9 -17    2.13    1.47
   7  -9 -17    1.23    0.59
   7  -9 -17    0.95    0.69
   7  -9 -18   46.30    5.92
   7  -9 -18   42.98    2.55
   7  -9 -18   45.02    2.63
   7  -9 -19    0.90    1.65
   7  -9 -19   -0.20    0.73
   7  -9 -19    0.21    0.67
   7  -9 -20    1.45    1.67
   7  -9 -20   -0.10    0.77
   7  -9 -20    0.54    0.67
  -8   8 -14    5.64    1.41
  -8   8 -13    1.21    1.28
  -8   8 -12   12.71    2.09
  -8   8 -11    0.68    1.17
  -8   8 -10   21.89    2.95
  -8   8  -9    5.03    1.52
  -8   8  -8   10.00    1.84
   8  -8   8    6.24    0.55
  -8   8  -7   10.48    1.85
   8  -8   7   11.07    0.82
  -8   8  -7    9.84    0.75
  -8   8  -6    7.37    1.57
   8  -8   6    8.17    0.73
  -8   8  -6    8.80    0.76
  -8   8  -5    2.96    1.47
   8  -8   5    2.62    0.58
  -8   8  -5    2.45    0.52
   8  -8   4  192.30   23.36
  -8   8  -4  183.90   22.33
   8  -8   4  186.40   10.11
  -8   8  -4  184.00   10.01
   8  -8   3   77.72    9.64
  -8   8  -3   69.74    8.68
   8  -8   3   67.04    3.75
  -8   8  -3   78.29    4.36
   8  -8   2   37.15    4.87
  -8   8  -2   43.39    5.53
   8  -8   2   28.63    1.75
  -8   8  -2   28.40    1.72
   8  -8   1   41.21    5.35
  -8   8  -1   42.32    5.47
   8  -8   1   42.56    2.49
  -8   8  -1   43.13    2.55
   8  -8   0   24.34    3.45
  -8   8   0   23.07    3.22
   8  -8   0   14.97    1.13
  -8   8   0   15.78    1.21
   8  -8  -1   35.19    4.62
  -8   8   1   33.79    4.43
   8  -8  -1   38.40    2.31
  -8   8   1   36.00    2.18
   8  -8  -2  101.90   12.51
  -8   8   2  100.80   12.37
   8  -8  -2   99.13    5.52
  -8   8   2   98.90    5.51
   8  -8  -3   52.19    6.63
  -8   8   3   53.13    6.76
   8  -8  -3   50.28    2.96
  -8   8   3   49.06    2.90
   8  -8  -4    2.52    1.59
  -8   8   4    2.12    1.52
   8  -8  -4    5.74    0.76
  -8   8   4    5.29    0.72
   8  -8  -5  103.80   12.75
  -8   8   5  106.20   13.05
   8  -8  -5  108.30    6.03
  -8   8   5  116.30    6.43
   8  -8  -6   65.61    8.22
  -8   8   6   77.86    9.70
   8  -8  -6   48.22    2.87
  -8   8   6   52.01    3.10
  -8   8   7   51.56    6.61
  -8   8   7   59.85    3.46
   8  -8  -8  199.90   24.28
  -8   8   8  152.20   18.55
   8  -8  -8  157.40    8.63
  -8   8   8  160.90    8.84
   8  -8  -9   47.97    6.13
   8  -8  -9   47.28    2.80
  -8   8   9   48.93    2.90
   8  -8 -10   42.97    5.56
   8  -8 -10   48.33    2.86
  -8   8  10   50.31    2.98
   8  -8 -11   28.05    3.90
   8  -8 -11   26.92    1.77
  -8   8  11   28.52    1.86
   8  -8 -12   27.93    3.92
   8  -8 -12   18.61    1.39
  -8   8  12   19.80    1.41
   8  -8 -13    0.25    1.55
   8  -8 -13    3.27    0.71
   8  -8 -14   23.46    3.39
   8  -8 -14   25.79    1.70
   8  -8 -15   10.68    2.13
   8  -8 -15   11.74    1.04
   8  -8 -16   14.40    2.53
   8  -8 -16   19.13    1.29
   8  -8 -16   17.88    1.33
   8  -8 -17    5.35    1.68
   8  -8 -17    6.66    0.79
   8  -8 -17    5.91    0.83
   8  -8 -18    1.73    1.40
   8  -8 -18    2.19    0.71
   8  -8 -18    2.41    0.68
   8  -8 -19   13.52    2.33
   8  -8 -19   14.13    1.10
   8  -8 -19   14.75    1.14
   8  -8 -20   16.23    2.66
   8  -8 -20   12.45    1.08
   8  -8 -20   13.24    1.13
   8  -8 -21    0.48    1.67
   8  -8 -21    0.90    0.84
   8  -8 -21   -0.04    0.64
  -9   7 -13   21.61    3.02
  -9   7 -12    2.40    1.44
  -9   7 -11   25.68    3.51
  -9   7 -10   13.79    2.18
  -9   7  -9    4.35    1.37
  -9   7  -8   40.66    5.20
  -9   7  -7   30.17    3.98
  -9   7  -6    0.11    1.23
   9  -7   6   -0.56    0.40
   9  -7   6    0.02    0.37
  -9   7  -5   15.76    2.46
   9  -7   5   15.33    1.02
   9  -7   4   74.39    9.33
  -9   7  -4   72.72    9.02
   9  -7   4   59.61    3.34
  -9   7  -4   54.08    3.04
   9  -7   3   48.45    6.17
  -9   7  -3   45.08    5.76
   9  -7   3   59.59    3.36
  -9   7  -3   57.06    3.23
   9  -7   2   15.02    2.56
  -9   7  -2   11.46    2.12
   9  -7   2   11.83    0.92
  -9   7  -2   11.49    0.88
   9  -7   1   34.50    4.65
  -9   7  -1   36.83    4.86
   9  -7   1   20.11    1.32
  -9   7  -1   23.71    1.50
   9  -7   0   31.71    4.31
  -9   7   0   31.35    4.22
   9  -7   0   28.54    1.77
  -9   7   0   26.98    1.72
   9  -7  -1  143.80   17.53
  -9   7   1  138.20   16.85
   9  -7  -1  128.50    7.05
  -9   7   1  126.80    6.99
   9  -7  -2   -0.25    1.27
  -9   7   2    0.59    1.35
   9  -7  -2    0.39    0.63
  -9   7   2    1.25    0.58
   9  -7  -3   66.80    8.34
  -9   7   3   68.53    8.54
   9  -7  -3   77.91    4.39
  -9   7   3   75.82    4.29
   9  -7  -4   95.19   11.73
  -9   7   4   85.23   10.52
   9  -7  -4   64.67    3.70
  -9   7   4   67.86    3.88
   9  -7  -5   66.64    8.37
  -9   7   5   67.62    8.42
   9  -7  -5   48.30    2.84
  -9   7   5   49.92    2.90
   9  -7  -6    4.54    1.75
  -9   7   6    4.39    1.59
   9  -7  -6    3.46    0.78
  -9   7   6    2.04    0.72
   9  -7  -7  134.90   16.49
  -9   7   7  133.00   16.23
   9  -7  -7  118.30    6.56
  -9   7   7  119.20    6.63
   9  -7  -8   13.29    2.38
  -9   7   8   10.76    2.02
   9  -7  -8   15.47    1.23
  -9   7   8   16.62    1.25
   9  -7  -9  271.70   32.92
   9  -7  -9  274.30   14.87
  -9   7   9  278.40   15.11
   9  -7 -10   25.16    3.56
   9  -7 -10   17.98    1.36
  -9   7  10   16.40    1.26
   9  -7 -11    7.16    1.93
   9  -7 -11   11.89    1.14
   9  -7 -12    1.03    1.57
   9  -7 -12    3.07    0.81
   9  -7 -13   76.09    9.50
   9  -7 -13   74.95    4.28
   9  -7 -14   10.91    2.21
   9  -7 -14    9.91    1.05
   9  -7 -15   25.06    3.65
   9  -7 -15   25.49    1.68
   9  -7 -15   25.99    1.70
   9  -7 -16   18.23    2.93
   9  -7 -16   14.03    1.12
   9  -7 -16   14.84    1.09
   9  -7 -17    5.00    1.80
   9  -7 -17    6.35    0.83
   9  -7 -17    6.07    0.83
   9  -7 -18    3.77    1.73
   9  -7 -18    2.19    0.66
   9  -7 -18    2.36    0.66
   9  -7 -19   -1.50    1.50
   9  -7 -19   -0.08    0.70
   9  -7 -19    0.31    0.58
   9  -7 -20   -0.16    1.48
   9  -7 -20    0.11    0.73
   9  -7 -20    1.06    0.67
   9  -7 -21   15.40    2.58
   9  -7 -21   15.93    1.27
   9  -7 -21   15.70    1.17
 -10   6 -13   22.17    3.06
 -10   6 -12    6.52    1.59
 -10   6 -11   31.31    4.24
 -10   6 -10   -0.51    1.31
 -10   6  -9  133.60   16.27
 -10   6  -8   14.97    2.34
 -10   6  -7   50.80    6.40
 -10   6  -6    4.52    1.59
 -10   6  -5   16.31    2.46
  10  -6   5   17.24    1.06
  10  -6   5   15.87    0.99
  10  -6   4    2.76    1.66
 -10   6  -4   -0.32    1.52
  10  -6   4    0.73    0.50
  10  -6   4    1.04    0.46
  10  -6   3  139.70   17.08
 -10   6  -3  130.40   15.93
  10  -6   3  118.80    6.49
  10  -6   2   30.51    4.11
 -10   6  -2   30.95    4.19
  10  -6   2   26.03    1.61
  10  -6   1  165.60   20.18
 -10   6  -1  150.50   18.34
  10  -6   1  157.30    8.57
  10  -6   0   40.83    5.30
 -10   6   0   33.48    4.43
  10  -6   0   30.28    1.85
 -10   6   0   32.09    1.93
  10  -6  -1   72.35    9.02
 -10   6   1   64.63    8.12
  10  -6  -1   83.74    4.66
 -10   6   1   77.86    4.40
  10  -6  -2   81.42   10.08
 -10   6   2   75.64    9.42
  10  -6  -2   85.08    4.74
 -10   6   2   82.15    4.61
  10  -6  -3  111.20   13.67
 -10   6   3  115.30   14.15
  10  -6  -3   82.63    4.65
 -10   6   3   88.81    4.95
  10  -6  -4    3.75    1.75
 -10   6   4    4.09    1.73
  10  -6  -4    1.55    0.63
 -10   6   4    0.95    0.64
  10  -6  -5  124.70   15.29
 -10   6   5  116.60   14.30
  10  -6  -5  127.20    7.02
 -10   6   5  127.10    7.02
  10  -6  -6   58.23    7.42
 -10   6   6   54.86    6.95
  10  -6  -6   53.00    3.10
 -10   6   6   55.73    3.22
  10  -6  -7  171.70   20.92
 -10   6   7  176.00   21.42
  10  -6  -7  199.30   10.87
 -10   6   7  189.80   10.38
  10  -6  -8   30.96    4.28
 -10   6   8   31.76    4.32
  10  -6  -8   37.12    2.28
  10  -6  -9   20.24    3.15
 -10   6   9   19.55    2.86
  10  -6  -9   10.25    1.04
  10  -6 -10   22.87    3.36
  10  -6 -10   26.01    1.75
  10  -6 -11  126.30   15.49
  10  -6 -11  121.50    6.75
  10  -6 -12    5.91    2.09
  10  -6 -12   10.02    1.00
  10  -6 -13   76.36    9.57
  10  -6 -13   77.52    4.41
  10  -6 -13   75.47    4.27
  10  -6 -14   14.05    2.63
  10  -6 -14   12.29    1.14
  10  -6 -14   13.43    1.09
  10  -6 -15   34.00    4.58
  10  -6 -15   21.49    1.54
  10  -6 -15   20.78    1.41
  10  -6 -16   -0.81    1.81
  10  -6 -16    0.50    0.68
  10  -6 -16    0.79    0.67
  10  -6 -17   22.29    3.38
  10  -6 -17   20.85    1.48
  10  -6 -17   24.20    1.55
  10  -6 -18   -1.19    1.68
  10  -6 -18   -0.49    0.67
  10  -6 -18    1.11    0.68
  10  -6 -19   15.33    2.50
  10  -6 -19   13.40    1.03
  10  -6 -19   15.19    1.20
  10  -6 -20    0.23    1.67
  10  -6 -20    0.33    0.72
  10  -6 -20    0.64    0.64
  10  -6 -21    5.94    1.93
  10  -6 -21    5.29    0.81
  10  -6 -21    5.71    0.90
 -11   5 -12    4.48    1.56
 -11   5 -11    4.92    1.78
 -11   5 -10   50.70    6.47
 -11   5  -9    5.48    1.99
 -11   5  -8   97.36   11.95
 -11   5  -7    1.54    1.48
 -11   5  -6   10.06    2.16
 -11   5  -5    0.75    1.46
  11  -5   4    0.91    1.51
 -11   5  -4    0.88    1.35
  11  -5   4    1.32    0.43
  11  -5   4    1.67    0.45
  11  -5   3    1.39    1.49
 -11   5  -3   -1.83    1.66
  11  -5   3    0.91    0.49
  11  -5   3    1.63    0.52
  11  -5   2  176.20   21.47
 -11   5  -2  168.60   20.52
  11  -5   2  165.20    8.97
  11  -5   2  150.90    8.20
  11  -5   1   -0.15    1.82
 -11   5  -1    3.00    1.74
  11  -5   1    3.23    0.61
  11  -5   1    3.54    0.59
  11  -5   0   87.05   10.84
 -11   5   0   84.60   10.48
  11  -5   0   87.80    4.86
  11  -5   0   94.16    5.20
  11  -5  -1   41.83    5.51
 -11   5   1   36.85    4.86
  11  -5  -1   31.53    1.91
  11  -5  -2   12.78    2.28
 -11   5   2   12.07    2.32
  11  -5  -2   18.90    1.29
  11  -5  -3   48.38    6.27
 -11   5   3   50.20    6.47
  11  -5  -3   47.14    2.76
  11  -5  -4  161.60   19.70
 -11   5   4  163.60   19.93
  11  -5  -4  149.00    8.18
  11  -5  -5    1.63    1.75
 -11   5   5   -0.03    1.39
  11  -5  -5   -0.18    0.62
  11  -5  -6  107.10   13.19
 -11   5   6  108.10   13.26
  11  -5  -6  124.20    6.85
  11  -5  -7    5.66    1.84
 -11   5   7    5.92    1.80
  11  -5  -7    3.89    0.72
  11  -5  -8   14.91    2.74
 -11   5   8   10.86    2.05
  11  -5  -8   22.49    1.55
  11  -5  -9   64.44    8.19
 -11   5   9   55.74    7.05
  11  -5  -9   68.20    3.92
  11  -5 -10   29.44    4.17
  11  -5 -10   17.34    1.27
  11  -5 -10   18.54    1.37
  11  -5 -11    5.73    1.91
  11  -5 -11    3.76    0.87
  11  -5 -11    5.38    0.79
  11  -5 -12   16.93    2.85
  11  -5 -12   20.57    1.51
  11  -5 -12   19.49    1.44
  11  -5 -13   -0.55    1.96
  11  -5 -13   -0.41    0.61
  11  -5 -13   -0.64    0.74
  11  -5 -14   49.09    6.35
  11  -5 -14   55.84    3.25
  11  -5 -14   51.85    3.06
  11  -5 -15   50.77    6.57
  11  -5 -15   41.35    2.50
  11  -5 -15   38.69    2.37
  11  -5 -16   74.11    9.31
  11  -5 -16   69.97    4.01
  11  -5 -16   63.23    3.58
  11  -5 -17    7.67    2.25
  11  -5 -17    6.89    0.82
  11  -5 -17    7.01    0.93
  11  -5 -18    2.37    1.58
  11  -5 -18    1.30    0.70
  11  -5 -18    0.67    0.63
  11  -5 -19   -0.99    1.73
  11  -5 -19   -0.51    0.74
  11  -5 -19    0.26    0.59
  11  -5 -20    3.19    1.81
  11  -5 -20    1.80    0.74
  11  -5 -20    2.44    0.66
  11  -5 -21   -0.19    1.74
  11  -5 -21    0.79    0.64
  11  -5 -21   -0.04    0.79
  11  -5 -22    1.87    1.67
  11  -5 -22    0.90    0.83
  11  -5 -22    1.30    0.71
 -12   4 -11   -0.90    1.32
 -12   4 -10   14.77    2.51
 -12   4  -9   20.04    3.09
 -12   4  -8    5.86    2.05
 -12   4  -7   28.30    3.94
 -12   4  -6  150.20   18.31
 -12   4  -5    9.22    1.93
  12  -4   4   44.73    5.96
 -12   4  -4   51.62    6.58
  12  -4   4   40.79    2.28
  12  -4   4   40.20    2.25
  12  -4   3    1.11    1.70
 -12   4  -3   -0.25    1.49
  12  -4   3    0.61    0.45
  12  -4   3    0.46    0.48
  12  -4   2    5.20    1.87
 -12   4  -2    4.72    1.76
  12  -4   2    8.34    0.75
  12  -4   2    7.27    0.71
  12  -4   1    1.99    1.73
 -12   4  -1    3.42    1.75
  12  -4   1    1.05    0.54
  12  -4   1    0.97    0.57
  12  -4   0   73.45    9.24
 -12   4   0   76.31    9.51
  12  -4   0   56.13    3.20
  12  -4   0   60.14    3.40
  12  -4  -1    6.10    1.90
 -12   4   1    6.00    1.83
  12  -4  -1    7.22    0.76
  12  -4  -1    9.19    0.88
  12  -4  -2  229.00   27.81
 -12   4   2  222.20   26.96
  12  -4  -3   13.58    2.42
 -12   4   3   12.10    2.36
  12  -4  -3   10.36    0.91
  12  -4  -3   12.16    1.02
  12  -4  -4  217.10   26.39
 -12   4   4  206.00   25.04
  12  -4  -4  240.30   13.04
  12  -4  -4  244.20   13.25
  12  -4  -5   13.07    2.50
 -12   4   5   16.42    2.77
  12  -4  -5   15.97    1.20
  12  -4  -5   14.60    1.15
  12  -4  -6   59.79    7.65
 -12   4   6   64.26    8.10
  12  -4  -6   48.78    2.87
  12  -4  -6   49.39    2.90
  12  -4  -7    2.75    1.76
 -12   4   7    0.61    1.47
  12  -4  -7   -0.29    0.65
  12  -4  -7    0.57    0.65
  12  -4  -8  114.70   14.15
 -12   4   8  110.80   13.64
  12  -4  -8  110.10    6.12
  12  -4  -8  105.40    5.87
  12  -4  -9    2.41    1.73
 -12   4   9    1.32    1.50
  12  -4  -9    0.66    0.67
  12  -4  -9   -0.37    0.64
  12  -4 -10   92.75   11.51
 -12   4  10   87.67   10.88
  12  -4 -10  105.40    5.88
  12  -4 -10  115.20    6.43
  12  -4 -11   -0.48    2.05
  12  -4 -11    1.16    0.80
  12  -4 -11    1.70    0.73
  12  -4 -12    0.11    2.11
  12  -4 -12    0.09    0.82
  12  -4 -12    0.31    0.67
  12  -4 -13    3.31    2.05
  12  -4 -13    0.77    0.73
  12  -4 -13   -0.67    0.62
  12  -4 -14    4.35    2.08
  12  -4 -14    2.45    0.75
  12  -4 -14    2.65    0.79
  12  -4 -15    0.60    1.95
  12  -4 -15   -0.02    0.72
  12  -4 -15    1.67    0.73
  12  -4 -16   65.54    8.33
  12  -4 -16   63.29    3.66
  12  -4 -16   65.56    3.72
  12  -4 -17   33.92    4.66
  12  -4 -17   28.82    1.85
  12  -4 -17   32.21    1.98
  12  -4 -18    5.41    2.08
  12  -4 -18    2.11    0.69
  12  -4 -18    1.76    0.71
  12  -4 -19    0.85    1.84
  12  -4 -19    1.50    0.67
  12  -4 -19    0.90    0.63
  12  -4 -20   10.34    2.15
  12  -4 -20    6.82    0.88
  12  -4 -20    6.66    0.75
  12  -4 -21   -0.03    1.79
  12  -4 -21   -0.44    0.78
  12  -4 -21   -0.15    0.67
  12  -4 -22    2.10    1.69
  12  -4 -22    2.24    0.84
  12  -4 -22    2.23    0.68
 -13   3 -11   17.27    2.86
 -13   3 -10    7.02    1.84
 -13   3  -9    9.24    2.05
 -13   3  -8   32.59    4.43
 -13   3  -7   11.77    2.33
 -13   3  -6    4.12    1.65
 -13   3  -5  112.20   13.78
  13  -3   4   27.52    3.87
 -13   3  -4   22.49    3.30
  13  -3   3   39.52    5.26
 -13   3  -3   36.37    4.85
  13  -3   2   62.81    7.97
 -13   3  -2   63.83    8.09
  13  -3   2   59.08    3.31
  13  -3   2   53.54    3.01
  13  -3   1    3.80    1.87
 -13   3  -1    3.95    1.86
  13  -3   1    1.33    0.57
  13  -3   1    1.33    0.65
  13  -3   0   97.66   12.15
 -13   3   0   92.03   11.45
  13  -3   0   89.83    4.99
  13  -3   0   94.96    5.24
  13  -3  -1  119.60   14.80
 -13   3   1  124.90   15.33
  13  -3  -1  112.70    6.20
  13  -3  -1  105.40    5.81
  13  -3  -2   -0.74    1.92
 -13   3   2    0.75    1.71
  13  -3  -2   -0.18    0.64
  13  -3  -2   -0.57    0.63
  13  -3  -3  105.00   13.03
 -13   3   3  105.10   12.95
  13  -3  -3  109.00    6.03
  13  -3  -3  114.00    6.28
  13  -3  -4   49.32    6.42
 -13   3   4   56.33    7.19
  13  -3  -5   65.92    8.37
 -13   3   5   68.27    8.59
  13  -3  -5   76.09    4.29
  13  -3  -5   78.74    4.43
  13  -3  -6   54.35    7.01
 -13   3   6   55.56    7.12
  13  -3  -6   60.13    3.46
  13  -3  -6   60.37    3.48
  13  -3  -7   47.29    6.24
 -13   3   7   52.54    6.77
  13  -3  -7   41.03    2.48
  13  -3  -7   41.21    2.49
  13  -3  -8   23.16    3.54
 -13   3   8   20.74    3.26
  13  -3  -8   21.70    1.52
  13  -3  -8   23.13    1.58
  13  -3  -9  173.90   21.23
 -13   3   9  190.50   23.22
  13  -3  -9  170.30    9.32
  13  -3  -9  183.60   10.02
  13  -3 -10   10.32    2.59
 -13   3  10   12.42    2.55
  13  -3 -10   10.33    1.01
  13  -3 -10    9.74    0.95
  13  -3 -11   26.74    4.03
  13  -3 -11   38.73    2.39
  13  -3 -11   35.98    2.27
  13  -3 -12   29.87    4.32
  13  -3 -12   28.22    1.86
  13  -3 -12   26.02    1.71
  13  -3 -13   57.32    7.41
  13  -3 -13   47.83    2.88
  13  -3 -13   46.82    2.79
  13  -3 -14    0.72    2.03
  13  -3 -14    1.55    0.74
  13  -3 -14    2.48    0.80
  13  -3 -15   15.54    2.88
  13  -3 -15   19.67    1.33
  13  -3 -15   20.50    1.49
  13  -3 -16    2.30    1.86
  13  -3 -16    0.88    0.68
  13  -3 -16    0.39    0.71
  13  -3 -17   34.26    4.83
  13  -3 -17   39.58    2.44
  13  -3 -17   40.96    2.41
  13  -3 -18    9.63    2.17
  13  -3 -18   12.51    1.14
  13  -3 -18   10.72    0.93
  13  -3 -19    6.86    1.95
  13  -3 -19    4.50    0.70
  13  -3 -19    4.33    0.88
  13  -3 -20    4.74    1.99
  13  -3 -20    6.91    0.79
  13  -3 -20    8.65    0.93
  13  -3 -21    5.56    1.84
  13  -3 -21    7.69    0.93
  13  -3 -21    8.65    0.86
  13  -3 -22   -1.53    1.79
  13  -3 -22    0.66    0.74
  13  -3 -22   -0.20    0.69
 -14   2 -10   -0.51    1.41
 -14   2  -9   17.65    2.73
 -14   2  -8   -0.95    1.82
 -14   2  -7   21.52    3.15
 -14   2  -6   11.41    2.42
 -14   2  -5   50.64    6.54
 -14   2  -4    0.45    1.86
  14  -2   3   71.36    8.98
 -14   2  -3   67.49    8.49
  14  -2   3   52.62    2.92
  14  -2   3   47.08    2.65
  14  -2   2   -0.75    1.61
 -14   2  -2    3.39    1.89
  14  -2   2    1.37    0.52
  14  -2   2    1.43    0.54
  14  -2   1  142.00   17.43
 -14   2  -1  121.10   14.88
  14  -2   1  136.50    7.45
  14  -2   1  135.20    7.38
  14  -2   0    4.01    2.04
 -14   2   0    1.62    1.88
  14  -2   0    3.98    0.69
  14  -2   0    3.59    0.75
  14  -2  -1   44.67    5.88
 -14   2   1   42.27    5.64
  14  -2  -1   50.68    2.94
  14  -2  -1   50.27    2.94
  14  -2  -2    7.47    2.21
 -14   2   2   15.26    2.67
  14  -2  -2   13.28    1.13
  14  -2  -2   13.95    1.10
  14  -2  -3   35.08    4.79
 -14   2   3   33.86    4.66
  14  -2  -3   21.50    1.49
  14  -2  -3   19.74    1.38
  14  -2  -4   -1.19    2.17
 -14   2   4    0.73    2.01
  14  -2  -4    0.82    0.58
  14  -2  -4    0.46    0.67
  14  -2  -5   63.14    8.12
 -14   2   5   72.56    9.14
  14  -2  -5   67.19    3.82
  14  -2  -5   64.55    3.69
  14  -2  -6    8.47    2.56
 -14   2   6   12.19    2.59
  14  -2  -6   13.21    1.05
  14  -2  -6   13.64    1.11
  14  -2  -7  112.80   14.03
 -14   2   7  122.70   15.16
  14  -2  -7  120.80    6.68
  14  -2  -7  113.70    6.31
  14  -2  -8    6.86    2.66
 -14   2   8    3.95    2.00
  14  -2  -8    3.97    0.69
  14  -2  -8    3.13    0.67
  14  -2  -9    1.99    2.20
 -14   2   9    3.32    2.17
  14  -2  -9    7.34    0.91
  14  -2  -9    7.08    0.88
  14  -2 -10   68.68    8.78
 -14   2  10   71.91    9.12
  14  -2 -10   73.05    4.18
  14  -2 -10   70.11    4.02
  14  -2 -11  102.40   12.75
  14  -2 -11   98.59    5.50
  14  -2 -11   94.30    5.30
  14  -2 -12   13.09    2.86
  14  -2 -12   10.42    1.04
  14  -2 -12   11.66    1.10
  14  -2 -13   71.33    9.04
  14  -2 -13   76.81    4.37
  14  -2 -13   75.48    4.26
  14  -2 -14   -1.16    1.87
  14  -2 -14    0.85    0.69
  14  -2 -14    1.14    0.66
  14  -2 -15    0.29    1.87
  14  -2 -15    2.21    0.72
  14  -2 -15    3.22    0.69
  14  -2 -16    0.75    1.97
  14  -2 -16   -0.36    0.71
  14  -2 -16   -0.07    0.62
  14  -2 -17    2.17    2.04
  14  -2 -17    0.72    0.78
  14  -2 -17    1.40    0.65
  14  -2 -18    0.74    1.64
  14  -2 -18    0.90    0.80
  14  -2 -18    0.47    0.65
  14  -2 -19   35.18    4.76
  14  -2 -19   40.24    2.43
  14  -2 -19   37.07    2.21
  14  -2 -20    0.87    2.06
  14  -2 -20   -0.08    0.81
  14  -2 -20    0.62    0.61
  14  -2 -21    4.65    2.12
  14  -2 -22   -0.50    2.15
  14  -2 -22   -0.44    0.65
  14  -2 -22    0.19    0.75
 -15   1  -9    1.60    1.61
 -15   1  -8   19.81    2.98
 -15   1  -7    5.99    1.87
 -15   1  -6   11.58    2.39
 -15   1  -5   21.49    3.37
 -15   1  -4    3.74    1.89
  15  -1   3   48.99    6.38
 -15   1  -3   52.34    6.73
  15  -1   3   48.28    2.71
  15  -1   3   46.06    2.59
  15  -1   2   63.52    8.08
 -15   1  -2   69.13    8.66
  15  -1   2   72.73    4.06
  15  -1   2   67.49    3.75
  15  -1   1   -0.10    1.77
 -15   1  -1    4.12    1.90
  15  -1   1    0.59    0.63
  15  -1   1    1.58    0.64
  15  -1   0   26.52    4.17
 -15   1   0   23.93    3.60
  15  -1   0   26.55    1.68
  15  -1   0   29.12    1.82
  15  -1  -1   19.98    3.32
 -15   1   1   17.79    3.04
  15  -1  -1   19.05    1.34
  15  -1  -1   17.24    1.28
  15  -1  -2    8.92    2.58
 -15   1   2    5.50    2.05
  15  -1  -2   11.14    0.99
  15  -1  -2   12.43    1.09
  15  -1  -3   54.93    7.32
 -15   1   3   52.39    6.82
  15  -1  -3   52.93    3.07
  15  -1  -3   55.76    3.23
  15  -1  -4   41.37    5.68
 -15   1   4   41.68    5.63
  15  -1  -4   33.70    2.10
  15  -1  -4   30.98    1.94
  15  -1  -5    0.67    2.03
 -15   1   5   -1.71    2.07
  15  -1  -5    1.11    0.74
  15  -1  -5    0.02    0.68
  15  -1  -6   17.60    3.04
 -15   1   6   15.34    2.82
  15  -1  -7   -2.25    2.22
 -15   1   7    0.82    2.25
  15  -1  -7    1.40    0.72
  15  -1  -7    0.66    0.73
  15  -1  -8   33.34    4.78
 -15   1   8   32.05    4.69
  15  -1  -8   40.65    2.45
  15  -1  -8   36.67    2.29
  15  -1  -9   37.62    5.22
 -15   1   9   38.22    5.32
  15  -1  -9   38.11    2.37
  15  -1  -9   36.33    2.24
  15  -1 -10    0.04    2.04
 -15   1  10    1.08    1.96
  15  -1 -10    0.62    0.73
  15  -1 -10    0.30    0.64
  15  -1 -11    1.64    2.30
  15  -1 -11    0.45    0.69
  15  -1 -11    1.30    0.65
  15  -1 -12    8.58    2.60
  15  -1 -12    7.15    0.88
  15  -1 -12    8.37    0.99
  15  -1 -13   -0.11    2.48
  15  -1 -13    0.44    0.66
  15  -1 -13   -0.08    0.78
  15  -1 -14    5.45    2.61
  15  -1 -14   11.20    1.12
  15  -1 -14   11.09    0.98
  15  -1 -15   42.60    5.65
  15  -1 -15   34.91    2.20
  15  -1 -15   36.57    2.23
  15  -1 -16    8.34    2.42
  15  -1 -16    5.65    0.84
  15  -1 -16    5.67    0.85
  15  -1 -17   -0.48    2.21
  15  -1 -17    1.39    0.78
  15  -1 -17    1.62    0.65
  15  -1 -18    2.58    2.01
  15  -1 -18    1.58    0.73
  15  -1 -18    2.92    0.68
  15  -1 -19    0.30    1.79
  15  -1 -19    1.08    0.78
  15  -1 -19    0.58    0.60
  15  -1 -20   12.12    2.54
  15  -1 -20   15.79    1.19
  15  -1 -20   16.40    1.37
  15  -1 -21    4.74    1.95
  15  -1 -21    5.86    0.93
  15  -1 -21    5.16    0.80
  15  -1 -22    0.63    1.63
  15  -1 -22    0.87    0.80
  15  -1 -22    1.01    0.66
 -16   0  -8   -0.28    1.61
 -16   0  -7    1.02    1.58
 -16   0  -6   29.46    4.18
 -16   0  -5   -1.95    1.79
 -16   0  -4   72.14    9.09
  16   0   3   -1.28    1.75
 -16   0  -3    0.65    1.93
  16   0   3    0.46    0.52
  16   0   3    0.27    0.51
  16   0   2   47.17    6.13
 -16   0  -2   41.44    5.53
  16   0   2   47.81    2.73
  16   0   2   48.62    2.78
  16   0   1   -0.75    1.91
 -16   0  -1   -0.58    1.81
  16   0   1    0.66    0.63
  16   0   1    0.46    0.61
  16   0   0    1.44    1.92
 -16   0   0    1.45    2.03
  16   0   0    0.94    0.71
  16   0   0    0.64    0.60
  16   0  -1    0.67    1.74
 -16   0   1    0.51    1.96
  16   0  -1   -0.03    0.66
  16   0  -1    0.91    0.63
  16   0  -2   78.09    9.87
 -16   0   2   67.72    8.58
  16   0  -2   63.99    3.65
  16   0  -2   63.04    3.60
  16   0  -3    1.54    2.07
 -16   0   3    1.15    1.74
  16   0  -3   -0.47    0.64
  16   0  -3    0.76    0.64
  16   0  -4   38.75    5.31
 -16   0   4   35.39    4.84
  16   0  -4   44.06    2.61
  16   0  -4   44.71    2.67
  16   0  -5   -1.54    2.35
 -16   0   5    0.82    1.99
  16   0  -5    1.84    0.72
  16   0  -5    1.39    0.70
  16   0  -6    4.16    2.19
 -16   0   6    8.91    2.29
  16   0  -6    5.80    0.84
  16   0  -6    4.01    0.84
  16   0  -7   -3.49    2.53
 -16   0   7   -0.49    1.81
  16   0  -7    0.83    0.71
  16   0  -7    0.16    0.62
  16   0  -8    1.06    2.20
 -16   0   8    3.93    2.04
  16   0  -8    2.47    0.77
  16   0  -8    3.74    0.76
  16   0  -9   -1.88    2.36
 -16   0   9    0.75    2.12
  16   0  -9   -0.91    0.61
  16   0  -9   -0.33    0.73
  16   0 -10   15.18    3.28
 -16   0  10   10.99    2.72
  16   0 -10   13.36    1.13
  16   0 -10   12.99    1.11
  16   0 -11   -0.30    2.40
  16   0 -11    0.18    0.77
  16   0 -11   -0.39    0.71
  16   0 -12    0.65    1.99
  16   0 -12    0.36    0.66
  16   0 -12    0.47    0.73
  16   0 -13    1.34    2.13
  16   0 -13    0.74    0.77
  16   0 -13    1.83    0.72
  16   0 -14   40.12    5.66
  16   0 -14   27.23    1.82
  16   0 -14   28.40    1.83
  16   0 -15    1.23    2.44
  16   0 -15    1.32    0.67
  16   0 -15    0.29    0.77
  16   0 -16   84.23   10.56
  16   0 -16   87.47    4.92
  16   0 -16   87.19    4.86
  16   0 -17   -0.72    1.74
  16   0 -17    0.28    0.63
  16   0 -17    0.15    0.74
  16   0 -18    1.80    2.20
  16   0 -18    1.04    0.62
  16   0 -18    1.78    0.76
  16   0 -19    2.87    2.08
  16   0 -19   -0.41    0.78
  16   0 -19   -0.48    0.65
  16   0 -20    0.81    1.98
  16   0 -20   -0.49    0.73
  16   0 -20   -0.09    0.70
  16   0 -21   -0.28    1.81
  16   0 -21   -0.44    0.69
  16   0 -21    0.32    0.67
 -17  -1  -6    4.75    1.93
 -17  -1  -5    9.28    2.22
 -17  -1  -4   -1.25    1.98
 -17  -1  -3   18.82    3.15
  17   1   3   17.33    1.16
  17   1   3   16.67    1.10
  17   1   2   11.91    2.30
 -17  -1  -2    8.44    2.06
  17   1   2    8.36    0.90
  17   1   2    6.95    0.80
  17   1   1    2.94    2.00
 -17  -1  -1    2.94    2.06
  17   1   1    5.69    0.87
  17   1   1    5.28    0.78
  17   1   0    3.50    2.21
 -17  -1   0    8.01    2.21
  17   1   0    5.56    0.76
  17   1   0    6.26    0.89
  17   1  -1    3.37    2.42
 -17  -1   1    1.26    2.19
  17   1  -2   -0.39    2.30
 -17  -1   2   -2.56    2.21
  17   1  -2    1.48    0.73
  17   1  -2    0.78    0.66
  17   1  -3   42.17    5.78
 -17  -1   3   38.24    5.17
  17   1  -3   39.23    2.37
  17   1  -3   42.16    2.51
  17   1  -4   15.59    2.82
 -17  -1   4   13.75    2.92
  17   1  -4   13.25    1.11
  17   1  -4   12.76    1.10
  17   1  -5    2.00    2.37
 -17  -1   5    0.24    1.85
  17   1  -5    3.73    0.79
  17   1  -5    4.00    0.72
  17   1  -6   26.13    3.93
 -17  -1   6   30.98    4.48
  17   1  -6   32.41    2.03
  17   1  -6   31.15    1.96
  17   1  -7   17.86    3.28
 -17  -1   7   19.62    3.37
  17   1  -7   16.74    1.29
  17   1  -7   17.52    1.34
  17   1  -8   -0.68    1.99
 -17  -1   8    1.48    2.27
  17   1  -8    0.58    0.73
  17   1  -8   -0.15    0.77
  17   1  -9    6.22    2.51
 -17  -1   9    4.95    2.15
  17   1  -9    8.33    0.99
  17   1  -9    6.82    0.91
  17   1 -10   13.92    3.19
 -17  -1  10   15.90    2.90
  17   1 -10    9.01    1.01
  17   1 -10   11.21    1.08
  17   1 -11    2.66    2.42
  17   1 -11    7.34    0.94
  17   1 -11    6.55    0.91
  17   1 -12   21.03    3.87
  17   1 -12   23.33    1.65
  17   1 -12   24.85    1.65
  17   1 -13    3.19    2.67
  17   1 -13    3.84    0.88
  17   1 -13    3.85    0.74
  17   1 -14   22.59    3.90
  17   1 -14   25.58    1.73
  17   1 -14   27.63    1.76
  17   1 -15   18.04    3.47
  17   1 -15   13.59    1.17
  17   1 -15   12.06    1.12
  17   1 -16   -0.91    1.97
  17   1 -16    0.57    0.80
  17   1 -16    0.37    0.63
  17   1 -17    9.32    2.51
  17   1 -17   11.32    0.97
  17   1 -17   12.50    1.13
  17   1 -18    3.93    2.24
  17   1 -18    2.37    0.69
  17   1 -18    1.94    0.77
  17   1 -19    0.45    2.13
  17   1 -19   -0.75    0.69
  17   1 -19    0.03    0.78
  17   1 -20    5.12    1.75
  17   1 -20    4.61    0.78
  17   1 -20    5.67    0.94
  17   1 -21    2.72    1.74
  17   1 -21    0.69    0.79
  17   1 -21    0.71    0.71
 -18  -2  -5    4.20    1.84
 -18  -2  -4   -1.59    1.89
 -18  -2  -3    6.53    2.12
  18   2   2   -0.28    1.79
 -18  -2  -2   -1.42    1.92
  18   2   2    1.20    0.77
  18   2   2   -0.17    0.77
  18   2   1   30.50    4.32
 -18  -2  -1   36.77    4.95
  18   2   1   33.82    2.14
  18   2   1   35.56    2.16
  18   2   0    3.73    1.92
 -18  -2   0    2.46    2.09
  18   2   0    8.19    0.90
  18   2   0    6.42    0.86
  18   2  -1    7.22    2.46
 -18  -2   1    6.54    2.02
  18   2  -1    8.00    0.99
  18   2  -1    6.12    0.81
  18   2  -2   -0.95    2.10
 -18  -2   2   -0.27    1.84
  18   2  -2    1.49    0.82
  18   2  -2    0.35    0.69
  18   2  -3    6.53    2.47
 -18  -2   3    7.10    2.18
  18   2  -3    2.63    0.77
  18   2  -3    3.80    0.70
  18   2  -4   -1.61    2.23
 -18  -2   4   -0.89    2.21
  18   2  -4    0.55    0.74
  18   2  -4    1.36    0.68
  18   2  -5   62.40    8.20
 -18  -2   5   66.46    8.49
  18   2  -5   54.84    3.21
  18   2  -5   57.29    3.30
  18   2  -6    2.06    2.37
 -18  -2   6    2.41    2.25
  18   2  -6    1.07    0.71
  18   2  -6    0.76    0.70
  18   2  -7   44.31    6.13
 -18  -2   7   47.01    6.26
  18   2  -7   50.65    2.95
  18   2  -7   48.85    2.88
  18   2  -8    2.75    2.64
 -18  -2   8    4.71    2.44
  18   2  -8    2.27    0.74
  18   2  -8    2.27    0.68
  18   2  -9    1.56    2.55
 -18  -2   9    1.85    2.24
  18   2  -9    4.23    0.74
  18   2  -9    4.53    0.85
  18   2 -10    5.47    2.52
 -18  -2  10    7.52    2.51
  18   2 -10    7.62    0.89
  18   2 -10    7.40    0.89
  18   2 -11   40.66    5.78
  18   2 -11   30.93    1.98
  18   2 -11   31.03    1.94
  18   2 -12   -0.65    2.29
  18   2 -12    0.22    0.79
  18   2 -12    0.85    0.69
  18   2 -13   16.54    3.20
  18   2 -13   17.56    1.35
  18   2 -13   17.50    1.25
  18   2 -14    2.12    2.22
  18   2 -14    3.04    0.78
  18   2 -14    2.08    0.73
  18   2 -15    2.28    2.60
  18   2 -15    4.26    0.86
  18   2 -15    4.80    0.74
  18   2 -16   -0.22    2.27
  18   2 -16    0.51    0.75
  18   2 -16    0.43    0.55
  18   2 -17    2.62    2.37
  18   2 -17   -0.11    0.73
  18   2 -17   -0.06    0.68
  18   2 -18    0.50    2.61
  18   2 -18    0.61    0.73
  18   2 -18   -0.33    0.60
  18   2 -19    8.48    2.25
  18   2 -19    4.21    0.90
  18   2 -19    6.13    0.79
  18   2 -20   -1.12    2.06
  18   2 -20   -0.16    0.72
  18   2 -20   -0.53    0.67
 -19  -3  -3   12.08    2.53
 -19  -3  -2    4.73    1.84
  19   3   2    2.38    0.85
  19   3   2    1.86    0.86
  19   3   1   -0.17    2.07
 -19  -3  -1    1.99    1.95
  19   3   1    1.59    0.85
  19   3   1    0.15    0.80
  19   3   0   19.79    3.35
 -19  -3   0   19.35    3.33
  19   3   0   21.21    1.51
  19   3   0   21.98    1.58
  19   3  -1   10.98    2.70
 -19  -3   1    8.66    2.51
  19   3  -1    8.68    1.03
  19   3  -1    8.62    1.00
  19   3  -2   -0.71    2.29
 -19  -3   2    1.12    2.00
  19   3  -2   -0.53    0.77
  19   3  -2    1.00    0.70
  19   3  -3   10.34    2.65
 -19  -3   3    9.70    2.41
  19   3  -3   11.83    1.09
  19   3  -3   12.54    1.11
  19   3  -4    8.58    2.75
 -19  -3   4    4.34    2.21
  19   3  -4    6.55    0.90
  19   3  -4    6.79    0.90
  19   3  -5    8.69    2.73
 -19  -3   5    8.98    2.47
  19   3  -5   12.74    1.10
  19   3  -5   10.15    1.01
  19   3  -6   11.12    2.99
 -19  -3   6    9.91    2.41
  19   3  -6   11.14    1.03
  19   3  -6   10.03    0.99
  19   3  -7    2.34    2.21
 -19  -3   7    4.81    2.51
  19   3  -7    0.98    0.70
  19   3  -7    1.06    0.65
  19   3  -8    6.16    2.32
 -19  -3   8    7.24    2.34
  19   3  -8    6.33    0.80
  19   3  -8    5.00    0.78
  19   3  -9   31.39    4.57
 -19  -3   9   32.74    4.78
  19   3  -9   28.13    1.80
  19   3  -9   30.62    1.91
  19   3 -10   -1.11    2.42
 -19  -3  10   -0.75    2.27
  19   3 -10    0.52    0.67
  19   3 -10    0.08    0.64
  19   3 -11   15.56    3.38
  19   3 -11   23.64    1.60
  19   3 -11   21.49    1.47
  19   3 -12   12.10    3.23
  19   3 -12   12.39    1.10
  19   3 -12   11.84    1.02
  19   3 -13    4.07    2.72
  19   3 -13    2.26    0.72
  19   3 -13    1.83    0.73
  19   3 -14    0.08    2.64
  19   3 -14    0.52    0.73
  19   3 -14    1.90    0.69
  19   3 -15    5.25    2.71
  19   3 -15   10.32    1.05
  19   3 -15    8.49    0.85
  19   3 -16   -4.30    2.63
  19   3 -16    0.51    0.77
  19   3 -16    1.08    0.67
  19   3 -17    5.99    2.63
  19   3 -17    8.25    0.91
  19   3 -17    9.12    0.90
  19   3 -18    5.45    2.71
  19   3 -18    3.02    0.76
  19   3 -18    2.91    0.74
  19   3 -19    1.55    1.86
  19   3 -19    2.24    0.77
  19   3 -19    1.12    0.81
  19   3 -20    2.58    2.24
  19   3 -20    3.85    0.83
  19   3 -20    2.39    0.70
 -20  -4  -1    0.39    1.95
  20   4   1    0.40    0.82
  20   4   1    0.15    0.89
  20   4   0    0.56    1.84
 -20  -4   0    0.85    1.93
  20   4   0    0.97    0.97
  20   4   0    0.16    0.85
  20   4  -1    1.40    2.07
 -20  -4   1    1.82    2.12
  20   4  -1    0.41    0.87
  20   4  -1    0.80    0.86
  20   4  -2   19.35    3.43
 -20  -4   2   16.88    3.09
  20   4  -2   16.47    1.36
  20   4  -2   15.48    1.27
  20   4  -3    0.76    2.48
 -20  -4   3    4.57    2.17
  20   4  -3    2.52    0.88
  20   4  -3    2.01    0.77
  20   4  -4    6.56    2.60
 -20  -4   4    4.37    2.23
  20   4  -4    7.41    0.97
  20   4  -4    5.74    0.89
  20   4  -5    1.05    2.38
 -20  -4   5   -1.96    2.19
  20   4  -5    0.79    0.70
  20   4  -5   -0.62    0.71
  20   4  -6   -0.19    2.38
 -20  -4   6    1.13    2.21
  20   4  -6    2.65    0.72
  20   4  -6    2.14    0.72
  20   4  -7    2.82    2.63
 -20  -4   7    1.74    2.29
  20   4  -7    0.88    0.68
  20   4  -7    0.01    0.67
  20   4  -8    6.05    2.68
 -20  -4   8   10.78    2.64
  20   4  -8    6.05    0.85
  20   4  -9    3.00    2.56
 -20  -4   9    1.87    2.28
  20   4  -9    7.02    0.83
  20   4 -10   28.87    4.66
 -20  -4  10   26.77    4.15
  20   4 -10   25.20    1.67
  20   4 -11    1.05    2.76
  20   4 -11    3.96    0.78
  20   4 -12    5.83    2.74
  20   4 -12    9.08    0.96
  20   4 -12    8.56    0.89
  20   4 -13    2.19    2.66
  20   4 -13    2.84    0.74
  20   4 -13    2.08    0.65
  20   4 -14    4.60    2.72
  20   4 -14    4.17    0.83
  20   4 -14    4.52    0.73
  20   4 -15   -1.60    2.63
  20   4 -15   -0.47    0.72
  20   4 -15   -0.10    0.66
  20   4 -16    8.61    2.79
  20   4 -16    9.56    0.95
  20   4 -16   10.37    0.98
  20   4 -17    0.31    2.19
  20   4 -17    0.25    0.75
  20   4 -17    0.54    0.68
  20   4 -18    1.09    1.98
  20   4 -18    5.12    0.89
  20   4 -18    6.50    0.82
  20   4 -19    0.06    2.03
  20   4 -19    0.05    0.84
  20   4 -19   -0.50    0.75
  21   5  -1    3.55    2.11
 -21  -5   1    2.93    2.28
  21   5  -1    0.85    1.04
  21   5  -1    1.03    0.92
  21   5  -2    3.13    1.98
 -21  -5   2    3.45    2.27
  21   5  -2    6.46    1.05
  21   5  -2    7.01    1.05
  21   5  -3    2.07    2.10
 -21  -5   3    1.88    2.16
  21   5  -3    2.93    0.99
  21   5  -3    3.81    0.89
  21   5  -4   -0.65    2.30
 -21  -5   4    3.02    2.23
  21   5  -4    1.88    0.82
  21   5  -4    2.67    0.83
  21   5  -5    0.16    2.46
 -21  -5   5   -2.47    2.22
  21   5  -5    0.54    0.73
  21   5  -5   -0.15    0.79
  21   5  -6    1.37    2.59
 -21  -5   6    6.20    2.45
  21   5  -6    5.53    0.82
  21   5  -6    4.59    0.88
  21   5  -7   -1.30    2.64
 -21  -5   7   -0.86    2.28
  21   5  -7    0.43    0.73
  21   5  -8   10.51    3.28
 -21  -5   8   10.92    2.59
  21   5  -8   13.01    1.11
  21   5  -9    1.93    2.91
 -21  -5   9    1.71    1.97
  21   5  -9    0.79    0.70
  21   5 -10    0.20    2.82
  21   5 -10    2.00    0.68
  21   5 -11    7.74    3.16
  21   5 -11    1.34    0.68
  21   5 -12    4.64    2.85
  21   5 -12    5.21    0.76
  21   5 -13   -2.08    2.82
  21   5 -13   -0.40    0.62
  21   5 -14    6.24    3.04
  21   5 -14    8.86    0.91
  21   5 -14    9.61    0.92
  21   5 -15   -0.08    2.49
  21   5 -15    1.07    0.75
  21   5 -15    1.48    0.73
  21   5 -16    0.42    2.47
  21   5 -16    0.83    0.71
  21   5 -16    1.46    0.72
  21   5 -17    1.70    2.13
  21   5 -17   -0.72    0.79
  21   5 -17    0.31    0.66
  22   6  -4    4.45    2.59
 -22  -6   4    2.94    2.70
  22   6  -4    3.87    1.11
  22   6  -4    3.14    0.95
  22   6  -5    0.72    2.36
 -22  -6   5    2.05    2.36
  22   6  -5    3.78    1.00
  22   6  -5    3.34    0.95
  22   6  -6    1.81    2.44
 -22  -6   6    1.11    2.10
  22   6  -6    0.98    0.79
  22   6  -6    1.81    0.80
  22   6  -7    3.48    2.53
 -22  -6   7    5.73    2.32
  22   6  -7    5.39    0.85
  22   6  -8    1.74    2.32
 -22  -6   8    0.85    1.94
  22   6  -8    0.47    0.68
  22   6  -9    2.77    2.52
 -22  -6   9    1.18    1.95
  22   6  -9    4.00    0.78
  22   6 -10   -0.92    2.26
  22   6 -10    1.83    0.74
  22   6 -11    2.17    2.34
  22   6 -11   -0.03    0.67
  22   6 -12    1.08    2.33
  22   6 -12    0.04    0.65
  22   6 -13    1.09    2.59
  22   6 -13    3.07    0.74
  22   6 -14   -0.53    2.41
  22   6 -14    3.03    0.70
  22   6 -15    1.76    2.11
  22   6 -15    2.55    0.73
  22   6 -15    4.04    0.83
  -4 -22   7    1.14    0.90
   4  22  -7    0.38    0.68
  -4 -22   6    3.73    0.86
   4  22  -6    5.61    0.77
  -4 -22   5   -0.23    0.78
   4  22  -5   -0.10    0.59
  -4 -22   4   -0.29    0.78
   4  22  -4   -0.24    0.60
  -4 -22   3   -0.18    0.75
   4  22  -3    0.17    0.61
  -4 -22   2   11.97    1.09
   4  22  -2   11.07    0.98
  -4 -22   1    0.43    0.74
   4  22  -1   -0.05    0.61
  -4 -22   0   14.71    1.18
   4  22   0   15.76    1.22
  -4 -22  -1   -0.05    0.68
   4  22   1   -0.62    0.64
  -4 -22  -2    0.66    0.76
   4  22   2    1.30    0.70
  -4 -22  -3    0.81    0.73
   4  22   3    0.25    0.72
   4  22   4    6.90    1.08
   3  21  -9   -0.28    2.27
  -3 -21   9    0.64    0.85
   3  21  -9    1.45    0.64
   3  21  -8    1.39    1.79
   3  21  -8    3.26    1.97
  -3 -21   8    3.02    0.85
   3  21  -8    1.02    0.62
  -3 -21   7   13.08    1.16
   3  21  -7   16.00    1.19
  -3 -21   6    6.06    0.89
   3  21  -6    6.22    0.80
  -3 -21   5    3.57    0.82
   3  21  -5    3.61    0.67
  -3 -21   4   13.73    1.18
   3  21  -4   12.00    1.06
  -3 -21   3    0.27    0.79
   3  21  -3    2.17    0.58
  -3 -21   2   10.13    0.97
   3  21  -2   10.57    0.94
  -3 -21   1    8.73    0.97
   3  21  -1   10.06    0.94
  -3 -21   0   -0.05    0.66
   3  21   0   -0.38    0.60
  -3 -21  -1    6.37    0.81
   3  21   1    5.12    0.72
  -3 -21  -2   10.24    0.97
   3  21   2   11.18    1.02
  -3 -21  -3   -0.13    0.66
   3  21   3   -0.15    0.71
  -3 -21  -4    4.85    0.81
   3  21   4    4.15    0.82
  -3 -21  -5    6.42    0.82
   3  21   5    5.74    0.81
  -3 -21  -6    0.14    0.79
   3  21   6    0.21    0.80
  -3 -21  -7    1.77    0.86
   3  21   7    1.52    0.82
   2  20 -11    1.77    2.09
  -2 -20  11    1.45    1.02
   2  20 -11    1.52    0.77
   2  20 -10    1.64    2.04
  -2 -20  10    0.59    0.86
   2  20 -10   -0.32    0.72
   2  20  -9   13.97    2.59
  -2 -20   9   18.51    1.43
   2  20  -9   17.76    1.29
   2  20  -8   -0.99    2.25
  -2 -20   8    1.61    0.82
   2  20  -8    0.79    0.71
   2  20  -7    4.09    2.03
  -2 -20   7    3.69    0.74
   2  20  -7    2.67    0.74
   2  20  -6   -0.44    1.85
  -2 -20   6    0.27    0.78
   2  20  -6   -0.16    0.60
  -2 -20   5   16.70    1.27
   2  20  -5   16.62    1.16
  -2 -20   4   -1.14    0.67
   2  20  -4    0.55    0.67
  -2 -20   3   29.52    1.86
   2  20  -3   28.86    1.80
  -2 -20   2    0.28    0.67
   2  20  -2    1.21    0.65
  -2 -20   1    6.49    0.90
   2  20  -1    7.18    0.85
  -2 -20   0    1.85    0.77
   2  20   0    1.50    0.66
  -2 -20  -1    0.55    0.80
   2  20   1    1.14    0.68
  -2 -20  -2   -0.64    0.78
   2  20   2    0.69    0.76
  -2 -20  -3   22.49    1.57
   2  20   3   22.04    1.51
  -2 -20  -4    2.90    0.83
   2  20   4    2.07    0.73
  -2 -20  -5    5.40    0.82
   2  20   5    4.27    0.68
  -2 -20  -6    2.54    0.79
   2  20   6    3.54    0.76
  -2 -20  -7    0.22    0.67
   2  20   7    0.72    0.66
  -2 -20  -8    1.04    0.67
   2  20   8    0.53    0.75
  -2 -20  -9   10.70    1.05
   2  20   9   11.91    1.06
   1  19 -12    1.59    1.87
  -1 -19  12    1.16    0.94
   1  19 -12    1.58    0.74
   1  19 -11    6.59    1.91
  -1 -19  11    5.44    0.96
   1  19 -11    6.50    0.87
   1  19 -10    1.75    1.94
  -1 -19  10    1.47    0.80
   1  19 -10    1.78    0.71
   1  19  -9    9.30    2.30
  -1 -19   9    9.10    0.99
   1  19  -9    9.35    0.97
   1  19  -8   -0.25    1.66
  -1 -19   8    0.09    0.73
   1  19  -8    0.06    0.65
   1  19  -7   15.94    2.73
  -1 -19   7   13.35    1.11
   1  19  -7   15.42    1.13
   1  19  -6    1.41    1.75
  -1 -19   6   -0.53    0.79
   1  19  -6   -0.33    0.66
   1  19  -5   27.69    3.80
  -1 -19   5   24.17    1.61
   1  19  -5   23.40    1.56
   1  19  -4   12.22    2.03
  -1 -19   4   17.37    1.32
   1  19  -4   18.11    1.28
  -1 -19   3    5.35    0.79
   1  19  -3    4.14    0.72
  -1 -19   2    5.14    0.79
   1  19  -2    4.64    0.83
  -1 -19   1   40.35    2.45
   1  19  -1   38.17    2.27
  -1 -19   0    0.44    0.72
   1  19   0   -0.07    0.63
  -1 -19  -1   12.19    1.06
   1  19   1   12.75    1.04
  -1 -19  -2    0.99    0.70
   1  19   2    2.74    0.80
  -1 -19  -3    2.69    0.80
   1  19   3    1.74    0.70
  -1 -19  -4    2.94    0.77
   1  19   4    3.46    0.79
  -1 -19  -5   15.65    1.19
   1  19   5   13.66    1.10
  -1 -19  -6    0.35    0.71
   1  19   6    0.48    0.69
  -1 -19  -7   21.85    1.48
   1  19   7   21.91    1.49
  -1 -19  -8    1.18    0.63
   1  19   8    1.26    0.71
  -1 -19  -9    0.71    0.62
   1  19   9    0.78    0.72
  -1 -19 -10    6.61    0.90
   1  19  10    7.64    0.95
  -1 -19 -11    0.99    0.87
   1  19  11    0.89    0.77
   0  18 -12    5.74    1.80
   0 -18  12    4.48    1.03
   0  18 -12    5.30    0.80
   0  18 -11    1.91    1.48
   0 -18  11    0.21    0.73
   0  18 -11    0.45    0.72
   0  18 -10   -1.20    1.55
   0 -18  10    0.29    0.80
   0  18 -10    0.66    0.71
   0  18  -9    4.94    1.66
   0 -18   9    6.16    0.92
   0  18  -9    5.91    0.76
   0  18  -8   42.10    5.38
   0 -18   8   44.12    2.60
   0  18  -8   43.60    2.58
   0  18  -7    0.14    1.51
   0 -18   7    0.01    0.74
   0  18  -7    0.01    0.67
   0  18  -6    8.60    1.99
   0 -18   6   11.50    1.09
   0  18  -6   10.11    1.02
   0  18  -5    3.08    1.75
   0 -18   5    2.91    0.75
   0  18  -5    2.40    0.68
   0  18  -4   17.34    2.70
   0 -18   4   16.88    1.26
   0  18  -4   16.97    1.28
   0  18  -3    1.68    1.50
   0 -18   3    0.60    0.77
   0  18  -3   -0.12    0.70
   0  18  -2   17.15    2.39
   0 -18   2   15.92    1.31
   0  18  -2   15.11    1.13
   0 -18   1    3.79    0.76
   0  18  -1    2.06    0.71
   0 -18   0   56.43    3.29
   0  18   0   54.14    3.12
   0 -18  -1    2.25    0.84
   0  18   1    2.34    0.81
   0 -18  -2   16.17    1.31
   0  18   2   16.99    1.25
   0 -18  -3    0.12    0.60
   0  18   3    0.46    0.67
   0 -18  -4   17.41    1.24
   0  18   4   16.50    1.21
   0 -18  -5    1.13    0.62
   0  18   5    2.35    0.74
   0 -18  -6   11.23    1.00
   0  18   6    8.71    0.88
   0 -18  -7   -0.65    0.72
   0  18   7    0.38    0.71
   0 -18  -8   42.79    2.53
   0  18   8   44.70    2.66
   0 -18  -9    5.85    0.75
   0  18   9    6.59    0.81
   0 -18 -10   -0.45    0.72
   0  18  10    0.38    0.65
   0 -18 -11    0.73    0.76
   0  18  11    0.35    0.71
   0 -18 -12    6.29    0.84
   0  18  12    5.46    0.93
  -1  17 -13    3.50    1.65
   1 -17  13   -0.38    0.95
  -1  17 -13   -0.12    0.88
  -1  17 -12    3.46    1.56
   1 -17  12    3.22    0.96
  -1  17 -12    4.36    0.73
  -1  17 -11    0.93    1.44
   1 -17  11    0.20    0.81
  -1  17 -11    1.29    0.69
  -1  17 -10   29.81    3.97
   1 -17  10   27.73    1.82
  -1  17 -10   30.73    1.91
  -1  17  -9    2.57    1.42
   1 -17   9    1.75    0.78
  -1  17  -9    2.13    0.71
  -1  17  -8   14.65    2.49
   1 -17   8   10.99    1.09
  -1  17  -8   11.33    1.06
  -1  17  -7    3.43    1.50
   1 -17   7    5.99    0.86
  -1  17  -7    5.49    0.84
  -1  17  -6   14.06    2.34
   1 -17   6   13.22    1.11
  -1  17  -6   13.39    1.09
  -1  17  -5   -0.78    1.51
   1 -17   5   -0.10    0.69
  -1  17  -5   -0.35    0.69
  -1  17  -4    1.44    1.41
   1 -17   4    2.91    0.79
  -1  17  -4    2.24    0.64
  -1  17  -3    2.02    1.48
   1 -17   3    3.34    0.74
  -1  17  -3    4.74    0.81
  -1  17  -2   32.23    4.24
   1 -17   2   25.00    1.70
  -1  17  -2   26.52    1.74
  -1  17  -1    4.10    1.37
   1 -17   1    5.66    0.81
  -1  17  -1    6.71    0.78
  -1  17   0   26.75    3.47
   1 -17   0   29.17    1.88
  -1  17   0   28.70    1.89
   1 -17  -1    8.80    0.95
  -1  17   1   10.53    0.96
   1 -17  -2   17.21    1.35
  -1  17   2   17.38    1.31
   1 -17  -3    1.33    0.68
  -1  17   3    0.95    0.63
   1 -17  -4    7.26    0.94
  -1  17   4    5.77    0.81
   1 -17  -5    3.60    0.81
  -1  17   5    2.71    0.70
   1 -17  -6   13.85    1.16
  -1  17   6   17.21    1.34
   1 -17  -7    0.18    0.62
  -1  17   7   -0.52    0.68
   1 -17  -8   15.90    1.23
  -1  17   8   15.63    1.17
   1 -17  -9    1.69    1.19
   1 -17  -9    0.94    1.38
   1 -17  -9    1.40    0.76
  -1  17   9    2.98    0.71
   1 -17 -10   32.52    4.25
   1 -17 -10   38.06    5.03
   1 -17 -10   37.39    2.29
  -1  17  10   32.79    2.02
   1 -17 -11   -0.10    1.79
   1 -17 -11   -0.14    1.52
   1 -17 -11    0.63    0.73
  -1  17  11    0.42    0.69
   1 -17 -12   -0.40    2.17
   1 -17 -12    0.13    1.85
   1 -17 -12    0.03    0.75
  -1  17  12    1.89    0.75
   1 -17 -13   -0.50    2.07
   1 -17 -13    2.39    2.14
   1 -17 -13    0.84    0.78
  -1  17  13    1.58    0.81
   1 -17 -14   -0.32    2.36
   1 -17 -14    3.31    2.64
   1 -17 -14    0.49    0.84
  -1  17  14    0.34    0.87
  -2  16 -13    0.92    1.63
   2 -16  13    1.38    0.98
  -2  16 -13    1.33    1.01
  -2  16 -12    5.60    1.65
   2 -16  12    3.72    0.98
  -2  16 -12    4.74    0.90
  -2  16 -11    9.67    1.84
   2 -16  11   10.36    1.16
  -2  16 -11    7.81    0.88
  -2  16 -10    1.82    1.32
   2 -16  10    2.87    0.83
  -2  16 -10    3.06    0.75
  -2  16  -9   34.66    4.46
   2 -16   9   34.12    2.14
  -2  16  -9   37.67    2.28
  -2  16  -8    4.17    1.38
   2 -16   8    2.40    0.72
  -2  16  -8    2.96    0.76
  -2  16  -7   -1.03    1.36
   2 -16   7    0.67    0.68
  -2  16  -7   -0.32    0.66
  -2  16  -6   24.22    3.37
   2 -16   6   18.17    1.35
  -2  16  -6   19.16    1.41
  -2  16  -5   47.10    5.92
   2 -16   5   51.07    2.99
  -2  16  -5   50.44    2.93
  -2  16  -4    0.47    1.37
   2 -16   4    0.85    0.77
  -2  16  -4    0.45    0.74
  -2  16  -3   18.65    2.77
   2 -16   3   17.40    1.36
  -2  16  -3   18.07    1.32
  -2  16  -2   -0.75    1.35
   2 -16   2   -0.27    0.79
  -2  16  -2    0.51    0.77
  -2  16  -1   11.19    2.07
   2 -16   1   13.20    1.11
  -2  16  -1   13.14    1.13
  -2  16   0    8.18    1.67
   2 -16   0    7.97    0.93
  -2  16   0    6.83    0.82
  -2  16   1   20.97    2.90
   2 -16  -1   21.14    1.53
  -2  16   1   23.65    1.66
   2 -16  -2   44.92    2.71
  -2  16   2   39.17    2.37
   2 -16  -3   34.31    2.16
  -2  16   3   31.13    2.01
   2 -16  -4    1.39    0.86
   2 -16  -4    2.52    0.84
  -2  16   4    2.16    0.76
   2 -16  -5   26.03    3.34
   2 -16  -5   28.46    1.84
  -2  16   5   28.15    1.86
   2 -16  -6   14.69    2.18
   2 -16  -6   12.52    1.10
  -2  16   6   11.73    1.04
   2 -16  -7   -0.13    1.10
   2 -16  -7    2.00    0.75
  -2  16   7    0.14    0.73
   2 -16  -8   21.44    3.00
   2 -16  -8   19.48    1.39
  -2  16   8   19.46    1.40
   2 -16  -9   53.17    6.70
   2 -16  -9   52.73    3.06
  -2  16   9   55.30    3.21
   2 -16 -10    2.21    1.78
   2 -16 -10    3.92    0.79
  -2  16  10    2.50    0.71
   2 -16 -11   15.07    2.60
   2 -16 -11   19.33    1.40
  -2  16  11   19.21    1.37
   2 -16 -12   12.94    2.71
   2 -16 -12    9.81    0.98
  -2  16  12    9.90    0.96
   2 -16 -13    1.22    2.31
   2 -16 -13    0.68    0.74
  -2  16  13    0.67    0.74
   2 -16 -14    5.65    2.53
   2 -16 -14    4.48    0.85
  -2  16  14    5.28    0.82
   2 -16 -15    8.13    2.53
   2 -16 -15    6.39    0.92
  -2  16  15    6.50    1.00
  -3  15 -14    2.05    1.28
  -3  15 -13    8.37    1.63
   3 -15  13    8.74    1.12
  -3  15 -13   10.98    1.27
  -3  15 -12    1.78    1.36
   3 -15  12    2.21    0.92
  -3  15 -12    2.68    0.89
  -3  15 -11    4.16    1.36
   3 -15  11    7.42    0.98
  -3  15 -11    9.32    0.96
  -3  15 -10    0.99    1.24
   3 -15  10   -0.71    0.86
  -3  15 -10    0.14    0.71
  -3  15  -9    0.05    1.39
   3 -15   9    0.05    0.77
  -3  15  -9    1.03    0.69
  -3  15  -8    6.85    1.55
   3 -15   8    8.49    0.94
  -3  15  -8    9.66    0.92
  -3  15  -7   83.03   10.22
   3 -15   7   77.95    4.40
  -3  15  -7   83.21    4.64
  -3  15  -6    1.06    1.24
   3 -15   6    2.23    0.70
  -3  15  -6    1.74    0.77
  -3  15  -5   56.81    7.11
   3 -15   5   57.52    3.33
  -3  15  -5   53.70    3.10
  -3  15  -4   11.82    2.04
   3 -15   4   16.41    1.31
  -3  15  -4   14.29    1.16
  -3  15  -3    6.27    1.69
   3 -15   3    4.56    0.88
  -3  15  -3    3.57    0.80
  -3  15  -2    0.28    1.43
   3 -15   2    1.50    0.72
  -3  15  -2    0.37    0.71
  -3  15  -1    8.92    1.80
   3 -15   1    5.40    0.87
  -3  15  -1    6.86    0.88
  -3  15   0    0.84    1.23
   3 -15   0    0.55    0.64
  -3  15   0   -0.09    0.66
   3 -15  -1   17.51    2.44
  -3  15   1   21.11    3.01
   3 -15  -1   20.78    1.53
  -3  15   1   21.84    1.52
   3 -15  -2    3.39    1.07
  -3  15   2    3.34    1.50
   3 -15  -2    1.28    0.79
  -3  15   2    1.26    0.70
   3 -15  -3   71.03    8.72
  -3  15   3   92.40   11.27
   3 -15  -3   85.61    4.83
  -3  15   3   77.87    4.39
  -3  15   4   10.74    1.04
   3 -15  -5   32.87    4.23
   3 -15  -5   25.50    1.73
  -3  15   5   29.05    1.90
   3 -15  -6    2.20    1.18
   3 -15  -6    1.10    0.76
  -3  15   6    1.01    0.76
   3 -15  -7   94.00   11.52
   3 -15  -7   83.74    4.72
  -3  15   7   76.88    4.35
   3 -15  -8   -0.89    1.44
   3 -15  -8    1.66    0.65
  -3  15   8    1.83    0.71
   3 -15  -9   20.45    3.03
   3 -15  -9   25.06    1.67
  -3  15   9   24.12    1.61
   3 -15 -10    1.92    1.56
   3 -15 -10    4.14    0.76
  -3  15  10    5.45    0.81
   3 -15 -11    0.87    1.75
   3 -15 -11   -0.03    0.71
  -3  15  11    1.04    0.71
   3 -15 -12    1.72    1.78
   3 -15 -12    1.68    0.65
  -3  15  12    2.12    0.74
   3 -15 -13   40.06    5.32
   3 -15 -13   39.89    2.39
  -3  15  13   37.84    2.30
   3 -15 -14    2.05    2.01
   3 -15 -14    0.63    0.66
  -3  15  14    0.38    0.71
   3 -15 -15    8.87    2.48
   3 -15 -15    8.32    0.87
  -3  15  15    9.40    1.00
   3 -15 -16    0.97    2.13
   3 -15 -16    2.60    0.79
  -3  15  16    2.82    0.92
  -4  14 -14    2.88    1.25
   4 -14  14    2.23    0.94
  -4  14 -14    1.39    1.02
  -4  14 -13    4.49    1.28
   4 -14  13    1.87    0.90
  -4  14 -13    3.51    0.96
  -4  14 -12   13.06    2.12
   4 -14  12   12.56    1.23
  -4  14 -12   11.13    1.12
  -4  14 -11    3.55    1.32
   4 -14  11    3.14    0.90
  -4  14 -11    2.62    0.82
  -4  14 -10   -0.18    1.32
   4 -14  10    1.60    0.85
  -4  14 -10    1.63    0.71
  -4  14  -9   32.97    4.30
   4 -14   9   32.18    2.04
  -4  14  -9   28.80    1.83
  -4  14  -8    1.70    1.34
   4 -14   8    4.45    0.77
  -4  14  -8    3.35    0.71
  -4  14  -7    0.30    1.24
   4 -14   7    2.95    0.76
  -4  14  -7    2.98    0.69
  -4  14  -6   14.47    2.36
   4 -14   6   12.57    1.08
  -4  14  -6   12.95    1.08
  -4  14  -5    1.40    1.39
   4 -14   5    1.01    0.77
  -4  14  -5    1.69    0.75
  -4  14  -4   82.78   10.18
   4 -14   4   84.73    4.77
  -4  14  -4   86.23    4.80
  -4  14  -3   71.75    8.90
   4 -14   3   55.10    3.22
  -4  14  -3   57.40    3.35
  -4  14  -2   96.08   11.82
   4 -14   2   89.82    5.05
  -4  14  -2   94.39    5.26
  -4  14  -1    7.11    1.66
   4 -14   1    4.81    0.75
  -4  14  -1    5.03    0.81
   4 -14   0   24.99    3.39
  -4  14   0   27.67    3.75
   4 -14   0   32.60    2.09
  -4  14   0   32.75    2.09
   4 -14  -1    8.89    1.58
  -4  14   1   10.31    1.94
   4 -14  -1    8.52    0.98
  -4  14   1    9.30    0.93
   4 -14  -2    4.94    1.50
  -4  14   2    4.25    1.52
   4 -14  -2    7.76    0.92
  -4  14   2    7.19    0.83
   4 -14  -3  165.10   20.03
  -4  14   3  195.30   23.66
   4 -14  -3  145.10    7.99
  -4  14   3  145.70    8.04
   4 -14  -4    0.64    1.23
  -4  14   4    0.77    1.28
   4 -14  -4    0.29    0.78
  -4  14   4   -0.06    0.71
   4 -14  -5   88.20   10.80
   4 -14  -5   79.81    4.53
  -4  14   5   80.96    4.61
   4 -14  -6   45.72    5.77
   4 -14  -6   44.30    2.68
  -4  14   6   45.91    2.72
   4 -14  -7    4.25    1.50
   4 -14  -7    5.66    0.86
  -4  14   7    6.92    0.93
   4 -14  -8   96.49   11.85
   4 -14  -8   99.54    5.55
  -4  14   8  101.10    5.62
   4 -14  -9    8.42    1.95
   4 -14  -9    5.16    0.84
  -4  14   9    7.12    0.87
   4 -14 -10    2.10    1.63
   4 -14 -10    5.06    0.84
  -4  14  10    5.19    0.81
   4 -14 -11   41.76    5.47
   4 -14 -11   30.88    1.97
  -4  14  11   33.61    2.09
   4 -14 -12   16.29    2.70
   4 -14 -12   14.71    1.16
  -4  14  12   14.75    1.19
   4 -14 -13   10.46    2.19
   4 -14 -13    8.20    0.90
  -4  14  13    8.90    0.92
   4 -14 -14   28.32    3.87
   4 -14 -14   25.29    1.67
  -4  14  14   26.23    1.72
   4 -14 -15    2.82    1.78
   4 -14 -15    1.89    0.71
  -4  14  15    1.36    0.76
   4 -14 -16   -1.16    1.92
   4 -14 -16    2.37    0.74
  -4  14  16    1.85    0.77
   4 -14 -17    2.58    2.06
   4 -14 -17    1.53    0.75
  -4  14  17    2.78    0.91
  -5  13 -14    4.70    1.32
  -5  13 -14    0.52    0.79
  -5  13 -13    0.25    1.12
   5 -13  13    1.21    0.79
  -5  13 -13   -0.92    0.75
  -5  13 -12   -0.19    1.24
   5 -13  12   -1.34    0.77
  -5  13 -12   -0.42    0.71
  -5  13 -11    1.24    1.06
   5 -13  11    1.57    0.83
  -5  13 -11    1.62    0.75
  -5  13 -10   40.70    5.21
   5 -13  10   34.06    2.13
  -5  13 -10   36.76    2.23
  -5  13  -9    3.32    1.30
   5 -13   9    3.00    0.85
  -5  13  -9    3.17    0.68
  -5  13  -8    3.03    1.23
   5 -13   8    2.74    0.78
  -5  13  -8    3.16    0.68
  -5  13  -7    5.20    1.44
   5 -13   7    8.68    0.94
  -5  13  -7    7.74    0.85
  -5  13  -6    3.98    1.36
   5 -13   6    2.89    0.74
  -5  13  -6    2.87    0.65
  -5  13  -5   -0.20    1.33
   5 -13   5    1.26    0.73
  -5  13  -5    0.75    0.70
  -5  13  -4   55.08    6.87
   5 -13   4   56.19    3.27
  -5  13  -4   54.12    3.13
  -5  13  -3    2.36    1.44
   5 -13   3    2.29    0.70
  -5  13  -3    1.19    0.71
  -5  13  -2  423.40   51.10
   5 -13   2  387.20   20.89
  -5  13  -2  390.90   21.12
   5 -13   1    9.25    1.77
  -5  13  -1   12.33    2.12
   5 -13   1   15.42    1.24
  -5  13  -1   14.50    1.13
   5 -13   0   22.87    3.13
  -5  13   0   28.69    3.90
   5 -13   0   17.37    1.31
  -5  13   0   18.46    1.31
   5 -13  -1    0.38    1.37
  -5  13   1    2.34    1.38
   5 -13  -1    1.95    0.71
  -5  13   1    1.88    0.73
   5 -13  -2    6.11    1.63
  -5  13   2   12.94    2.27
   5 -13  -2    9.69    1.01
  -5  13   2    9.25    0.87
   5 -13  -3   12.77    2.10
  -5  13   3    8.41    1.72
   5 -13  -3   15.03    1.22
  -5  13   3   13.64    1.19
   5 -13  -4  386.10   46.60
  -5  13   4  433.10   52.26
   5 -13  -4  394.90   21.32
  -5  13   4  391.30   21.12
   5 -13  -5   22.81    3.20
  -5  13   5   23.16    3.20
   5 -13  -5   26.70    1.78
  -5  13   5   25.02    1.69
   5 -13  -6  117.00   14.32
   5 -13  -6  122.00    6.77
  -5  13   6  122.10    6.78
   5 -13  -7    1.31    1.71
   5 -13  -7   -0.37    0.71
  -5  13   7   -0.06    0.60
   5 -13  -8   10.87    2.16
   5 -13  -8    9.95    0.93
  -5  13   8    9.38    1.00
   5 -13  -9    7.10    1.86
   5 -13  -9   13.13    1.14
  -5  13   9   11.52    1.02
   5 -13 -10   56.09    7.08
   5 -13 -10   46.83    2.77
  -5  13  10   45.23    2.71
   5 -13 -11    0.04    1.77
   5 -13 -11   -0.45    0.58
  -5  13  11   -1.02    0.69
   5 -13 -12   40.54    5.30
   5 -13 -12   47.55    2.81
  -5  13  12   46.43    2.76
   5 -13 -13    4.70    1.73
   5 -13 -13    7.28    0.87
  -5  13  13    6.33    0.84
   5 -13 -14    6.99    1.84
   5 -13 -14    9.27    0.95
  -5  13  14   10.88    0.99
   5 -13 -15   -0.05    1.57
   5 -13 -15    0.76    0.74
  -5  13  15    0.15    0.70
   5 -13 -16   12.02    2.31
   5 -13 -16   10.21    0.94
  -5  13  16    8.76    1.05
   5 -13 -17    2.76    1.79
   5 -13 -17    2.70    0.81
   5 -13 -18    6.24    2.08
   5 -13 -18    5.44    0.85
  -6  12 -13    0.62    0.98
  -6  12 -12    5.33    1.32
   6 -12  12    2.43    0.75
  -6  12 -12    2.06    0.67
  -6  12 -11    4.34    1.32
   6 -12  11    2.30    0.82
  -6  12 -11    1.42    0.67
  -6  12 -10    2.13    1.10
   6 -12  10    1.02    0.78
  -6  12 -10    1.38    0.67
  -6  12  -9   64.97    8.02
   6 -12   9   71.69    4.05
  -6  12  -9   69.79    3.92
  -6  12  -8    1.39    1.18
   6 -12   8    1.11    0.75
  -6  12  -8    3.55    0.71
  -6  12  -7    2.12    1.24
   6 -12   7   -0.03    0.68
  -6  12  -7    1.63    0.63
  -6  12  -6   50.64    6.38
   6 -12   6   37.73    2.31
  -6  12  -6   43.33    2.57
  -6  12  -5    0.72    1.11
   6 -12   5    1.52    0.75
  -6  12  -5   -0.27    0.61
  -6  12  -4   49.93    6.27
   6 -12   4   49.34    2.88
  -6  12  -4   49.25    2.89
  -6  12  -3   50.00    6.31
   6 -12   3   54.97    3.19
  -6  12  -3   57.14    3.25
   6 -12   2    1.67    1.39
  -6  12  -2    1.44    1.40
   6 -12   2   -0.41    0.62
  -6  12  -2    0.04    0.65
   6 -12   1  105.00   12.84
  -6  12  -1  103.80   12.75
   6 -12   1  118.40    6.54
  -6  12  -1  107.80    5.99
   6 -12   0   81.38   10.02
  -6  12   0   79.37    9.83
   6 -12   0   68.28    3.89
  -6  12   0   68.62    3.87
   6 -12  -1   14.12    2.22
  -6  12   1   12.59    2.17
   6 -12  -1   13.07    1.08
  -6  12   1   12.75    1.07
   6 -12  -2   52.50    6.59
  -6  12   2   54.37    6.83
   6 -12  -2   55.46    3.23
  -6  12   2   54.41    3.18
   6 -12  -3   35.24    4.58
  -6  12   3   38.69    4.99
   6 -12  -3   40.35    2.44
  -6  12   3   39.66    2.38
   6 -12  -4   -0.78    1.41
  -6  12   4   -0.45    1.39
   6 -12  -4    0.77    0.68
  -6  12   4    1.28    0.72
   6 -12  -5   57.41    7.17
  -6  12   5   66.15    8.22
   6 -12  -5   72.16    4.12
  -6  12   5   77.33    4.38
   6 -12  -6    1.09    1.54
  -6  12   6    0.89    1.35
   6 -12  -6    1.49    0.78
  -6  12   6    1.06    0.69
   6 -12  -7   20.48    3.15
   6 -12  -7   26.33    1.79
  -6  12   7   27.39    1.84
   6 -12  -8   26.45    3.67
   6 -12  -8   18.81    1.42
  -6  12   8   20.68    1.49
   6 -12  -9    4.10    1.60
   6 -12  -9    1.25    0.63
  -6  12   9    2.25    0.73
   6 -12 -10    2.49    1.69
   6 -12 -10    0.21    0.73
  -6  12  10    1.04    0.66
   6 -12 -11   26.38    3.72
   6 -12 -11   28.87    1.87
  -6  12  11   24.95    1.68
   6 -12 -12    6.80    1.87
   6 -12 -12    4.93    0.85
  -6  12  12    4.07    0.75
   6 -12 -13    5.69    1.84
   6 -12 -13    7.58    0.89
  -6  12  13    8.57    0.92
   6 -12 -14   13.46    2.36
   6 -12 -14   11.31    1.03
  -6  12  14   12.16    1.04
   6 -12 -15   -1.01    1.50
   6 -12 -15    0.32    0.74
  -6  12  15   -0.50    0.64
   6 -12 -16   11.36    2.19
   6 -12 -16   12.24    1.11
  -6  12  16   13.32    1.07
   6 -12 -17   10.73    2.27
   6 -12 -17   11.77    1.04
   6 -12 -18    0.46    1.70
   6 -12 -18    0.08    0.75
   6 -12 -19    3.16    1.98
   6 -12 -19    4.00    0.84
   6 -12 -19    3.96    0.72
  -7  11 -13   17.14    2.41
  -7  11 -12    0.80    1.04
  -7  11 -11   18.31    2.61
   7 -11  11   12.93    0.90
  -7  11 -11   12.81    0.85
  -7  11 -10    3.80    1.29
   7 -11  10    3.46    0.74
  -7  11 -10    3.26    0.63
  -7  11  -9   20.55    2.84
   7 -11   9   20.09    1.36
  -7  11  -9   21.32    1.41
  -7  11  -8    2.80    1.22
   7 -11   8    3.74    0.74
  -7  11  -8    1.85    0.62
  -7  11  -7   36.73    4.69
   7 -11   7   38.10    2.29
  -7  11  -7   38.14    2.23
  -7  11  -6   -0.24    1.23
   7 -11   6    1.36    0.68
  -7  11  -6    0.50    0.64
  -7  11  -5  113.20   13.81
   7 -11   5  114.70    6.33
  -7  11  -5  117.70    6.45
  -7  11  -4    7.80    1.69
   7 -11   4    7.13    0.81
  -7  11  -4    7.06    0.91
   7 -11   3   35.62    4.68
  -7  11  -3   35.79    4.62
   7 -11   3   45.85    2.70
  -7  11  -3   42.47    2.52
   7 -11   2   27.59    3.74
  -7  11  -2   26.24    3.62
   7 -11   2   19.20    1.37
  -7  11  -2   21.17    1.42
   7 -11   1   25.61    3.53
  -7  11  -1   28.84    3.91
   7 -11   1   25.68    1.70
  -7  11  -1   25.01    1.68
   7 -11   0   -0.20    1.34
  -7  11   0    1.12    1.29
   7 -11   0    0.63    0.55
  -7  11   0    0.99    0.66
   7 -11  -1  177.40   21.56
  -7  11   1  162.10   19.69
   7 -11  -1  170.70    9.33
  -7  11   1  169.30    9.23
   7 -11  -2    4.54    1.59
  -7  11   2    1.27    1.53
   7 -11  -2    0.93    0.67
  -7  11   2    1.15    0.70
   7 -11  -3   50.99    6.43
  -7  11   3   54.58    6.91
   7 -11  -3   56.52    3.28
  -7  11   3   54.78    3.18
   7 -11  -4    0.56    1.39
  -7  11   4    1.15    1.44
   7 -11  -4    0.42    0.68
  -7  11   4    2.17    0.65
   7 -11  -5  198.30   24.07
  -7  11   5  183.90   22.33
   7 -11  -5  155.50    8.54
  -7  11   5  145.00    7.99
   7 -11  -6   -0.45    1.53
  -7  11   6    2.67    1.51
   7 -11  -6    1.94    0.69
  -7  11   6    1.06    0.66
   7 -11  -7  154.80   18.85
  -7  11   7  163.20   19.86
   7 -11  -7  121.10    6.72
  -7  11   7  116.30    6.46
   7 -11  -8    6.30    1.85
   7 -11  -8    6.03    0.85
  -7  11   8    6.24    0.87
   7 -11  -9   41.01    5.37
   7 -11  -9   38.32    2.38
  -7  11   9   36.97    2.30
   7 -11 -10    1.88    1.70
   7 -11 -10    1.86    0.71
  -7  11  10    0.75    0.60
   7 -11 -11    0.46    1.51
   7 -11 -11    0.37    0.65
  -7  11  11    0.76    0.70
   7 -11 -12    0.82    1.59
   7 -11 -12    1.65    0.67
  -7  11  12    1.58    0.66
   7 -11 -13   38.63    5.04
   7 -11 -13   32.81    2.09
  -7  11  13   35.02    2.17
   7 -11 -14    2.32    1.59
   7 -11 -14    1.22    0.66
  -7  11  14    0.57    0.70
   7 -11 -15   74.64    9.26
   7 -11 -15   79.85    4.47
  -7  11  15   77.65    4.37
   7 -11 -16    0.69    1.40
   7 -11 -16    2.10    0.70
   7 -11 -17    7.57    1.94
   7 -11 -17    7.23    0.79
   7 -11 -18   -0.91    1.58
   7 -11 -18    0.66    0.73
   7 -11 -19    5.01    1.90
   7 -11 -19    3.15    0.81
   7 -11 -19    2.86    0.73
  -8  10 -13    2.26    1.10
  -8  10 -12    6.98    1.54
  -8  10 -11   11.50    1.98
  -8  10 -10   -0.23    1.09
  -8  10  -9   37.41    4.76
   8 -10   9   28.97    1.75
  -8  10  -9   31.50    1.81
  -8  10  -8    8.89    1.71
   8 -10   8    9.54    0.87
  -8  10  -8   10.11    0.83
  -8  10  -7  109.10   13.32
   8 -10   7  103.70    5.71
  -8  10  -7  107.20    5.89
  -8  10  -6   40.26    5.19
   8 -10   6   34.69    2.09
  -8  10  -6   37.26    2.22
  -8  10  -5   47.68    6.08
   8 -10   5   32.73    1.98
  -8  10  -5   32.85    1.99
  -8  10  -4   26.36    3.55
   8 -10   4   34.27    2.12
  -8  10  -4   34.74    2.08
   8 -10   3  179.60   21.86
  -8  10  -3  150.10   18.26
   8 -10   3  133.50    7.33
  -8  10  -3  125.00    6.89
   8 -10   2   -0.76    1.41
  -8  10  -2   -0.52    1.46
   8 -10   2    0.61    0.67
  -8  10  -2    1.00    0.60
   8 -10   1  104.30   12.83
  -8  10  -1  102.00   12.53
   8 -10   1  105.00    5.82
  -8  10  -1  105.30    5.81
   8 -10   0   38.73    5.08
  -8  10   0   34.62    4.55
   8 -10   0   38.26    2.29
  -8  10   0   40.28    2.46
   8 -10  -1    2.32    1.49
  -8  10   1    3.74    1.60
   8 -10  -1    2.87    0.70
  -8  10   1    2.91    0.69
   8 -10  -2  112.20   13.74
  -8  10   2  118.60   14.53
   8 -10  -2  107.10    5.95
  -8  10   2  124.10    6.83
   8 -10  -3  184.60   22.42
  -8  10   3  193.20   23.46
   8 -10  -3  175.20    9.59
  -8  10   3  169.80    9.31
   8 -10  -4   36.19    4.76
  -8  10   4   34.43    4.58
   8 -10  -4   42.91    2.58
  -8  10   4   42.16    2.53
   8 -10  -5  136.80   16.71
  -8  10   5  144.20   17.56
   8 -10  -5  139.80    7.71
  -8  10   5  137.20    7.53
   8 -10  -6  113.40   13.92
  -8  10   6  102.40   12.55
   8 -10  -6  102.10    5.69
  -8  10   6  106.20    5.94
   8 -10  -7    3.02    1.65
  -8  10   7    3.23    1.47
   8 -10  -7    4.00    0.74
  -8  10   7    3.88    0.73
   8 -10  -8  113.90   13.96
  -8  10   8  107.50   13.18
   8 -10  -8  105.10    5.86
  -8  10   8  105.90    5.91
   8 -10  -9   17.96    2.88
   8 -10  -9   13.18    1.13
  -8  10   9   11.96    1.08
   8 -10 -10   28.18    4.00
   8 -10 -10   33.17    2.11
  -8  10  10   30.83    1.99
   8 -10 -11   60.67    7.60
   8 -10 -11   55.21    3.23
  -8  10  11   49.86    2.94
   8 -10 -12   -1.47    1.61
   8 -10 -12    0.34    0.68
  -8  10  12    0.62    0.68
   8 -10 -13   10.89    2.18
   8 -10 -13    9.68    0.94
  -8  10  13    8.38    0.84
   8 -10 -14    7.38    1.92
   8 -10 -14   13.39    1.14
  -8  10  14   11.95    1.07
   8 -10 -15    2.51    1.64
   8 -10 -15    0.82    0.73
   8 -10 -16   28.76    3.88
   8 -10 -16   25.56    1.68
   8 -10 -17   19.08    2.94
   8 -10 -17   17.15    1.26
   8 -10 -18    2.12    1.54
   8 -10 -18    1.23    0.67
   8 -10 -18    2.94    0.67
   8 -10 -19    9.97    2.20
   8 -10 -19   10.67    1.01
   8 -10 -19   10.40    0.91
   8 -10 -20    4.96    1.93
   8 -10 -20    4.31    0.83
   8 -10 -20    3.07    0.73
  -9   9 -13    0.90    1.31
  -9   9 -12    2.26    1.25
  -9   9 -11    1.47    1.25
  -9   9 -10   23.78    3.20
  -9   9  -9    6.02    1.44
  -9   9  -8   67.42    8.34
   9  -9   8   64.13    3.54
   9  -9   8   67.19    3.71
  -9   9  -7   33.01    4.32
   9  -9   7   22.21    1.38
  -9   9  -6   71.34    8.85
   9  -9   6   73.55    4.08
  -9   9  -6   74.78    4.13
  -9   9  -5    2.65    1.31
   9  -9   5    2.58    0.60
  -9   9  -5    2.37    0.59
  -9   9  -4  125.40   15.30
   9  -9   4  125.90    6.89
  -9   9  -4  119.10    6.49
   9  -9   3    2.38    1.55
  -9   9  -3    0.17    1.25
   9  -9   3    1.13    0.61
  -9   9  -3    1.10    0.58
   9  -9   2  301.70   36.51
  -9   9  -2  304.00   36.78
   9  -9   2  314.90   17.00
  -9   9  -2  316.60   17.09
   9  -9   1   27.93    3.79
  -9   9  -1   27.43    3.77
   9  -9   1   23.27    1.56
  -9   9  -1   24.21    1.51
   9  -9   0   68.84    8.60
  -9   9   0   62.89    7.88
   9  -9   0   79.84    4.48
  -9   9   0   74.56    4.18
   9  -9  -1   17.04    2.71
  -9   9   1   16.05    2.65
   9  -9  -1   15.55    1.17
  -9   9   1   14.67    1.16
   9  -9  -2    5.47    1.72
  -9   9   2    3.25    1.53
   9  -9  -2    1.44    0.67
  -9   9   2    2.29    0.65
   9  -9  -3   10.29    1.92
  -9   9   3   12.62    2.27
   9  -9  -3    9.87    0.94
  -9   9   3    9.01    0.89
   9  -9  -4  286.60   34.69
  -9   9   4  292.30   35.35
   9  -9  -4  259.80   14.09
  -9   9   4  259.60   14.11
   9  -9  -5    5.64    1.77
  -9   9   5    5.33    1.62
   9  -9  -5    5.92    0.76
  -9   9   5    5.09    0.75
   9  -9  -6   98.94   12.23
  -9   9   6   89.63   11.05
   9  -9  -6  112.50    6.25
  -9   9   6  107.30    5.96
   9  -9  -7    9.04    2.08
  -9   9   7   11.06    2.11
   9  -9  -7    8.05    0.89
  -9   9   7    6.44    0.88
   9  -9  -8    1.06    1.72
  -9   9   8    2.77    1.49
   9  -9  -8    7.58    0.89
  -9   9   8    5.86    0.79
   9  -9  -9    2.38    1.58
   9  -9  -9    2.38    0.77
  -9   9   9    3.15    0.77
   9  -9 -10   58.24    7.39
   9  -9 -10   43.67    2.63
  -9   9  10   46.13    2.72
   9  -9 -11   -0.41    1.80
   9  -9 -11   -0.17    0.66
  -9   9  11    0.05    0.62
   9  -9 -12   31.20    4.32
   9  -9 -12   36.63    2.27
  -9   9  12   38.84    2.38
   9  -9 -13   12.91    2.40
   9  -9 -13   12.41    1.11
  -9   9  13   11.80    1.07
   9  -9 -14   -0.62    1.70
   9  -9 -14    1.43    0.72
   9  -9 -15   10.61    2.23
   9  -9 -15    8.68    0.91
   9  -9 -16   -0.57    1.53
   9  -9 -16    0.28    0.61
   9  -9 -17    0.84    1.41
   9  -9 -17    0.00    0.66
   9  -9 -17   -0.41    0.65
   9  -9 -18   35.75    4.72
   9  -9 -18   35.68    2.15
   9  -9 -18   33.60    2.05
   9  -9 -19    2.48    1.72
   9  -9 -19    2.45    0.71
   9  -9 -19    2.85    0.68
   9  -9 -20    4.04    1.85
   9  -9 -20    6.40    0.86
   9  -9 -20    7.37    0.86
 -10   8 -12   10.13    1.72
 -10   8 -11    0.82    1.27
 -10   8 -10   26.00    3.55
 -10   8  -9    6.64    1.60
 -10   8  -8    9.38    1.72
 -10   8  -7   -0.28    1.23
 -10   8  -6   48.15    6.09
  10  -8   6   44.19    2.50
  10  -8   6   45.36    2.55
 -10   8  -5   43.46    5.59
  10  -8   5   44.45    2.53
  10  -8   4   37.66    5.03
 -10   8  -4   30.82    4.14
  10  -8   4   33.07    2.00
 -10   8  -4   35.98    2.12
  10  -8   3   11.83    2.34
 -10   8  -3   10.64    2.04
  10  -8   3   13.25    1.02
 -10   8  -3   13.81    1.00
  10  -8   2    0.54    1.83
 -10   8  -2    1.30    1.47
  10  -8   2    1.82    0.65
 -10   8  -2    1.97    0.61
  10  -8   1   22.25    3.17
 -10   8  -1   19.73    2.92
  10  -8   1   24.62    1.60
 -10   8  -1   23.82    1.53
  10  -8   0   57.27    7.28
 -10   8   0   47.30    6.05
  10  -8   0   45.67    2.69
 -10   8   0   44.95    2.60
  10  -8  -1   -0.60    1.61
 -10   8   1    0.78    1.36
  10  -8  -1    0.42    0.57
 -10   8   1    1.04    0.59
  10  -8  -2  133.90   16.40
 -10   8   2  164.20   19.99
  10  -8  -2  158.90    8.68
 -10   8   2  148.20    8.14
  10  -8  -3   65.42    8.20
 -10   8   3   66.99    8.39
  10  -8  -3   54.40    3.15
 -10   8   3   55.77    3.20
  10  -8  -4   12.24    2.37
 -10   8   4   14.79    2.43
  10  -8  -4   22.20    1.51
 -10   8   4   22.07    1.51
  10  -8  -5   62.02    7.83
 -10   8   5   80.66   10.03
  10  -8  -5   70.81    4.02
 -10   8   5   76.00    4.34
  10  -8  -6   48.38    6.30
 -10   8   6   50.67    6.49
  10  -8  -6   36.25    2.20
 -10   8   6   37.95    2.27
  10  -8  -7    2.89    1.68
 -10   8   7    3.63    1.66
  10  -8  -7    7.80    0.89
 -10   8   7    6.18    0.86
  10  -8  -8   99.64   12.33
 -10   8   8  100.90   12.44
  10  -8  -8   90.50    5.09
 -10   8   8   92.86    5.22
  10  -8  -9    4.21    1.68
 -10   8   9    3.99    1.49
  10  -8  -9    4.14    0.84
 -10   8   9    2.95    0.67
  10  -8 -10   61.66    7.84
  10  -8 -10   68.03    3.91
 -10   8  10   64.07    3.73
  10  -8 -11   16.78    3.01
  10  -8 -11   17.21    1.30
 -10   8  11   17.19    1.29
  10  -8 -12    6.53    2.11
  10  -8 -12    3.21    0.72
  10  -8 -13   -0.66    1.77
  10  -8 -13    1.42    0.80
  10  -8 -14   42.21    5.55
  10  -8 -14   37.59    2.30
  10  -8 -15   -0.86    1.75
  10  -8 -15    1.15    0.63
  10  -8 -16   28.10    3.90
  10  -8 -16   31.47    1.96
  10  -8 -16   32.49    2.00
  10  -8 -17    1.78    1.72
  10  -8 -17    0.59    0.65
  10  -8 -17    1.24    0.65
  10  -8 -18    3.22    1.76
  10  -8 -18    1.00    0.69
  10  -8 -18    0.49    0.64
  10  -8 -19    7.62    1.87
  10  -8 -19    6.56    0.82
  10  -8 -19    6.53    0.79
  10  -8 -20    9.75    2.16
  10  -8 -20    8.23    0.94
  10  -8 -20    7.60    0.88
  10  -8 -21    0.50    1.80
  10  -8 -21    0.69    0.81
  10  -8 -21    1.01    0.70
 -11   7 -12    2.58    1.44
 -11   7 -11    7.87    1.65
 -11   7 -10    1.69    1.75
 -11   7  -9    6.16    1.62
 -11   7  -8   23.09    3.30
 -11   7  -7   57.67    7.21
 -11   7  -6   27.79    3.74
 -11   7  -5   19.23    2.82
  11  -7   5   18.49    1.16
  11  -7   5   19.34    1.23
  11  -7   4    9.29    2.22
 -11   7  -4    5.50    1.66
  11  -7   4    6.45    0.68
  11  -7   4    7.54    0.71
  11  -7   3    1.43    1.73
 -11   7  -3    2.15    1.41
  11  -7   3    2.82    0.63
  11  -7   2    4.89    1.88
 -11   7  -2    3.73    1.72
  11  -7   2    2.23    0.60
  11  -7   1   72.50    9.07
 -11   7  -1   67.45    8.48
  11  -7   1   61.63    3.51
  11  -7   0   18.52    3.06
 -11   7   0   14.76    2.44
  11  -7   0   15.19    1.15
  11  -7  -1  176.20   21.48
 -11   7   1  177.60   21.59
  11  -7  -1  150.80    8.26
 -11   7   1  161.50    8.78
  11  -7  -2    8.34    2.13
 -11   7   2   10.83    2.21
  11  -7  -2   12.61    1.01
 -11   7   2   13.21    1.09
  11  -7  -3  382.60   46.25
 -11   7   3  378.30   45.71
  11  -7  -3  383.10   20.65
 -11   7   3  385.00   20.78
  11  -7  -4    0.98    1.57
 -11   7   4    3.87    1.58
  11  -7  -4    1.79    0.66
 -11   7   4    3.11    0.69
  11  -7  -5   74.17    9.28
 -11   7   5   70.95    8.88
  11  -7  -5   45.02    2.67
 -11   7   5   47.65    2.84
  11  -7  -6    0.44    1.77
 -11   7   6    0.63    1.60
  11  -7  -6    0.41    0.67
 -11   7   6    0.29    0.69
  11  -7  -7   67.63    8.52
 -11   7   7   59.85    7.53
  11  -7  -7   57.68    3.35
 -11   7   7   57.12    3.28
  11  -7  -8    8.32    2.24
 -11   7   8    3.64    1.61
  11  -7  -8    5.04    0.82
  11  -7  -9  174.80   21.29
 -11   7   9  150.60   18.35
  11  -7  -9  168.40    9.23
  11  -7 -10   31.28    4.32
  11  -7 -10   24.18    1.68
  11  -7 -11    3.14    2.08
  11  -7 -11    7.74    0.96
  11  -7 -12    7.60    2.32
  11  -7 -12    9.94    1.04
  11  -7 -13   20.16    3.14
  11  -7 -13   17.75    1.37
  11  -7 -14   -1.78    1.86
  11  -7 -14    1.70    0.75
  11  -7 -14    1.32    0.69
  11  -7 -15   38.94    5.26
  11  -7 -15   44.86    2.67
  11  -7 -15   45.71    2.73
  11  -7 -16    8.69    2.11
  11  -7 -17    4.20    1.88
  11  -7 -17    8.23    0.90
  11  -7 -17    7.39    0.86
  11  -7 -18    2.54    1.83
  11  -7 -18    3.82    0.79
  11  -7 -18    3.65    0.70
  11  -7 -19    0.21    1.76
  11  -7 -20    2.06    1.58
  11  -7 -20    1.86    0.74
  11  -7 -20    2.10    0.66
  11  -7 -21    6.45    2.13
  11  -7 -21    5.78    0.95
  11  -7 -21    6.90    0.78
 -12   6 -11    0.02    1.41
 -12   6 -10    2.16    1.56
 -12   6  -9   36.32    4.84
 -12   6  -8   -0.50    1.67
 -12   6  -7   33.60    4.53
 -12   6  -6   44.75    5.75
 -12   6  -5   10.57    1.97
  12  -6   4   32.86    4.63
 -12   6  -4   27.53    3.77
  12  -6   4   29.76    1.76
  12  -6   4   26.62    1.59
  12  -6   3    4.40    2.02
 -12   6  -3    3.58    1.57
  12  -6   3    3.17    0.57
  12  -6   3    2.71    0.59
  12  -6   2    5.13    2.01
 -12   6  -2    4.87    1.77
  12  -6   2    5.33    0.67
  12  -6   2    5.55    0.70
  12  -6   1  166.50   20.33
 -12   6  -1  152.50   18.64
  12  -6   1  151.90    8.28
  12  -6   1  141.50    7.72
  12  -6   0   48.45    6.36
 -12   6   0   41.11    5.39
  12  -6   0   41.16    2.43
  12  -6   0   42.27    2.47
  12  -6  -1   16.70    3.01
 -12   6   1   16.94    2.83
  12  -6  -1   26.78    1.72
  12  -6  -2   65.27    8.25
 -12   6   2   49.53    6.38
  12  -6  -2   63.24    3.62
  12  -6  -3   -0.03    1.51
 -12   6   3    1.56    1.67
  12  -6  -3    0.82    0.60
  12  -6  -4   91.67   11.36
 -12   6   4   83.94   10.44
  12  -6  -4   95.10    5.30
  12  -6  -5  152.20   18.61
 -12   6   5  156.40   19.10
  12  -6  -5  144.50    7.93
  12  -6  -6   25.73    3.78
 -12   6   6   29.50    4.11
  12  -6  -6   26.34    1.73
  12  -6  -7   30.85    4.47
 -12   6   7   27.73    3.88
  12  -6  -7   32.93    2.08
  12  -6  -8   17.16    2.98
 -12   6   8   14.57    2.50
  12  -6  -8   20.89    1.47
  12  -6  -9   17.50    3.02
 -12   6   9   19.74    3.07
  12  -6  -9   10.51    1.00
  12  -6 -10   39.72    5.43
 -12   6  10   40.91    5.39
  12  -6 -10   46.51    2.78
  12  -6 -11  140.50   17.26
  12  -6 -11  116.30    6.43
  12  -6 -11  116.80    6.49
  12  -6 -12    5.79    2.09
  12  -6 -12    5.29    0.94
  12  -6 -12    6.20    0.82
  12  -6 -13   40.83    5.53
  12  -6 -13   46.43    2.77
  12  -6 -13   45.11    2.71
  12  -6 -14    5.64    2.05
  12  -6 -14    5.24    0.92
  12  -6 -14    5.64    0.78
  12  -6 -15    2.05    1.79
  12  -6 -15    4.28    0.78
  12  -6 -15    4.77    0.87
  12  -6 -16    1.73    2.00
  12  -6 -16    1.92    0.65
  12  -6 -16    2.03    0.83
  12  -6 -17   57.47    7.29
  12  -6 -17   46.41    2.75
  12  -6 -17   48.10    2.79
  12  -6 -18    3.69    1.94
  12  -6 -18    0.56    0.68
  12  -6 -18   -0.85    0.65
  12  -6 -19    3.70    1.67
  12  -6 -19    3.83    0.76
  12  -6 -19    3.58    0.70
  12  -6 -20    2.29    1.61
  12  -6 -20    1.92    0.72
  12  -6 -20    1.38    0.65
  12  -6 -21    0.32    1.86
  12  -6 -21    2.21    0.83
  12  -6 -21    1.90    0.61
 -13   5 -10    8.00    1.85
 -13   5  -9    0.07    1.75
 -13   5  -8   56.47    7.18
 -13   5  -7   11.72    2.38
 -13   5  -6   38.21    5.06
 -13   5  -5   29.40    4.03
  13  -5   4   36.29    4.81
 -13   5  -4   36.85    4.91
  13  -5   4   26.92    1.57
  13  -5   4   28.08    1.63
  13  -5   3    1.13    1.64
 -13   5  -3    0.66    1.64
  13  -5   3    1.98    0.52
  13  -5   3    2.34    0.58
  13  -5   2   18.82    2.89
 -13   5  -2   14.92    2.56
  13  -5   2   14.37    1.04
  13  -5   2   13.27    1.00
  13  -5   1    5.94    2.14
 -13   5  -1    5.32    1.99
  13  -5   1    3.44    0.61
  13  -5   1    3.55    0.65
  13  -5   0   75.80    9.47
 -13   5   0   69.34    8.72
  13  -5   0   77.28    4.33
  13  -5   0   71.10    3.99
  13  -5  -1    1.60    2.07
 -13   5   1    4.63    1.82
  13  -5  -1    2.90    0.67
  13  -5  -1    2.05    0.70
  13  -5  -2    0.88    1.93
 -13   5   2    1.02    1.69
  13  -5  -2    0.47    0.70
  13  -5  -2   -0.21    0.60
  13  -5  -3   29.20    4.26
 -13   5   3   29.59    4.14
  13  -5  -3   28.22    1.81
  13  -5  -3   30.84    1.91
  13  -5  -4   18.32    3.22
 -13   5   4   18.44    2.94
  13  -5  -4   12.36    1.09
  13  -5  -4   11.21    0.98
  13  -5  -5    8.99    2.47
 -13   5   5   11.56    2.41
  13  -5  -5    8.87    0.89
  13  -5  -5    9.82    0.93
  13  -5  -6  210.20   25.62
 -13   5   6  210.20   25.57
  13  -5  -6  189.10   10.31
  13  -5  -6  200.70   10.94
  13  -5  -7   18.84    3.13
 -13   5   7   19.36    3.14
  13  -5  -7   18.99    1.35
  13  -5  -7   20.88    1.46
  13  -5  -8    1.38    2.29
 -13   5   8    3.58    1.91
  13  -5  -8    7.92    0.92
  13  -5  -8    7.04    0.80
  13  -5  -9    3.77    2.27
 -13   5   9    1.83    1.94
  13  -5  -9    2.49    0.84
  13  -5  -9    2.25    0.74
  13  -5 -10   58.27    7.52
 -13   5  10   63.28    8.01
  13  -5 -10   57.26    3.38
  13  -5 -10   54.83    3.17
  13  -5 -11    1.28    1.99
  13  -5 -11    3.09    0.89
  13  -5 -11    3.90    0.74
  13  -5 -12   24.22    3.77
  13  -5 -12   33.62    2.14
  13  -5 -12   31.07    1.95
  13  -5 -13    1.03    2.18
  13  -5 -13    1.99    0.81
  13  -5 -13    1.02    0.69
  13  -5 -14   12.05    2.60
  13  -5 -14   14.69    1.19
  13  -5 -14   14.72    1.19
  13  -5 -15    0.78    2.28
  13  -5 -15    0.97    0.65
  13  -5 -15    2.70    0.69
  13  -5 -16    5.19    1.96
  13  -5 -16    2.81    0.71
  13  -5 -16    3.62    0.72
  13  -5 -17   -0.97    1.97
  13  -5 -17    0.34    0.77
  13  -5 -17    1.19    0.73
  13  -5 -18   44.72    5.84
  13  -5 -18   41.03    2.48
  13  -5 -18   43.33    2.54
  13  -5 -19    3.59    1.75
  13  -5 -19    0.61    0.68
  13  -5 -19    1.55    0.62
  13  -5 -20    1.93    1.90
  13  -5 -20    4.00    0.81
  13  -5 -20    3.40    0.70
  13  -5 -21    3.17    1.73
  13  -5 -21    0.68    0.79
  13  -5 -21    0.71    0.64
  13  -5 -22   -0.09    0.83
  13  -5 -22    0.06    0.58
 -14   4  -9    2.08    1.39
 -14   4  -8    1.00    1.78
 -14   4  -7    0.57    1.80
 -14   4  -6   46.97    6.10
 -14   4  -5    0.77    1.65
  14  -4   4   62.62    8.00
 -14   4  -4   59.24    7.56
  14  -4   3   63.55    8.04
 -14   4  -3   56.26    7.19
  14  -4   3   54.63    3.05
  14  -4   3   56.64    3.17
  14  -4   2   51.67    6.75
 -14   4  -2   50.83    6.54
  14  -4   2   56.10    3.15
  14  -4   2   56.98    3.23
  14  -4   1    0.55    2.20
 -14   4  -1   -0.21    1.78
  14  -4   1    2.41    0.63
  14  -4   1    1.26    0.59
  14  -4   0   61.64    7.92
 -14   4   0   61.86    7.83
  14  -4   0   49.78    2.87
  14  -4   0   47.34    2.75
  14  -4  -1    1.39    2.21
 -14   4   1    1.19    1.62
  14  -4  -1    1.70    0.71
  14  -4  -1    2.21    0.61
  14  -4  -2   94.42   11.71
 -14   4   2   94.41   11.71
  14  -4  -2   86.36    4.82
  14  -4  -2   88.04    4.91
  14  -4  -3    0.26    2.14
 -14   4   3    1.77    2.05
  14  -4  -3    0.93    0.66
  14  -4  -3    0.82    0.69
  14  -4  -4   97.48   12.15
 -14   4   4   98.30   12.20
  14  -4  -4  110.10    6.08
  14  -4  -4  105.80    5.85
  14  -4  -5    5.68    2.04
 -14   4   5    9.52    2.33
  14  -4  -5    6.43    0.82
  14  -4  -5    7.21    0.89
  14  -4  -6   20.10    3.45
 -14   4   6   23.79    3.54
  14  -4  -6   34.06    2.16
  14  -4  -6   36.68    2.25
  14  -4  -7   59.95    7.74
 -14   4   7   59.93    7.66
  14  -4  -7   59.54    3.48
  14  -4  -7   54.07    3.14
  14  -4  -8   80.42   10.27
 -14   4   8   80.54   10.11
  14  -4  -8   79.36    4.51
  14  -4  -8   79.02    4.46
  14  -4  -9    4.18    2.58
 -14   4   9    2.32    1.85
  14  -4  -9    1.55    0.82
  14  -4  -9    1.46    0.69
  14  -4 -10   46.50    6.27
 -14   4  10   47.13    6.18
  14  -4 -10   66.97    3.88
  14  -4 -10   63.59    3.67
  14  -4 -11   22.59    3.60
 -14   4  11   21.62    3.33
  14  -4 -11   23.21    1.64
  14  -4 -11   23.26    1.58
  14  -4 -12    4.50    2.15
  14  -4 -12    2.40    0.81
  14  -4 -12    3.09    0.74
  14  -4 -13    1.65    2.23
  14  -4 -13    0.64    0.83
  14  -4 -13    1.07    0.65
  14  -4 -14   26.38    3.92
  14  -4 -14   20.86    1.50
  14  -4 -14   21.96    1.52
  14  -4 -15   -1.38    2.24
  14  -4 -15    1.49    0.77
  14  -4 -15    1.69    0.65
  14  -4 -16   26.06    4.16
  14  -4 -16   30.82    1.97
  14  -4 -16   29.38    1.82
  14  -4 -17   -0.34    1.70
  14  -4 -17    0.41    0.61
  14  -4 -17    1.26    0.72
  14  -4 -18    3.27    2.03
  14  -4 -18    3.68    0.74
  14  -4 -18    2.33    0.77
  14  -4 -19    0.47    1.94
  14  -4 -19    0.94    0.65
  14  -4 -19    0.25    0.65
  14  -4 -20    8.41    2.14
  14  -4 -20    6.31    0.89
  14  -4 -20    7.30    0.82
  14  -4 -21   -0.76    1.74
  14  -4 -21    0.17    0.75
  14  -4 -21    0.02    0.65
  14  -4 -22    4.35    2.48
  14  -4 -22    5.67    0.95
  14  -4 -22    4.53    0.78
 -15   3  -8    4.23    1.65
 -15   3  -7   18.30    2.95
 -15   3  -6    2.42    1.84
 -15   3  -5   42.91    5.63
 -15   3  -4   12.06    2.41
  15  -3   3   29.29    4.15
 -15   3  -3   22.50    3.48
  15  -3   3   25.98    1.54
  15  -3   3   26.07    1.56
  15  -3   2   11.59    2.12
 -15   3  -2   13.40    2.56
  15  -3   2   10.93    0.92
  15  -3   2   10.78    0.92
  15  -3   1   13.78    2.75
 -15   3  -1   13.61    2.47
  15  -3   1   16.34    1.18
  15  -3   1   17.36    1.21
  15  -3   0   14.06    2.80
 -15   3   0   15.97    2.87
  15  -3   0   16.90    1.22
  15  -3   0   15.61    1.22
  15  -3  -1   29.69    4.37
 -15   3   1   28.44    4.11
  15  -3  -1   24.64    1.60
  15  -3  -1   25.21    1.63
  15  -3  -2    1.30    2.25
 -15   3   2    1.91    1.83
  15  -3  -2    3.56    0.69
  15  -3  -2    2.83    0.67
  15  -3  -3   52.31    6.83
 -15   3   3   63.13    8.06
  15  -3  -3   66.65    3.80
  15  -3  -3   61.58    3.52
  15  -3  -4   24.20    3.89
 -15   3   4   27.02    3.92
  15  -3  -4   22.71    1.55
  15  -3  -4   21.54    1.49
  15  -3  -5   28.31    4.23
 -15   3   5   32.74    4.67
  15  -3  -5   38.82    2.37
  15  -3  -5   36.54    2.23
  15  -3  -6   11.18    2.81
 -15   3   6   11.51    2.58
  15  -3  -7   14.07    2.84
 -15   3   7   19.19    3.24
  15  -3  -7   23.14    1.60
  15  -3  -7   24.59    1.65
  15  -3  -8    4.70    2.23
 -15   3   8    4.61    2.03
  15  -3  -8    4.98    0.89
  15  -3  -8    4.12    0.78
  15  -3  -9   40.36    5.55
 -15   3   9   42.83    5.78
  15  -3  -9   43.58    2.63
  15  -3  -9   47.11    2.79
  15  -3 -10    9.00    2.40
 -15   3  10   10.48    2.43
  15  -3 -10    8.64    0.98
  15  -3 -10    8.41    0.87
  15  -3 -11    3.30    2.19
 -15   3  11    8.38    2.46
  15  -3 -11   11.39    1.06
  15  -3 -11   13.14    1.16
  15  -3 -12   29.57    4.38
  15  -3 -12   27.72    1.80
  15  -3 -12   26.79    1.78
  15  -3 -13    6.29    2.65
  15  -3 -13    2.79    0.82
  15  -3 -13    3.86    0.84
  15  -3 -14   19.69    3.50
  15  -3 -14   22.53    1.60
  15  -3 -14   21.74    1.46
  15  -3 -15   17.44    3.40
  15  -3 -15   16.01    1.31
  15  -3 -15   17.95    1.25
  15  -3 -16    1.28    2.27
  15  -3 -16    2.98    0.85
  15  -3 -16    1.60    0.72
  15  -3 -17    9.99    2.39
  15  -3 -17    9.30    1.07
  15  -3 -17   10.96    0.93
  15  -3 -18    1.86    2.09
  15  -3 -18    1.75    0.57
  15  -3 -18    2.25    0.78
  15  -3 -19    1.44    1.99
  15  -3 -19    1.04    0.82
  15  -3 -19    0.74    0.63
  15  -3 -20    2.02    1.92
  15  -3 -20    6.09    0.91
  15  -3 -20    7.13    0.86
  15  -3 -21    2.94    1.98
  15  -3 -21    3.16    0.78
  15  -3 -21    3.87    0.64
 -16   2  -7   21.04    3.17
 -16   2  -6    1.64    1.99
 -16   2  -5    4.17    1.96
 -16   2  -4    0.06    1.70
  16  -2   3    0.79    1.86
 -16   2  -3    0.63    1.94
  16  -2   2    4.80    2.02
 -16   2  -2    2.70    2.12
  16  -2   2    2.85    0.66
  16  -2   2    1.72    0.65
  16  -2   1   49.64    6.46
 -16   2  -1   57.92    7.39
  16  -2   1   50.16    2.87
  16  -2   1   52.03    2.97
  16  -2   0   10.98    2.48
 -16   2   0   17.81    3.03
  16  -2   0   13.94    1.12
  16  -2   0   13.85    1.09
  16  -2  -1    7.21    2.42
 -16   2   1    7.76    2.09
  16  -2  -1   14.50    1.14
  16  -2  -1   14.34    1.14
  16  -2  -2    3.09    2.45
 -16   2   2    3.79    2.17
  16  -2  -2    5.07    0.85
  16  -2  -2    5.97    0.86
  16  -2  -3   -0.60    2.23
 -16   2   3   -1.97    2.08
  16  -2  -3    0.39    0.72
  16  -2  -3   -0.53    0.66
  16  -2  -4    0.65    2.25
 -16   2   4   -2.07    1.85
  16  -2  -4    0.11    0.64
  16  -2  -4    0.37    0.60
  16  -2  -5   83.61   10.52
 -16   2   5   85.60   10.70
  16  -2  -5   79.04    4.46
  16  -2  -5   84.34    4.74
  16  -2  -6    5.67    2.41
 -16   2   6    8.37    2.41
  16  -2  -6    9.37    0.97
  16  -2  -6    9.45    0.97
  16  -2  -7    7.14    2.66
 -16   2   7    7.35    2.27
  16  -2  -7    8.37    0.95
  16  -2  -7    7.99    0.85
  16  -2  -8    4.62    2.56
 -16   2   8    6.37    2.20
  16  -2  -8    6.09    0.83
  16  -2  -8    7.39    0.89
  16  -2  -9    1.17    2.70
 -16   2   9   -0.16    2.22
  16  -2  -9   -0.04    0.73
  16  -2  -9   -0.24    0.66
  16  -2 -10    1.25    2.66
 -16   2  10    5.80    2.39
  16  -2 -10    2.31    0.79
  16  -2 -10    1.28    0.71
  16  -2 -11   28.90    4.39
 -16   2  11   23.88    3.74
  16  -2 -11   20.28    1.50
  16  -2 -11   20.76    1.47
  16  -2 -12    5.85    2.33
  16  -2 -12    3.24    0.77
  16  -2 -12    1.99    0.75
  16  -2 -13   53.96    7.07
  16  -2 -13   59.18    3.46
  16  -2 -13   63.75    3.62
  16  -2 -14    0.90    2.36
  16  -2 -14    2.66    0.83
  16  -2 -14    5.00    0.80
  16  -2 -15    6.79    2.34
  16  -2 -15    7.62    0.91
  16  -2 -15    8.92    0.92
  16  -2 -16    2.32    2.15
  16  -2 -16    0.82    0.71
  16  -2 -16    0.80    0.56
  16  -2 -17    2.02    2.02
  16  -2 -17    2.61    0.82
  16  -2 -17    1.53    0.69
  16  -2 -18   -2.31    2.19
  16  -2 -18    0.20    0.75
  16  -2 -18    0.03    0.64
  16  -2 -19    8.29    2.17
  16  -2 -19    9.06    0.86
  16  -2 -19    9.22    1.05
  16  -2 -20    1.92    2.01
  16  -2 -20    0.00    0.82
  16  -2 -20    0.66    0.66
  16  -2 -21    5.34    2.15
  16  -2 -21    8.71    1.01
  16  -2 -21    7.53    0.85
 -17   1  -6    6.95    1.78
 -17   1  -5   10.83    2.25
 -17   1  -4   -1.14    1.82
  17  -1   3   22.88    3.56
 -17   1  -3   20.10    3.15
  17  -1   2    9.91    2.52
 -17   1  -2    9.79    2.20
  17  -1   2    8.23    0.86
  17  -1   2    7.05    0.83
  17  -1   1    3.65    2.00
 -17   1  -1    3.54    1.83
  17  -1   1    4.39    0.76
  17  -1   1    4.83    0.78
  17  -1   0    5.86    2.35
 -17   1   0    8.27    2.36
  17  -1   0    5.44    0.78
  17  -1   0    5.51    0.79
  17  -1  -1    2.72    2.38
 -17   1   1    4.38    1.95
  17  -1  -2    2.11    2.55
 -17   1   2    0.70    1.99
  17  -1  -2    0.30    0.73
  17  -1  -2   -0.18    0.67
  17  -1  -3   34.23    4.87
 -17   1   3   37.26    5.07
  17  -1  -3   42.28    2.53
  17  -1  -3   40.11    2.39
  17  -1  -4   15.14    3.28
 -17   1   4   15.56    3.03
  17  -1  -4   12.89    1.13
  17  -1  -4   13.68    1.19
  17  -1  -5    3.49    2.69
 -17   1   5   -0.16    1.94
  17  -1  -5    3.22    0.78
  17  -1  -5    3.72    0.79
  17  -1  -6   36.75    5.35
 -17   1   6   34.93    4.96
  17  -1  -6   31.94    2.02
  17  -1  -6   32.30    2.03
  17  -1  -7   13.94    3.03
 -17   1   7   19.16    3.37
  17  -1  -7   17.46    1.34
  17  -1  -7   14.51    1.17
  17  -1  -8    0.27    2.45
 -17   1   8    2.49    2.22
  17  -1  -8    0.93    0.77
  17  -1  -8   -0.24    0.67
  17  -1  -9    1.64    2.14
 -17   1   9    6.20    2.42
  17  -1  -9    8.03    0.94
  17  -1  -9    7.64    0.87
  17  -1 -10   18.43    3.41
 -17   1  10   11.87    2.81
  17  -1 -10   10.39    1.07
  17  -1 -10    9.01    0.89
  17  -1 -11    4.92    2.45
 -17   1  11    2.90    2.25
  17  -1 -11    9.67    0.99
  17  -1 -11    7.78    0.91
  17  -1 -12   17.69    3.38
  17  -1 -12   25.89    1.77
  17  -1 -12   24.56    1.63
  17  -1 -13    6.30    2.62
  17  -1 -13    3.82    0.80
  17  -1 -13    4.33    0.78
  17  -1 -14   17.31    3.28
  17  -1 -14   25.10    1.71
  17  -1 -14   25.69    1.65
  17  -1 -15   13.03    3.06
  17  -1 -15   13.25    1.20
  17  -1 -15   10.55    1.01
  17  -1 -16   -0.52    2.28
  17  -1 -16   -0.73    0.81
  17  -1 -16    0.66    0.62
  17  -1 -17    8.84    2.84
  17  -1 -17   12.67    1.14
  17  -1 -17   10.91    0.91
  17  -1 -18    4.34    2.15
  17  -1 -18    2.11    0.81
  17  -1 -18    1.93    0.59
  17  -1 -19   -0.44    2.32
  17  -1 -19    0.04    0.70
  17  -1 -19   -0.06    0.57
  17  -1 -20    0.56    1.99
  17  -1 -20    5.23    0.89
  17  -1 -20    4.97    0.80
  17  -1 -21    0.03    2.00
  17  -1 -21    0.17    0.82
  17  -1 -21   -0.39    0.68
 -18   0  -5   -0.09    1.49
 -18   0  -4   20.14    3.01
 -18   0  -3   -0.25    2.04
  18   0   2   11.46    2.65
 -18   0  -2    8.89    2.44
  18   0   2   11.78    1.00
  18   0   2   11.87    1.01
  18   0   1    2.29    2.13
 -18   0  -1    3.72    2.22
  18   0   1    1.07    0.70
  18   0   1    0.67    0.73
  18   0   0   11.61    2.88
 -18   0   0   13.21    2.59
  18   0   0    8.90    0.93
  18   0   0   10.22    1.00
  18   0  -1    1.11    2.32
 -18   0   1    1.58    2.20
  18   0  -1    0.60    0.81
  18   0  -1    0.03    0.71
  18   0  -2    3.65    2.37
 -18   0   2    4.38    2.05
  18   0  -2    5.88    0.91
  18   0  -2    5.41    0.80
  18   0  -3   -0.78    2.45
 -18   0   3   -0.48    2.02
  18   0  -3    0.18    0.73
  18   0  -3    0.03    0.69
  18   0  -4   50.89    6.83
 -18   0   4   56.87    7.43
  18   0  -5   -0.37    2.13
 -18   0   5    0.22    2.29
  18   0  -5    0.21    0.71
  18   0  -5    0.20    0.70
  18   0  -6    8.09    2.83
 -18   0   6    7.86    2.44
  18   0  -6    2.72    0.77
  18   0  -6    4.22    0.86
  18   0  -7   -0.45    2.53
 -18   0   7    1.55    2.37
  18   0  -7   -0.71    0.70
  18   0  -7   -0.21    0.69
  18   0  -8   46.89    6.48
 -18   0   8   49.39    6.54
  18   0  -8   44.49    2.65
  18   0  -8   46.27    2.74
  18   0  -9   -2.69    2.59
 -18   0   9    0.73    2.14
  18   0  -9   -0.44    0.73
  18   0  -9   -0.09    0.72
  18   0 -10   18.04    3.68
 -18   0  10   16.99    3.29
  18   0 -11   -0.71    2.52
 -18   0  11    0.39    2.38
  18   0 -11   -0.28    0.72
  18   0 -11   -0.58    0.72
  18   0 -12    2.62    2.60
  18   0 -12    3.27    0.77
  18   0 -12    3.27    0.78
  18   0 -13   -1.58    2.55
  18   0 -14    3.03    2.09
  18   0 -14    0.88    0.70
  18   0 -14    1.45    0.76
  18   0 -15    1.80    2.43
  18   0 -15    0.16    0.71
  18   0 -15   -0.50    0.66
  18   0 -16   41.98    5.80
  18   0 -16   38.71    2.35
  18   0 -16   38.48    2.25
  18   0 -17    1.48    2.48
  18   0 -17   -0.86    0.71
  18   0 -17    0.22    0.68
  18   0 -18    5.12    2.83
  18   0 -18    5.96    0.91
  18   0 -18    5.92    0.82
  18   0 -19    0.43    1.81
  18   0 -19   -0.77    0.76
  18   0 -19   -0.57    0.71
  18   0 -20   -1.61    1.82
  18   0 -20    0.05    0.72
  18   0 -20   -0.39    0.78
  18   0 -21    0.07    2.17
  18   0 -21    0.38    0.84
  18   0 -21    0.39    0.71
 -19  -1  -3    8.23    2.18
  19   1   2    9.39    2.26
 -19  -1  -2    8.58    2.25
  19   1   2    6.73    0.86
  19   1   2    6.46    0.86
  19   1   1    2.55    1.84
 -19  -1  -1    1.26    2.04
  19   1   1    2.68    0.80
  19   1   1    3.70    0.80
  19   1   0   21.65    3.37
 -19  -1   0   21.21    3.58
  19   1   0   22.28    1.56
  19   1   0   21.49    1.54
  19   1  -1    9.58    2.29
 -19  -1   1    6.81    2.45
  19   1  -1    7.96    1.00
  19   1  -1    7.02    0.92
  19   1  -2    1.83    1.97
 -19  -1   2    1.36    1.90
  19   1  -2    2.65    0.82
  19   1  -2    1.83    0.79
  19   1  -3    6.53    2.67
 -19  -1   3    1.69    2.05
  19   1  -3    3.12    0.84
  19   1  -3    4.30    0.80
  19   1  -4    2.53    2.51
 -19  -1   4    5.00    2.32
  19   1  -4    3.13    0.82
  19   1  -4    1.63    0.75
  19   1  -5    8.96    2.80
 -19  -1   5   10.60    2.68
  19   1  -5   12.02    1.10
  19   1  -5   13.82    1.12
  19   1  -6   31.34    4.83
 -19  -1   6   34.27    4.85
  19   1  -6   35.31    2.18
  19   1  -6   33.94    2.12
  19   1  -7    9.09    2.85
 -19  -1   7    6.97    2.71
  19   1  -7    6.91    0.93
  19   1  -7    4.82    0.84
  19   1  -8    4.20    2.59
 -19  -1   8   11.13    2.72
  19   1  -8   14.39    1.20
  19   1  -8   16.35    1.24
  19   1  -9   16.27    3.11
 -19  -1   9   13.80    3.12
  19   1  -9   16.09    1.27
  19   1  -9   16.14    1.25
  19   1 -10   -0.06    2.49
 -19  -1  10   -0.58    2.39
  19   1 -10    0.59    0.73
  19   1 -10   -0.70    0.59
  19   1 -11    5.20    2.58
 -19  -1  11    9.25    2.56
  19   1 -11    4.46    0.82
  19   1 -11    6.02    0.82
  19   1 -12   36.01    5.51
  19   1 -12   34.20    2.07
  19   1 -12   32.34    2.05
  19   1 -13    3.88    2.92
  19   1 -13   -0.98    0.72
  19   1 -13   -0.34    0.74
  19   1 -14    3.58    2.57
  19   1 -14    6.92    0.89
  19   1 -14    5.61    0.83
  19   1 -15    3.86    2.53
  19   1 -15    2.37    0.69
  19   1 -15    2.13    0.71
  19   1 -16    4.45    2.47
  19   1 -16    1.05    0.71
  19   1 -16    1.04    0.61
  19   1 -17   10.31    2.99
  19   1 -17   13.37    1.12
  19   1 -17   11.75    1.04
  19   1 -18    3.08    2.47
  19   1 -18    1.53    0.71
  19   1 -18    1.36    0.65
  19   1 -19   -0.44    2.11
  19   1 -19    2.16    0.81
  19   1 -19    2.44    0.69
  19   1 -20    1.68    2.23
  19   1 -20    3.89    0.80
  19   1 -20    2.53    0.75
 -20  -2  -2   -0.25    1.86
  20   2   2    0.37    0.88
  20   2   2    0.64    0.86
  20   2   1   12.08    2.60
 -20  -2  -1   15.75    2.72
  20   2   1   12.15    1.14
  20   2   1   11.36    1.12
  20   2   0    2.47    2.18
 -20  -2   0    2.78    2.04
  20   2   0    0.65    0.96
  20   2   0   -0.35    0.85
  20   2  -1   21.03    3.51
 -20  -2   1   24.52    3.81
  20   2  -1   26.38    1.81
  20   2  -1   27.52    1.83
  20   2  -2    0.81    2.35
 -20  -2   2   -1.04    2.32
  20   2  -2   -0.48    0.82
  20   2  -2    0.10    0.80
  20   2  -3    2.66    2.42
 -20  -2   3   -1.36    1.98
  20   2  -3   -0.14    0.87
  20   2  -3    0.68    0.77
  20   2  -4    1.25    2.66
 -20  -2   4    1.28    2.12
  20   2  -4    0.34    0.78
  20   2  -4    0.61    0.79
  20   2  -5   20.04    3.76
 -20  -2   5   19.14    3.36
  20   2  -5   16.66    1.34
  20   2  -5   16.41    1.26
  20   2  -6   -0.83    2.54
 -20  -2   6    0.58    2.16
  20   2  -6    0.97    0.77
  20   2  -6    0.56    0.66
  20   2  -7   23.78    4.07
 -20  -2   7   23.13    3.90
  20   2  -7   31.08    1.96
  20   2  -7   30.96    1.95
  20   2  -8    1.56    2.36
 -20  -2   8   -0.32    2.51
  20   2  -8    0.63    0.69
  20   2  -8   -0.67    0.66
  20   2  -9    6.91    2.73
 -20  -2   9    7.89    2.55
  20   2  -9    9.66    0.98
  20   2  -9   10.01    0.97
  20   2 -10    1.43    3.09
 -20  -2  10    4.13    2.55
  20   2 -10    2.05    0.79
  20   2 -10    3.31    0.75
  20   2 -11    0.14    2.59
 -20  -2  11    1.00    2.24
  20   2 -11    0.89    0.76
  20   2 -11   -0.07    0.69
  20   2 -12    2.78    2.70
  20   2 -12    3.00    0.79
  20   2 -12    2.78    0.73
  20   2 -13   26.74    4.47
  20   2 -13   32.92    2.07
  20   2 -13   31.71    1.96
  20   2 -14   -0.20    2.66
  20   2 -14    1.93    0.76
  20   2 -14    1.37    0.66
  20   2 -15    3.33    2.75
  20   2 -15    2.60    0.80
  20   2 -15    3.32    0.73
  20   2 -16   -1.43    2.40
  20   2 -16   -0.50    0.73
  20   2 -16    1.08    0.64
  20   2 -17   -2.43    2.27
  20   2 -17   -0.27    0.67
  20   2 -17    0.29    0.73
  20   2 -18    0.30    1.81
  20   2 -18   -0.51    0.77
  20   2 -18   -1.23    0.72
  20   2 -19    5.23    2.33
  20   2 -19    4.67    0.95
  20   2 -19    3.13    0.86
  21   3   0    7.31    2.27
 -21  -3   0    7.69    2.65
  21   3   0    5.76    1.09
  21   3   0    6.12    1.14
  21   3  -1   -1.05    1.93
 -21  -3   1   -0.17    1.94
  21   3  -1   -1.08    0.98
  21   3  -1    0.39    0.95
  21   3  -2    4.27    2.13
 -21  -3   2    4.24    2.15
  21   3  -2    3.68    0.93
  21   3  -2    4.36    0.94
  21   3  -3   16.93    3.31
 -21  -3   3   14.80    3.18
  21   3  -3   16.15    1.34
  21   3  -3   14.93    1.24
  21   3  -4    0.19    2.38
 -21  -3   4    2.44    2.14
  21   3  -4    0.46    0.89
  21   3  -4   -0.11    0.82
  21   3  -5   -0.69    2.73
 -21  -3   5    4.15    2.28
  21   3  -6    6.07    2.76
 -21  -3   6    4.16    2.53
  21   3  -6    6.61    0.97
  21   3  -6    6.30    0.85
  21   3  -7   -1.65    2.48
 -21  -3   7    2.04    2.46
  21   3  -7    1.12    0.83
  21   3  -7    1.31    0.72
  21   3  -8    1.99    2.55
 -21  -3   8    5.53    2.31
  21   3  -8    3.90    0.84
  21   3  -8    2.94    0.75
  21   3  -9   10.55    3.27
 -21  -3   9    6.95    2.66
  21   3  -9    6.08    0.90
  21   3  -9    7.04    0.84
  21   3 -10    0.87    2.89
 -21  -3  10    0.92    2.41
  21   3 -10    0.36    0.76
  21   3 -10    1.05    0.65
  21   3 -11   17.50    3.88
  21   3 -11   20.34    1.47
  21   3 -11   20.87    1.43
  21   3 -12    0.51    2.72
  21   3 -12    0.91    0.78
  21   3 -12   -0.76    0.58
  21   3 -13   -2.49    2.72
  21   3 -13    1.51    0.72
  21   3 -13    1.69    0.71
  21   3 -14    4.90    2.98
  21   3 -14    5.24    0.88
  21   3 -14    3.86    0.68
  21   3 -15    3.63    0.78
  21   3 -15    3.69    0.68
  21   3 -16   -0.83    2.43
  21   3 -16    1.90    0.68
  21   3 -16    0.81    0.67
  21   3 -17    2.53    2.16
  21   3 -17    5.70    0.87
  21   3 -17    5.63    0.79
  21   3 -18    1.45    2.15
  21   3 -18    0.26    0.73
  21   3 -18    1.05    0.73
  22   4  -3    0.79    2.29
 -22  -4   3    1.97    2.46
  22   4  -3    0.83    1.08
  22   4  -3   -0.41    0.91
  22   4  -4   10.44    2.75
 -22  -4   4   14.45    2.97
  22   4  -5    0.44    2.30
 -22  -4   5   -1.06    2.30
  22   4  -5    0.38    0.90
  22   4  -5    0.61    0.78
  22   4  -6    1.76    2.56
 -22  -4   6   -1.47    2.41
  22   4  -6    0.26    0.79
  22   4  -6   -0.56    0.83
  22   4  -7    1.78    2.71
 -22  -4   7    1.91    2.54
  22   4  -7    0.13    0.82
  22   4  -7   -0.12    0.75
  22   4  -8    4.31    2.80
 -22  -4   8    1.75    2.34
  22   4  -8    0.45    0.75
  22   4  -8    1.36    0.71
  22   4  -9   -1.81    2.54
 -22  -4   9   -0.45    2.24
  22   4  -9    0.63    0.73
  22   4  -9    1.07    0.65
  22   4 -10    9.44    3.43
 -22  -4  10   10.27    2.71
  22   4 -10    9.51    1.00
  22   4 -10    9.70    0.94
  22   4 -11   -0.48    2.62
  22   4 -11   -0.12    0.73
  22   4 -11    0.05    0.69
  22   4 -12    8.48    3.11
  22   4 -12    9.66    0.96
  22   4 -12    9.37    0.95
  22   4 -13   -0.33    2.63
  22   4 -13    0.22    0.74
  22   4 -13    0.69    0.68
  22   4 -14   -1.80    2.57
  22   4 -14   -0.30    0.75
  22   4 -14   -0.38    0.69
  22   4 -15    0.07    2.35
  22   4 -15   -1.44    0.82
  22   4 -15    0.71    0.68
  22   4 -16    5.75    2.25
  22   4 -16    1.81    0.76
  22   4 -16    2.74    0.76
  23   5  -7    1.46    2.78
  23   5  -7    0.89    1.00
  23   5  -7    1.15    0.93
  23   5  -8    5.28    2.55
 -23  -5   8    2.63    2.40
  23   5  -8    5.25    1.00
  23   5  -8    3.80    0.80
  23   5  -9    1.31    2.45
 -23  -5   9    1.09    1.98
  23   5  -9   -0.36    0.77
  23   5  -9    0.02    0.80
  23   5 -10   -0.05    2.48
  23   5 -10    0.95    0.74
  23   5 -10    0.85    0.84
  23   5 -11    0.00    2.40
  23   5 -11    1.42    0.87
  23   5 -11    0.96    0.69
  23   5 -12    6.44    2.62
  23   5 -12    1.89    0.66
  23   5 -12    0.86    0.86
  23   5 -13    0.59    0.83
  23   5 -13    0.90    0.69
  -3 -23   3    1.22    0.87
   3  23  -3    0.25    0.72
  -3 -23   2    1.68    0.70
   3  23  -2    1.31    0.60
  -3 -23   1    4.70    0.95
   3  23  -1    3.82    0.71
  -3 -23   0    1.55    0.85
   3  23   0    0.22    0.81
  -2 -22   7    0.06    0.79
   2  22  -7    0.26    0.64
  -2 -22   6    8.76    0.91
   2  22  -6    8.70    0.81
  -2 -22   5    0.65    0.84
   2  22  -5   -0.29    0.63
  -2 -22   4    1.94    0.86
   2  22  -4    1.58    0.72
  -2 -22   3    0.38    0.69
   2  22  -3    0.52    0.65
  -2 -22   2    5.34    0.88
   2  22  -2    4.85    0.83
  -2 -22   1    1.43    0.71
   2  22  -1    0.44    0.60
  -2 -22   0   14.03    1.15
   2  22   0   14.02    1.10
  -2 -22  -1    1.76    0.64
   2  22   1    0.97    0.76
  -2 -22  -2    4.53    0.74
   2  22   2    3.80    0.83
  -2 -22  -3    1.04    0.66
   2  22   3   -0.68    0.69
  -2 -22  -4    5.03    0.85
   2  22   4    2.98    0.72
  -2 -22  -5    1.15    0.68
   2  22   5    1.15    0.75
   1  21  -9   -0.50    2.18
  -1 -21   9    1.64    0.95
   1  21  -9   -0.04    0.72
   1  21  -8    8.04    2.35
  -1 -21   8    6.36    0.93
   1  21  -8    8.23    0.89
   1  21  -7    2.95    2.19
  -1 -21   7    3.40    0.82
   1  21  -7    4.05    0.68
   1  21  -6   -0.81    2.02
  -1 -21   6    0.27    0.68
   1  21  -6    0.30    0.70
  -1 -21   5    1.59    0.85
   1  21  -5    1.70    0.61
  -1 -21   4    9.63    1.03
   1  21  -4    9.01    0.90
  -1 -21   3   -0.24    0.74
   1  21  -3    0.33    0.64
  -1 -21   2    6.85    0.91
   1  21  -2    7.92    0.91
  -1 -21   1    8.54    0.93
   1  21  -1    7.60    0.78
  -1 -21   0   -0.39    0.69
   1  21   0    0.50    0.65
  -1 -21  -1    2.28    0.68
   1  21   1    1.96    0.70
  -1 -21  -2   17.84    1.30
   1  21   2   16.00    1.23
  -1 -21  -3    0.15    0.75
   1  21   3    1.27    0.63
  -1 -21  -4    3.08    0.74
   1  21   4    4.81    0.69
  -1 -21  -5    3.33    0.69
   1  21   5    4.24    0.69
  -1 -21  -6   -0.01    0.73
   1  21   6   -0.75    0.72
  -1 -21  -7    0.50    0.71
   1  21   7    2.74    0.79
  -1 -21  -8    2.52    0.84
   1  21   8    2.12    0.80
   0  20 -10    0.49    1.83
   0 -20  10    1.11    0.97
   0  20 -10    1.94    0.80
   0  20  -9    8.56    2.16
   0 -20   9    8.60    1.05
   0  20  -9    6.14    0.81
   0  20  -8   -0.41    1.95
   0 -20   8    1.56    0.71
   0  20  -8    1.21    0.71
   0  20  -7    2.74    2.23
   0 -20   7    1.59    0.68
   0  20  -7    2.40    0.69
   0  20  -6    1.56    1.93
   0 -20   6    2.42    0.77
   0  20  -6    2.55    0.66
   0  20  -5    5.70    2.17
   0 -20   5    5.03    0.89
   0  20  -5    5.37    0.78
   0  20  -4   -0.58    1.63
   0 -20   4    0.38    0.66
   0  20  -4   -0.20    0.59
   0  20  -3   24.50    3.20
   0 -20   3   27.09    1.79
   0  20  -3   26.46    1.66
   0 -20   2    2.75    0.76
   0  20  -2    4.05    0.70
   0 -20   1    5.21    0.83
   0  20  -1    4.14    0.69
   0 -20   0    1.23    0.67
   0  20   0    1.24    0.78
   0 -20  -1    5.27    0.89
   0  20   1    4.38    0.66
   0 -20  -2    2.60    0.78
   0  20   2    2.88    0.79
   0 -20  -3   26.25    1.71
   0  20   3   24.56    1.59
   0 -20  -4    1.21    0.65
   0  20   4    0.14    0.62
   0 -20  -5    3.37    0.79
   0  20   5    4.60    0.79
   0 -20  -6    3.07    0.75
   0  20   6    1.78    0.72
   0 -20  -7    2.15    0.73
   0  20   7    0.69    0.65
   0 -20  -8    0.19    0.60
   0  20   8   -0.56    0.72
   0 -20  -9    7.36    0.83
   0  20   9    7.86    0.90
   0 -20 -10    2.01    0.69
   0  20  10    0.69    0.70
  -1  19 -11    3.39    2.02
   1 -19  11   -0.53    0.98
  -1  19 -11    0.23    0.74
  -1  19 -10    8.59    1.99
   1 -19  10    7.06    1.06
  -1  19 -10    6.64    0.87
  -1  19  -9    0.95    1.91
   1 -19   9    0.96    0.79
  -1  19  -9    1.61    0.73
  -1  19  -8    0.33    1.82
   1 -19   8    1.07    0.79
  -1  19  -8   -0.25    0.64
  -1  19  -7   29.93    4.12
   1 -19   7   22.80    1.59
  -1  19  -7   21.91    1.48
  -1  19  -6    0.64    1.74
   1 -19   6    0.48    0.74
  -1  19  -6   -0.11    0.60
  -1  19  -5   14.21    2.58
   1 -19   5   14.87    1.20
  -1  19  -5   14.24    1.16
  -1  19  -4    1.94    1.71
   1 -19   4    3.99    0.81
  -1  19  -4    3.80    0.66
  -1  19  -3    1.37    1.55
   1 -19   3    2.21    0.79
  -1  19  -3    1.56    0.67
  -1  19  -2    1.51    1.41
   1 -19   2    1.10    0.67
  -1  19  -2    0.61    0.59
  -1  19  -1   13.29    1.94
   1 -19   1   14.33    1.17
  -1  19  -1   12.37    1.03
   1 -19   0    1.04    0.69
  -1  19   0   -0.36    0.61
   1 -19  -1   38.20    2.33
  -1  19   1   40.73    2.42
   1 -19  -2    5.87    0.84
  -1  19   2    4.82    0.81
   1 -19  -3    4.38    0.81
  -1  19   3    5.13    0.73
   1 -19  -4   15.60    1.18
  -1  19   4   14.66    1.11
   1 -19  -5   22.25    1.49
  -1  19   5   21.60    1.48
   1 -19  -6    0.04    0.68
  -1  19   6   -0.52    0.64
   1 -19  -7   12.76    1.03
  -1  19   7   12.24    1.07
   1 -19  -8    0.23    0.71
  -1  19   8    1.55    0.66
   1 -19  -9    7.50    0.88
  -1  19   9    7.52    0.93
   1 -19 -10   -0.69    0.73
  -1  19  10    0.16    0.63
   1 -19 -11    5.21    0.91
  -1  19  11    5.13    0.78
   1 -19 -12    0.53    0.74
  -1  19  12    1.41    0.76
  -2  18 -11    2.09    1.59
   2 -18  11    1.47    0.98
  -2  18 -11    1.68    0.75
  -2  18 -10    2.49    1.63
   2 -18  10    0.76    0.87
  -2  18 -10    2.64    0.74
  -2  18  -9    2.36    1.67
   2 -18   9    0.30    0.85
  -2  18  -9    0.51    0.71
  -2  18  -8   16.49    2.68
   2 -18   8   14.60    1.22
  -2  18  -8   17.25    1.25
  -2  18  -7    1.25    1.65
   2 -18   7    0.50    0.71
  -2  18  -7    0.65    0.69
  -2  18  -6   26.74    3.75
   2 -18   6   28.73    1.85
  -2  18  -6   28.41    1.81
  -2  18  -5    2.12    1.71
   2 -18   5    0.88    0.71
  -2  18  -5    0.55    0.63
  -2  18  -4    2.50    1.80
   2 -18   4    1.50    0.76
  -2  18  -4    3.17    0.80
  -2  18  -3    0.20    1.61
   2 -18   3    1.20    0.69
  -2  18  -3    0.08    0.59
  -2  18  -2   18.58    2.92
   2 -18   2   15.95    1.25
  -2  18  -2   14.23    1.14
  -2  18  -1    0.56    1.55
   2 -18   1    1.08    0.70
  -2  18  -1    0.19    0.61
  -2  18   0   34.82    4.50
   2 -18   0   35.81    2.20
  -2  18   0   37.24    2.25
   2 -18  -1   17.58    1.28
  -2  18   1   15.86    1.25
   2 -18  -2   61.21    3.51
  -2  18   2   54.39    3.13
   2 -18  -3    3.37    0.84
  -2  18   3    3.35    0.70
   2 -18  -4    3.07    0.79
  -2  18   4    2.55    0.64
   2 -18  -5    3.39    0.79
  -2  18   5    2.40    0.71
   2 -18  -6   22.39    1.55
  -2  18   6   23.33    1.55
   2 -18  -7    1.16    0.67
  -2  18   7    1.26    0.75
   2 -18  -8   19.05    2.55
   2 -18  -8   23.78    1.60
  -2  18   8   23.34    1.58
   2 -18  -9   14.65    2.27
   2 -18  -9   12.69    1.07
  -2  18   9   11.40    0.99
   2 -18 -10    0.76    1.61
   2 -18 -10    0.60    0.66
  -2  18  10    0.52    0.61
   2 -18 -11    7.83    2.34
   2 -18 -11    7.20    0.83
  -2  18  11    7.86    0.91
   2 -18 -12    9.41    2.54
   2 -18 -12   12.89    1.14
  -2  18  12   11.91    1.12
   2 -18 -13   -1.51    2.21
   2 -18 -13   -0.06    2.18
   2 -18 -13    0.74    0.72
  -2  18  13   -0.26    0.81
  -3  17 -12    6.87    1.80
   3 -17  12    3.78    1.07
  -3  17 -12    4.54    1.22
  -3  17 -11   -0.70    1.43
   3 -17  11    1.22    1.02
  -3  17 -11   -0.48    0.91
  -3  17 -10   19.28    2.98
   3 -17  10   19.38    1.50
  -3  17 -10   20.18    1.44
  -3  17  -9    2.06    1.47
   3 -17   9    1.76    0.87
  -3  17  -9    1.43    0.71
  -3  17  -8   21.29    3.01
   3 -17   8   19.03    1.44
  -3  17  -8   15.66    1.23
  -3  17  -7    7.20    1.81
   3 -17   7   11.33    1.14
  -3  17  -7   11.03    0.96
  -3  17  -6   30.82    4.09
   3 -17   6   28.31    1.82
  -3  17  -6   28.29    1.77
  -3  17  -5    2.61    1.50
   3 -17   5    4.45    0.82
  -3  17  -5    5.37    0.80
  -3  17  -4   13.87    2.38
   3 -17   4   14.65    1.22
  -3  17  -4   14.42    1.16
  -3  17  -3    6.80    1.82
   3 -17   3    7.72    0.96
  -3  17  -3    7.08    0.86
  -3  17  -2   73.29    9.13
   3 -17   2   67.65    3.88
  -3  17  -2   63.72    3.61
  -3  17  -1   14.44    2.52
   3 -17   1   15.30    1.18
  -3  17  -1   16.20    1.29
  -3  17   0    3.52    1.58
   3 -17   0    0.29    0.70
  -3  17   0    1.55    0.71
  -3  17   1    2.17    1.33
   3 -17  -1    3.23    0.81
  -3  17   1    3.52    0.72
  -3  17   2   75.85    9.32
   3 -17  -2   66.36    3.82
  -3  17   2   62.84    3.62
   3 -17  -3    1.88    0.74
  -3  17   3    2.10    0.65
   3 -17  -4   25.12    3.28
   3 -17  -4   30.54    1.97
  -3  17   4   32.01    2.03
   3 -17  -5    3.24    1.19
   3 -17  -5    4.11    0.76
  -3  17   5    4.99    0.77
   3 -17  -6   30.01    3.97
   3 -17  -6   30.30    1.91
  -3  17   6   33.10    2.11
   3 -17  -7    5.23    1.51
   3 -17  -7    6.96    0.87
  -3  17   7    6.83    0.87
   3 -17  -8    4.39    1.41
   3 -17  -8    3.29    0.71
  -3  17   8    4.15    0.74
   3 -17  -9    0.86    1.62
   3 -17  -9    3.66    0.76
  -3  17   9    3.64    0.73
   3 -17 -10   79.21    9.88
   3 -17 -10   70.29    3.96
  -3  17  10   69.28    3.93
   3 -17 -11    3.46    2.21
   3 -17 -11    3.27    0.75
  -3  17  11    3.88    0.79
   3 -17 -12    5.12    2.36
   3 -17 -12    9.59    0.97
  -3  17  12    8.20    0.98
   3 -17 -13    5.07    2.49
   3 -17 -13    1.15    0.70
  -3  17  13    1.26    0.76
   3 -17 -14    0.32    2.22
   3 -17 -14   -0.58    0.73
  -3  17  14   -0.30    0.73
  -4  16 -12    1.13    1.31
   4 -16  12    0.03    0.98
  -4  16 -12    1.26    1.05
  -4  16 -11    7.67    1.72
   4 -16  11    8.20    1.07
  -4  16 -11    8.28    1.06
  -4  16 -10   -0.14    1.39
   4 -16  10    0.36    0.93
  -4  16 -10    1.28    0.84
  -4  16  -9   15.65    2.38
   4 -16   9   17.21    1.37
  -4  16  -9   13.91    1.19
  -4  16  -8    5.74    1.62
   4 -16   8    3.23    0.81
  -4  16  -8    3.12    0.75
  -4  16  -7   14.65    2.34
   4 -16   7   15.88    1.31
  -4  16  -7   16.39    1.21
  -4  16  -6   23.05    3.22
   4 -16   6   17.26    1.27
  -4  16  -6   20.46    1.44
  -4  16  -5   29.84    3.98
   4 -16   5   34.02    2.11
  -4  16  -5   34.30    2.11
  -4  16  -4    2.06    1.46
   4 -16   4    0.02    0.77
  -4  16  -4    1.20    0.71
  -4  16  -3    2.56    1.50
   4 -16   3    6.00    0.88
  -4  16  -3    7.04    0.92
  -4  16  -2   -0.34    1.45
   4 -16   2    0.60    0.69
  -4  16  -2    0.66    0.72
  -4  16  -1   71.85    8.92
   4 -16   1   77.19    4.39
  -4  16  -1   79.93    4.49
  -4  16   0   12.87    2.35
   4 -16   0    8.59    0.92
  -4  16   0    9.10    1.02
   4 -16  -1   21.79    3.05
  -4  16   1   22.73    3.25
   4 -16  -1   25.67    1.72
  -4  16   1   22.71    1.54
   4 -16  -2   10.08    1.80
  -4  16   2   11.56    2.20
   4 -16  -2    9.88    1.03
  -4  16   2   11.20    1.04
   4 -16  -3   64.22    7.95
  -4  16   3   72.35    8.95
   4 -16  -3   73.55    4.19
  -4  16   3   69.50    3.98
   4 -16  -4   22.76    3.12
   4 -16  -4   22.80    1.59
  -4  16   4   25.78    1.67
   4 -16  -5   51.19    6.41
   4 -16  -5   48.12    2.87
  -4  16   5   58.08    3.39
   4 -16  -6    2.70    1.32
   4 -16  -6    2.63    0.75
  -4  16   6    3.76    0.69
   4 -16  -7    7.19    1.69
   4 -16  -7   11.53    1.05
  -4  16   7   11.40    1.10
   4 -16  -8   15.46    2.48
   4 -16  -8   12.18    1.01
  -4  16   8   13.97    1.15
   4 -16  -9   25.95    3.69
   4 -16  -9   24.74    1.64
  -4  16   9   23.33    1.55
   4 -16 -10   -0.50    1.86
   4 -16 -10    0.80    0.72
  -4  16  10    0.28    0.71
   4 -16 -11   61.15    7.74
   4 -16 -11   63.24    3.60
  -4  16  11   64.44    3.68
   4 -16 -12    2.07    1.84
   4 -16 -12    1.90    0.72
  -4  16  12    1.31    0.69
   4 -16 -13    4.55    2.25
   4 -16 -13    2.36    0.66
  -4  16  13    1.96    0.72
   4 -16 -14    8.59    2.64
   4 -16 -14    5.05    0.84
  -4  16  14    4.93    0.79
   4 -16 -15    0.35    2.30
   4 -16 -15    2.46    0.75
  -4  16  15    2.66    0.76
   4 -16 -16   -0.75    0.78
  -4  16  16    0.69    0.93
  -5  15 -12   -0.50    1.15
   5 -15  12    0.45    0.85
  -5  15 -12    0.70    0.97
  -5  15 -11    4.46    1.48
   5 -15  11    3.39    1.00
  -5  15 -11    3.43    0.90
  -5  15 -10    2.00    1.41
   5 -15  10    1.59    0.91
  -5  15 -10    2.79    0.82
  -5  15  -9    0.26    1.31
   5 -15   9    0.04    0.84
  -5  15  -9   -0.03    0.67
  -5  15  -8    0.87    1.38
   5 -15   8   -0.01    0.73
  -5  15  -8   -0.08    0.65
  -5  15  -7   39.63    5.08
   5 -15   7   40.92    2.47
  -5  15  -7   34.87    2.12
  -5  15  -6   -1.27    1.22
   5 -15   6   -0.26    0.71
  -5  15  -6    0.85    0.70
  -5  15  -5    9.36    1.80
   5 -15   5    7.47    0.96
  -5  15  -5    7.90    0.82
  -5  15  -4    5.03    1.44
   5 -15   4    7.68    0.87
  -5  15  -4    7.22    0.88
  -5  15  -3    4.44    1.59
   5 -15   3    3.72    0.75
  -5  15  -3    4.38    0.70
  -5  15  -2    0.03    1.55
   5 -15   2   -0.11    0.71
  -5  15  -2    1.40    0.72
  -5  15  -1   11.74    2.20
   5 -15   1    8.06    0.95
  -5  15  -1    6.76    0.83
   5 -15   0   -0.39    1.22
  -5  15   0    0.27    1.52
   5 -15   0    1.37    0.77
  -5  15   0    1.14    0.68
   5 -15  -1   92.75   11.35
  -5  15   1  114.20   13.98
   5 -15  -1  100.90    5.63
  -5  15   1   95.54    5.36
   5 -15  -2   10.22    1.84
  -5  15   2   11.26    2.13
   5 -15  -2   11.57    1.08
  -5  15   2   14.07    1.13
   5 -15  -3   13.43    2.17
  -5  15   3   14.18    2.38
   5 -15  -3   15.89    1.28
  -5  15   3   15.49    1.27
   5 -15  -4    1.68    1.46
  -5  15   4    2.71    1.47
   5 -15  -4    6.01    0.89
  -5  15   4    5.90    0.92
   5 -15  -5    4.22    1.60
   5 -15  -5    4.41    0.87
  -5  15   5    5.84    0.85
   5 -15  -6    6.76    1.70
   5 -15  -6    6.96    0.85
  -5  15   6    5.86    0.93
   5 -15  -7   27.18    3.72
   5 -15  -7   28.07    1.82
  -5  15   7   31.29    1.97
   5 -15  -8    5.40    1.90
   5 -15  -8    6.45    0.89
  -5  15   8    6.68    0.87
   5 -15  -9   54.84    6.99
   5 -15  -9   54.13    3.16
  -5  15   9   53.80    3.13
   5 -15 -10    2.85    1.84
   5 -15 -10    3.98    0.78
  -5  15  10    4.43    0.78
   5 -15 -11   -0.53    1.76
   5 -15 -11   -0.11    0.68
  -5  15  11    0.45    0.65
   5 -15 -12    3.97    1.89
   5 -15 -12    7.87    0.92
  -5  15  12    8.52    0.90
   5 -15 -13   33.69    4.57
   5 -15 -13   30.04    1.90
  -5  15  13   27.57    1.77
   5 -15 -14    1.19    2.16
   5 -15 -14   -0.04    0.70
  -5  15  14    0.25    0.68
   5 -15 -15   15.29    2.99
   5 -15 -15   15.72    1.16
  -5  15  15   17.37    1.29
   5 -15 -16    3.04    2.07
   5 -15 -16   -0.39    0.68
  -5  15  16   -0.11    0.74
   5 -15 -17   -1.46    2.59
   5 -15 -17    0.40    0.79
  -5  15  17    0.41    0.95
  -6  14 -12   13.06    1.94
   6 -14  12   11.88    1.11
  -6  14 -12    5.06    0.95
  -6  14 -11    0.65    1.30
   6 -14  11   -0.16    0.92
  -6  14 -11    0.47    0.83
  -6  14 -10    1.81    1.14
   6 -14  10    2.77    0.89
  -6  14 -10    1.92    0.86
  -6  14  -9    8.91    1.62
   6 -14   9    6.78    1.00
  -6  14  -9    6.20    0.86
  -6  14  -8   16.86    2.57
   6 -14   8   17.98    1.41
  -6  14  -8   15.83    1.20
  -6  14  -7   -0.46    1.35
   6 -14   7   -0.41    0.74
  -6  14  -7    0.94    0.67
  -6  14  -6   35.70    4.67
   6 -14   6   36.51    2.23
  -6  14  -6   33.36    2.03
  -6  14  -5   -1.85    1.26
   6 -14   5   -1.52    0.73
  -6  14  -5    0.21    0.61
  -6  14  -4   27.44    3.72
   6 -14   4   29.65    1.90
  -6  14  -4   30.87    1.94
  -6  14  -3   80.18    9.92
   6 -14   3   61.21    3.52
  -6  14  -3   64.60    3.71
  -6  14  -2   13.07    2.25
   6 -14   2   10.67    1.03
  -6  14  -2    8.45    0.91
   6 -14   1   21.29    3.06
  -6  14  -1   21.97    3.14
   6 -14   1   21.85    1.55
  -6  14  -1   22.48    1.56
   6 -14   0   15.29    2.36
  -6  14   0   12.23    2.24
   6 -14   0   18.42    1.39
  -6  14   0   19.38    1.36
   6 -14  -1    2.30    1.34
  -6  14   1   -0.33    1.78
   6 -14  -1    3.60    0.79
  -6  14   1    4.25    0.75
   6 -14  -2   86.49   10.64
  -6  14   2   97.16   11.96
   6 -14  -2   96.24    5.38
  -6  14   2   96.90    5.45
   6 -14  -3    2.40    1.43
  -6  14   3    4.63    1.63
   6 -14  -3    0.45    0.74
  -6  14   3    0.30    0.70
   6 -14  -4    5.75    1.57
  -6  14   4    4.55    1.79
   6 -14  -4    5.90    0.89
  -6  14   4    4.53    0.86
   6 -14  -5  103.30   12.63
  -6  14   5  120.00   14.69
   6 -14  -5   96.49    5.39
  -6  14   5   96.80    5.42
   6 -14  -6   22.38    3.18
   6 -14  -6   17.62    1.34
  -6  14   6   16.95    1.29
   6 -14  -7    2.70    1.66
   6 -14  -7    1.73    0.74
  -6  14   7    1.23    0.66
   6 -14  -8    2.20    1.63
   6 -14  -8    3.69    0.78
  -6  14   8    2.92    0.73
   6 -14  -9    5.06    1.81
   6 -14  -9    3.57    0.70
  -6  14   9    5.09    0.83
   6 -14 -10   10.75    2.28
   6 -14 -10   13.99    1.14
  -6  14  10   13.95    1.20
   6 -14 -11   11.87    2.32
   6 -14 -11    9.77    0.97
  -6  14  11   10.82    0.99
   6 -14 -12    6.16    1.99
   6 -14 -12    3.32    0.74
  -6  14  12    3.71    0.74
   6 -14 -13   13.21    2.57
   6 -14 -13    7.29    0.87
  -6  14  13    8.16    0.89
   6 -14 -14   39.44    5.20
   6 -14 -14   38.56    2.32
  -6  14  14   33.58    2.07
   6 -14 -15    3.39    1.83
   6 -14 -15    2.43    0.73
  -6  14  15    1.98    0.69
   6 -14 -16    0.47    1.88
   6 -14 -16    4.45    0.77
  -6  14  16    4.72    0.78
   6 -14 -17    2.23    2.03
   6 -14 -17    1.49    0.75
  -6  14  17    1.07    0.66
  -7  13 -12    0.90    1.09
   7 -13  12    0.12    0.69
  -7  13 -12    0.00    0.54
  -7  13 -11   -0.38    1.23
   7 -13  11    0.29    0.79
  -7  13 -11    0.53    0.79
  -7  13 -10   15.23    2.36
   7 -13  10   13.54    1.20
  -7  13 -10   14.87    1.19
  -7  13  -9    1.46    1.34
   7 -13   9    0.71    0.86
  -7  13  -9    0.80    0.73
  -7  13  -8   34.10    4.45
   7 -13   8   31.69    2.01
  -7  13  -8   37.87    2.27
  -7  13  -7    3.26    1.24
   7 -13   7    2.79    0.82
  -7  13  -7    3.49    0.67
  -7  13  -6    0.71    1.37
   7 -13   6    1.09    0.71
  -7  13  -6    1.27    0.69
  -7  13  -5    0.44    1.17
   7 -13   5   -0.21    0.69
  -7  13  -5    0.25    0.70
  -7  13  -4   28.13    3.80
   7 -13   4   25.41    1.67
  -7  13  -4   24.28    1.54
  -7  13  -3    0.88    1.32
   7 -13   3   -0.18    0.62
  -7  13  -3   -1.25    0.73
   7 -13   2  242.10   29.31
  -7  13  -2  245.20   29.68
   7 -13   2  251.90   13.65
  -7  13  -2  248.30   13.45
   7 -13   1    1.78    1.35
  -7  13  -1    2.57    1.44
   7 -13   1    5.14    0.83
  -7  13  -1    3.03    0.77
   7 -13   0   11.62    2.15
  -7  13   0   11.97    2.17
   7 -13   0    5.58    0.85
  -7  13   0    7.29    0.93
   7 -13  -1   12.03    2.12
  -7  13   1    9.59    2.08
   7 -13  -1    9.37    0.98
  -7  13   1    8.46    0.85
   7 -13  -2    3.54    1.57
  -7  13   2    5.85    1.76
   7 -13  -2    7.95    0.95
  -7  13   2    6.67    0.82
   7 -13  -3    5.70    1.62
  -7  13   3    8.25    1.91
   7 -13  -3    8.36    0.91
  -7  13   3    8.00    0.97
   7 -13  -4   60.84    7.62
  -7  13   4   61.80    7.76
   7 -13  -4   61.60    3.57
  -7  13   4   64.04    3.66
   7 -13  -5   -1.54    1.49
  -7  13   5   -0.92    1.76
   7 -13  -5   -0.45    0.70
  -7  13   5   -0.35    0.69
   7 -13  -6   60.21    7.55
  -7  13   6   66.98    8.44
   7 -13  -6   65.71    3.77
  -7  13   6   64.98    3.73
   7 -13  -7   15.49    2.56
   7 -13  -7   18.98    1.42
  -7  13   7   18.50    1.38
   7 -13  -8    6.79    1.97
   7 -13  -8    5.40    0.88
  -7  13   8    5.34    0.87
   7 -13  -9    3.15    1.93
   7 -13  -9    3.16    0.75
  -7  13   9    2.38    0.72
   7 -13 -10   45.12    5.84
   7 -13 -10   33.90    2.13
  -7  13  10   35.09    2.20
   7 -13 -11    0.69    1.78
   7 -13 -11    0.04    0.71
  -7  13  11   -0.32    0.67
   7 -13 -12   27.72    3.92
   7 -13 -12   22.48    1.56
  -7  13  12   24.51    1.63
   7 -13 -13    1.59    1.93
   7 -13 -13    2.22    0.73
  -7  13  13    2.54    0.70
   7 -13 -14    9.40    2.11
   7 -13 -14   13.80    1.12
  -7  13  14   11.14    1.01
   7 -13 -15    3.47    1.83
   7 -13 -15    5.92    0.84
  -7  13  15    6.20    0.81
   7 -13 -16   20.30    3.24
   7 -13 -16   15.17    1.19
  -7  13  16   15.23    1.21
   7 -13 -17   -0.04    1.76
   7 -13 -17   -0.49    0.74
   7 -13 -18    4.42    2.02
   7 -13 -18    7.42    0.89
  -8  12 -12    7.49    1.40
  -8  12 -11    0.17    1.26
  -8  12 -10    7.12    1.50
   8 -12  10    5.44    0.85
  -8  12 -10    3.94    0.69
  -8  12  -9   18.85    2.67
   8 -12   9   18.57    1.35
  -8  12  -9   18.06    1.28
  -8  12  -8    0.37    1.21
   8 -12   8    1.39    0.77
  -8  12  -8    1.82    0.71
  -8  12  -7    8.74    1.79
   8 -12   7   10.32    1.02
  -8  12  -7   10.60    0.99
  -8  12  -6   13.52    2.19
   8 -12   6   11.02    1.02
  -8  12  -6   12.75    1.06
  -8  12  -5    6.52    1.49
   8 -12   5    6.82    0.87
  -8  12  -5    5.76    0.74
  -8  12  -4   30.95    4.13
   8 -12   4   26.43    1.69
  -8  12  -4   28.53    1.78
  -8  12  -3   25.90    3.56
   8 -12   3   23.91    1.59
  -8  12  -3   25.76    1.67
   8 -12   2    0.65    1.47
  -8  12  -2    4.29    1.54
   8 -12   2    0.34    0.67
  -8  12  -2    1.13    0.69
   8 -12   1   85.57   10.55
  -8  12  -1   86.42   10.69
   8 -12   1  101.10    5.62
  -8  12  -1   95.23    5.28
   8 -12   0  106.20   13.02
  -8  12   0  113.00   13.85
   8 -12   0   79.27    4.47
  -8  12   0   81.53    4.62
   8 -12  -1   99.94   12.27
  -8  12   1  107.40   13.15
   8 -12  -1   92.92    5.22
  -8  12   1   96.17    5.39
   8 -12  -2   11.33    2.09
  -8  12   2   13.77    2.39
   8 -12  -2   14.49    1.19
  -8  12   2   11.10    0.99
   8 -12  -3   12.17    2.26
  -8  12   3   13.03    2.27
   8 -12  -3   10.75    1.07
  -8  12   3   11.51    1.05
   8 -12  -4    3.64    1.48
  -8  12   4    3.79    1.67
   8 -12  -4    1.55    0.77
  -8  12   4   -0.11    0.67
   8 -12  -5   60.96    7.66
  -8  12   5   63.32    8.03
   8 -12  -5   58.19    3.41
  -8  12   5   62.80    3.62
   8 -12  -6   92.60   11.43
  -8  12   6   81.04   10.08
   8 -12  -6   75.28    4.28
  -8  12   6   67.16    3.90
   8 -12  -7   14.13    2.55
   8 -12  -7   19.59    1.49
   8 -12  -8   19.25    3.00
   8 -12  -8   14.69    1.19
  -8  12   8   14.21    1.22
   8 -12  -9   11.23    2.32
   8 -12  -9   12.22    1.11
  -8  12   9   11.28    1.06
   8 -12 -10    9.13    2.15
   8 -12 -10   13.00    1.16
  -8  12  10   10.93    1.06
   8 -12 -11   20.39    3.04
   8 -12 -11   21.44    1.53
  -8  12  11   23.01    1.57
   8 -12 -12    1.14    1.77
   8 -12 -12    0.52    0.74
  -8  12  12    1.21    0.71
   8 -12 -13    0.33    1.74
   8 -12 -13    5.60    0.88
  -8  12  13    5.45    0.79
   8 -12 -14   12.16    2.37
   8 -12 -14   12.18    1.04
  -8  12  14   11.90    0.99
   8 -12 -15    1.80    1.70
   8 -12 -15    3.73    0.75
  -8  12  15    4.39    0.78
   8 -12 -16    7.12    1.90
   8 -12 -16    4.81    0.81
   8 -12 -17    8.64    2.10
   8 -12 -17    9.29    0.90
   8 -12 -18    1.88    1.81
   8 -12 -18    0.50    0.69
   8 -12 -19    2.48    1.78
   8 -12 -19    2.23    0.73
   8 -12 -19    2.45    0.69
  -9  11 -12    0.98    1.16
  -9  11 -11   11.92    1.99
  -9  11 -10    0.87    1.25
  -9  11  -9    2.47    1.31
   9 -11   9    4.78    0.73
  -9  11  -8    1.49    1.40
   9 -11   8    0.08    0.74
  -9  11  -8    0.00    0.61
  -9  11  -7   19.58    2.80
   9 -11   7   15.11    1.16
  -9  11  -7   14.99    1.12
  -9  11  -6   10.96    2.04
   9 -11   6    9.00    0.90
  -9  11  -6    9.13    0.88
  -9  11  -5   38.25    4.88
   9 -11   5   42.94    2.53
  -9  11  -5   44.18    2.56
  -9  11  -4    5.09    1.66
   9 -11   4    1.99    0.63
  -9  11  -4    1.62    0.69
   9 -11   3   38.57    5.03
  -9  11  -3   34.96    4.58
   9 -11   3   42.39    2.52
  -9  11  -3   39.85    2.36
   9 -11   2   14.62    2.35
  -9  11  -2   12.81    2.24
   9 -11   2    7.93    0.86
  -9  11  -2    8.45    0.88
   9 -11   1   73.41    9.16
  -9  11  -1   69.44    8.68
   9 -11   1   49.25    2.90
  -9  11  -1   49.01    2.84
   9 -11   0    1.77    1.64
  -9  11   0    1.11    1.59
   9 -11   0    2.43    0.71
  -9  11   0    2.91    0.71
   9 -11  -1  410.60   49.60
  -9  11   1  373.90   45.16
   9 -11  -1  427.60   23.06
  -9  11   1  438.10   23.63
   9 -11  -2    7.61    1.86
  -9  11   2    6.23    1.87
   9 -11  -2   10.56    1.04
  -9  11   2   10.57    1.07
   9 -11  -3    0.97    1.55
  -9  11   3   -1.80    1.71
   9 -11  -3    1.46    0.67
  -9  11   3    2.97    0.69
   9 -11  -4   11.24    2.19
  -9  11   4    8.81    1.86
   9 -11  -4    6.30    0.87
  -9  11   4    6.81    0.89
   9 -11  -5    2.30    1.68
  -9  11   5    0.59    1.43
   9 -11  -5    1.34    0.80
  -9  11   5    2.77    0.70
   9 -11  -6   -1.91    1.65
  -9  11   6    2.38    1.64
   9 -11  -6    0.18    0.67
  -9  11   6    0.14    0.65
   9 -11  -7  112.80   13.88
  -9  11   7  107.90   13.24
   9 -11  -7   99.12    5.55
  -9  11   7   96.53    5.43
   9 -11  -8    2.55    1.86
  -9  11   8    0.78    1.51
   9 -11  -8    1.51    0.74
  -9  11   8    1.03    0.69
   9 -11  -9   71.52    8.95
   9 -11  -9   65.08    3.75
  -9  11   9   64.04    3.71
   9 -11 -10    2.54    1.62
   9 -11 -10    0.25    0.69
  -9  11  10    1.13    0.67
   9 -11 -11    2.81    1.83
   9 -11 -11    7.55    0.90
  -9  11  11    6.93    0.89
   9 -11 -12    1.80    1.91
   9 -11 -12   -0.04    0.69
  -9  11  12    0.74    0.65
   9 -11 -13   29.47    4.12
   9 -11 -13   24.50    1.63
  -9  11  13   27.59    1.82
   9 -11 -14    2.16    1.87
   9 -11 -14   -0.50    0.62
  -9  11  14    0.06    0.60
   9 -11 -15   24.29    3.53
   9 -11 -15   22.28    1.50
   9 -11 -16    0.02    1.58
   9 -11 -16    1.53    0.70
   9 -11 -17    6.10    1.89
   9 -11 -17    8.68    0.91
   9 -11 -18    1.87    1.80
   9 -11 -18    0.51    0.61
   9 -11 -18    1.41    0.73
   9 -11 -19    0.41    1.82
   9 -11 -19    0.56    0.64
   9 -11 -19    0.77    0.63
   9 -11 -20    0.41    0.82
   9 -11 -20    0.04    0.71
 -10  10 -11    9.49    1.81
 -10  10 -10    3.87    1.44
 -10  10  -9   18.37    2.71
 -10  10  -8   -0.76    1.41
 -10  10  -7   69.63    8.60
  10 -10   7   70.76    3.94
 -10  10  -6   10.60    1.85
  10 -10   6   10.90    0.90
 -10  10  -6   11.31    0.92
 -10  10  -5    4.67    1.46
  10 -10   5    5.99    0.80
 -10  10  -5    4.78    0.70
 -10  10  -4    3.56    1.43
  10 -10   4    6.58    0.79
 -10  10  -4    5.65    0.73
  10 -10   3  129.20   15.81
 -10  10  -3  116.20   14.23
  10 -10   3  104.80    5.80
 -10  10  -3  102.90    5.68
  10 -10   2   15.51    2.51
 -10  10  -2   17.40    2.68
  10 -10   2   18.01    1.33
 -10  10  -2   18.44    1.27
  10 -10   1  257.00   31.15
 -10  10  -1  233.20   28.27
  10 -10   1  231.90   12.58
 -10  10  -1  237.80   12.92
  10 -10   0   23.14    3.34
 -10  10   0   24.55    3.46
  10 -10   0   21.03    1.46
 -10  10   0   19.62    1.33
  10 -10  -1   50.40    6.52
 -10  10   1   47.58    6.09
  10 -10  -1   50.45    2.96
 -10  10   1   53.16    3.08
  10 -10  -2  165.00   20.12
 -10  10   2  149.60   18.24
  10 -10  -2  175.00    9.57
 -10  10   2  170.50    9.34
  10 -10  -3   18.83    2.92
 -10  10   3   19.89    3.10
  10 -10  -3   14.26    1.21
 -10  10   3   12.06    1.04
  10 -10  -4   35.66    4.79
 -10  10   4   37.61    4.96
  10 -10  -4   27.78    1.78
 -10  10   4   25.89    1.69
  10 -10  -5   59.86    7.60
 -10  10   5   54.57    6.87
  10 -10  -5   50.91    2.98
 -10  10   5   53.20    3.14
  10 -10  -6    3.15    1.81
 -10  10   6    3.89    1.61
  10 -10  -6    3.31    0.77
 -10  10   6    3.42    0.72
  10 -10  -7    1.67    1.82
 -10  10   7    6.66    1.92
  10 -10  -7    4.94    0.86
 -10  10   7    3.68    0.79
  10 -10  -8   14.63    2.78
 -10  10   8   13.48    2.35
  10 -10  -8   16.41    1.31
 -10  10   8   18.24    1.35
  10 -10  -9    0.59    1.79
 -10  10   9   -0.84    1.64
  10 -10  -9    0.99    0.74
 -10  10   9    0.80    0.68
  10 -10 -10   34.33    4.66
  10 -10 -10   36.00    2.25
 -10  10  10   37.48    2.34
  10 -10 -11   80.68   10.04
  10 -10 -11   71.17    4.08
 -10  10  11   68.83    3.91
  10 -10 -12    0.01    1.70
  10 -10 -12    1.17    0.76
 -10  10  12    0.62    0.65
  10 -10 -13   16.80    2.76
  10 -10 -13   24.81    1.66
 -10  10  13   25.94    1.70
  10 -10 -14   17.65    2.93
  10 -10 -14   22.68    1.55
  10 -10 -15    6.78    2.05
  10 -10 -15    2.65    0.74
  10 -10 -16    0.33    1.59
  10 -10 -16    3.32    0.80
  10 -10 -17    6.18    1.89
  10 -10 -17    5.14    0.82
  10 -10 -17    4.28    0.65
  10 -10 -18   -2.19    1.77
  10 -10 -18    2.89    0.70
  10 -10 -18    3.65    0.71
  10 -10 -19   15.02    2.61
  10 -10 -19   13.20    1.09
  10 -10 -19   13.70    1.10
  10 -10 -20   -2.07    1.73
  10 -10 -20    0.59    0.75
  10 -10 -20    0.35    0.65
 -11   9 -11    1.28    1.24
 -11   9 -10   18.25    2.63
 -11   9  -9    6.07    1.57
 -11   9  -8   31.96    4.18
 -11   9  -7    2.71    1.50
 -11   9  -6   36.45    4.67
  11  -9   6   44.48    2.54
  11  -9   6   42.76    2.44
 -11   9  -5   13.30    2.24
  11  -9   5   10.61    0.88
 -11   9  -4    0.65    1.39
  11  -9   4    0.37    0.56
  11  -9   3    6.79    1.84
 -11   9  -3    6.60    1.72
  11  -9   3    8.00    0.85
 -11   9  -3    8.87    0.87
  11  -9   2  114.20   14.01
 -11   9  -2  107.50   13.21
  11  -9   2  103.20    5.71
 -11   9  -2   99.31    5.48
  11  -9   1   -1.26    1.60
 -11   9  -1   -0.12    1.60
  11  -9   1    0.64    0.61
 -11   9  -1   -0.47    0.58
  11  -9   0   60.65    7.73
 -11   9   0   57.25    7.24
  11  -9   0   66.26    3.77
 -11   9   0   63.04    3.63
  11  -9  -1    3.24    1.72
 -11   9   1    4.95    1.87
  11  -9  -1    6.57    0.84
 -11   9   1    4.97    0.69
  11  -9  -2    6.05    1.86
 -11   9   2    7.53    1.97
  11  -9  -2   10.63    0.99
 -11   9   2   10.01    0.94
  11  -9  -3    0.85    1.71
 -11   9   3    5.70    1.91
  11  -9  -3    3.24    0.72
 -11   9   3    3.82    0.75
  11  -9  -4  230.20   27.95
 -11   9   4  224.90   27.27
  11  -9  -4  214.80   11.69
 -11   9   4  201.60   10.96
  11  -9  -5    7.19    2.10
 -11   9   5    5.61    1.64
  11  -9  -5    9.15    0.90
 -11   9   5    7.28    0.87
  11  -9  -6   31.89    4.37
 -11   9   6   36.46    4.84
  11  -9  -6   46.80    2.80
 -11   9   6   44.05    2.67
  11  -9  -7    4.99    2.11
 -11   9   7    4.95    1.75
  11  -9  -7    2.22    0.71
 -11   9   7    2.99    0.69
  11  -9  -8    9.31    2.33
 -11   9   8    6.39    1.81
  11  -9  -8    5.43    0.79
 -11   9   8    4.45    0.80
  11  -9  -9   25.80    3.81
 -11   9   9   20.97    3.23
  11  -9  -9   16.16    1.28
 -11   9   9   18.41    1.35
  11  -9 -10    6.75    1.96
  11  -9 -10    5.71    0.80
 -11   9  10    6.77    0.92
  11  -9 -11    0.35    1.90
  11  -9 -11    0.54    0.73
 -11   9  11    0.99    0.68
  11  -9 -12   77.27    9.69
  11  -9 -12   85.03    4.80
  11  -9 -13    1.87    1.98
  11  -9 -13    1.34    0.65
  11  -9 -14   12.81    2.40
  11  -9 -14   17.80    1.32
  11  -9 -15    0.29    1.69
  11  -9 -15    1.78    0.64
  11  -9 -16   11.93    2.43
  11  -9 -16    8.49    0.96
  11  -9 -16   10.42    0.91
  11  -9 -17    0.84    1.55
  11  -9 -17    0.94    0.72
  11  -9 -17    1.46    0.69
  11  -9 -18   20.33    3.12
  11  -9 -18   16.30    1.19
  11  -9 -18   17.12    1.23
  11  -9 -19    3.08    1.65
  11  -9 -19    1.33    0.68
  11  -9 -19    0.86    0.58
  11  -9 -20    5.49    2.09
  11  -9 -20    8.98    0.95
  11  -9 -20    7.27    0.86
 -12   8 -10    3.64    1.38
 -12   8  -9    7.84    1.93
 -12   8  -8   -1.55    1.27
 -12   8  -7    5.10    1.47
 -12   8  -6   53.83    6.79
 -12   8  -5   -0.28    1.41
  12  -8   5    0.57    0.51
  12  -8   5    0.87    0.51
  12  -8   4   55.24    7.11
 -12   8  -4   46.74    5.97
  12  -8   3   51.86    6.67
 -12   8  -3   44.81    5.75
  12  -8   3   46.12    2.67
  12  -8   3   41.74    2.43
  12  -8   2   12.42    2.35
 -12   8  -2   12.80    2.23
  12  -8   2   11.16    0.94
  12  -8   1   98.49   12.23
 -12   8  -1   88.60   10.95
  12  -8   1   95.73    5.32
  12  -8   0   46.42    6.12
 -12   8   0   43.81    5.65
  12  -8   0   37.80    2.28
  12  -8  -1   22.80    3.56
 -12   8   1   18.91    3.07
  12  -8  -1   24.46    1.64
  12  -8  -2   77.10    9.68
 -12   8   2   71.48    8.97
  12  -8  -2   62.29    3.56
 -12   8   2   68.90    3.88
  12  -8  -3    1.93    1.97
 -12   8   3    1.50    1.85
  12  -8  -3   -0.60    0.66
 -12   8   3    0.16    0.67
  12  -8  -4  144.80   17.74
 -12   8   4  127.90   15.67
  12  -8  -4  119.50    6.60
 -12   8   4  119.00    6.60
  12  -8  -5  170.50   20.78
 -12   8   5  180.70   22.01
  12  -8  -5  181.70    9.94
 -12   8   5  178.40    9.73
  12  -8  -6   75.46    9.49
 -12   8   6   76.95    9.65
  12  -8  -6   57.58    3.34
 -12   8   6   57.90    3.37
  12  -8  -7    2.18    1.87
 -12   8   7    1.98    1.73
  12  -8  -7    0.90    0.74
 -12   8   7   -0.06    0.63
  12  -8  -8   42.63    5.79
 -12   8   8   43.90    5.82
  12  -8  -8   39.39    2.42
  12  -8  -9    9.59    2.50
 -12   8   9    8.07    2.19
  12  -8  -9    8.71    0.98
  12  -8 -10  109.60   13.55
 -12   8  10  107.40   13.24
  12  -8 -10  110.40    6.14
  12  -8 -11    1.03    1.99
  12  -8 -11    0.17    0.66
  12  -8 -12    3.99    2.09
  12  -8 -12    0.64    0.67
  12  -8 -13    4.04    2.18
  12  -8 -13    5.73    0.88
  12  -8 -14   14.84    2.83
  12  -8 -14   13.29    1.15
  12  -8 -14   13.40    1.07
  12  -8 -15    4.86    1.86
  12  -8 -15    4.88    0.82
  12  -8 -15    5.45    0.72
  12  -8 -16   28.13    3.92
  12  -8 -16   28.91    1.88
  12  -8 -16   28.49    1.85
  12  -8 -17    4.42    1.91
  12  -8 -17    3.34    0.77
  12  -8 -17    4.29    0.71
  12  -8 -18    1.92    1.82
  12  -8 -18    2.32    0.70
  12  -8 -18    2.10    0.69
  12  -8 -19    0.76    1.85
  12  -8 -19   -0.18    0.66
  12  -8 -19    1.03    0.65
  12  -8 -20    5.65    1.80
  12  -8 -20    4.37    0.80
  12  -8 -20    3.64    0.70
  12  -8 -21   -0.58    2.05
  12  -8 -21   -0.86    0.79
  12  -8 -21    0.64    0.67
 -13   7 -10    2.30    1.56
 -13   7  -9   -0.66    1.30
 -13   7  -8    4.00    1.74
 -13   7  -7   16.57    2.69
 -13   7  -6    1.94    1.63
 -13   7  -5  100.10   12.29
  13  -7   4   10.53    2.19
 -13   7  -4   10.76    2.13
  13  -7   4   10.86    0.88
  13  -7   4    9.40    0.80
  13  -7   3  141.40   17.28
 -13   7  -3  126.50   15.47
  13  -7   3  129.80    7.08
  13  -7   3  126.50    6.90
  13  -7   2   -0.16    1.51
 -13   7  -2    2.53    1.55
  13  -7   2    1.15    0.61
  13  -7   2    1.54    0.62
  13  -7   1   10.08    2.43
 -13   7  -1    4.89    1.90
  13  -7   0   17.09    2.93
 -13   7   0   15.54    2.73
  13  -7   0   15.47    1.16
  13  -7   0   13.72    1.09
  13  -7  -1   92.91   11.53
 -13   7   1   90.12   11.16
  13  -7  -2   -1.94    1.92
 -13   7   2    2.03    1.80
  13  -7  -2    1.84    0.73
  13  -7  -3  143.50   17.61
 -13   7   3  129.20   15.84
  13  -7  -3  130.20    7.17
  13  -7  -4    9.38    2.36
 -13   7   4    8.73    2.22
  13  -7  -4    7.39    0.86
  13  -7  -5   74.07    9.36
 -13   7   5   77.22    9.70
  13  -7  -5   95.70    5.35
  13  -7  -6    2.05    2.21
 -13   7   6    2.23    1.87
  13  -7  -6    0.96    0.71
  13  -7  -7   75.70    9.57
 -13   7   7   71.44    9.02
  13  -7  -7   72.36    4.13
  13  -7  -8   11.89    2.73
 -13   7   8   14.71    2.63
  13  -7  -8   14.98    1.23
  13  -7  -9   56.50    7.33
 -13   7   9   47.25    6.18
  13  -7  -9   56.20    3.27
  13  -7 -10   13.00    2.83
 -13   7  10   13.45    2.64
  13  -7 -10    7.53    0.96
  13  -7 -11   32.60    4.56
  13  -7 -11   41.55    2.58
  13  -7 -11   41.66    2.54
  13  -7 -12   17.38    3.11
  13  -7 -12   21.62    1.55
  13  -7 -12   22.95    1.57
  13  -7 -13   21.56    3.52
  13  -7 -13   14.81    1.24
  13  -7 -13   15.91    1.20
  13  -7 -14    1.13    2.28
  13  -7 -14    1.73    0.82
  13  -7 -14    1.98    0.73
  13  -7 -15    5.42    1.95
  13  -7 -15    6.74    0.88
  13  -7 -15    8.46    0.81
  13  -7 -16    0.34    2.04
  13  -7 -16    0.11    0.72
  13  -7 -16    0.74    0.69
  13  -7 -17   12.97    2.55
  13  -7 -17   14.84    1.21
  13  -7 -17   15.12    1.21
  13  -7 -18    4.50    1.95
  13  -7 -18    1.98    0.68
  13  -7 -18    3.77    0.70
  13  -7 -19    1.21    1.88
  13  -7 -19    1.01    0.70
  13  -7 -19    0.64    0.65
  13  -7 -20   -1.36    1.87
  13  -7 -20    0.23    0.70
  13  -7 -20    1.11    0.67
  13  -7 -21   15.51    2.65
  13  -7 -21   12.47    1.17
  13  -7 -21   12.82    0.98
 -14   6  -9    4.84    1.57
 -14   6  -8   -1.89    1.64
 -14   6  -7   44.67    5.85
 -14   6  -6    0.56    1.92
 -14   6  -5    7.57    2.05
 -14   6  -4    2.66    1.89
  14  -6   4    2.00    0.49
  14  -6   4    2.64    0.51
  14  -6   3    7.74    2.04
 -14   6  -3    3.15    1.80
  14  -6   3    2.83    0.62
  14  -6   3    2.58    0.65
  14  -6   2   52.16    6.75
 -14   6  -2   49.61    6.38
  14  -6   2   57.10    3.24
  14  -6   2   56.46    3.20
  14  -6   1   41.48    5.55
 -14   6  -1   39.30    5.14
  14  -6   1   37.23    2.22
  14  -6   1   33.59    2.04
  14  -6   0    5.25    2.02
 -14   6   0    6.82    2.06
  14  -6   0    4.46    0.72
  14  -6   0    5.05    0.77
  14  -6  -1   29.66    4.41
 -14   6   1   24.68    3.68
  14  -6  -1   28.87    1.83
  14  -6  -1   28.35    1.79
  14  -6  -2   33.09    4.69
 -14   6   2   31.99    4.39
  14  -6  -2   33.66    2.06
  14  -6  -2   31.87    1.96
  14  -6  -3    4.09    1.94
 -14   6   3    3.42    2.09
  14  -6  -3    3.43    0.73
  14  -6  -3    2.31    0.67
  14  -6  -4   21.30    3.49
 -14   6   4   18.80    3.18
  14  -6  -4   22.50    1.55
  14  -6  -4   21.77    1.48
  14  -6  -5   21.34    3.41
 -14   6   5   23.48    3.60
  14  -6  -5   23.16    1.59
  14  -6  -5   22.57    1.53
  14  -6  -6   14.01    2.81
 -14   6   6   17.38    2.87
  14  -6  -6   19.65    1.44
  14  -6  -6   21.33    1.46
  14  -6  -7   54.49    7.14
 -14   6   7   54.55    7.04
  14  -6  -7   59.76    3.47
  14  -6  -7   58.89    3.39
  14  -6  -8    3.30    2.30
 -14   6   8    5.43    2.15
  14  -6  -8    5.96    0.88
  14  -6  -8    7.90    0.87
  14  -6  -9   -1.52    2.47
 -14   6   9    0.74    1.87
  14  -6  -9    1.05    0.65
  14  -6  -9    0.29    0.65
  14  -6 -10   22.87    3.74
 -14   6  10   19.37    3.13
  14  -6 -10   24.38    1.67
  14  -6 -10   24.58    1.65
  14  -6 -11  164.60   20.19
 -14   6  11  161.10   19.68
  14  -6 -11  137.00    7.52
  14  -6 -11  132.90    7.33
  14  -6 -12    2.77    2.27
  14  -6 -12    2.58    0.80
  14  -6 -12    2.19    0.68
  14  -6 -13   20.62    3.53
  14  -6 -13   19.28    1.38
  14  -6 -13   19.24    1.36
  14  -6 -14    3.33    2.14
  14  -6 -14    6.04    0.91
  14  -6 -14    6.62    0.80
  14  -6 -15    2.03    2.04
  14  -6 -15    0.18    0.65
  14  -6 -15   -0.42    0.70
  14  -6 -16    1.39    1.96
  14  -6 -16    2.09    0.76
  14  -6 -16    2.10    0.67
  14  -6 -17   12.48    2.45
  14  -6 -17   10.01    0.89
  14  -6 -17    9.40    0.98
  14  -6 -18    3.83    2.32
  14  -6 -18    3.49    0.77
  14  -6 -18    2.35    0.69
  14  -6 -19   21.52    3.38
  14  -6 -19   20.99    1.41
  14  -6 -19   22.19    1.55
  14  -6 -20    1.79    1.94
  14  -6 -20   -0.67    0.63
  14  -6 -20   -0.29    0.71
  14  -6 -21    2.58    1.71
  14  -6 -21    5.67    0.86
  14  -6 -21    5.62    0.76
 -15   5  -8    7.08    1.89
 -15   5  -7    2.41    1.89
 -15   5  -6   14.36    2.69
 -15   5  -5   16.16    2.94
 -15   5  -4    0.35    1.72
  15  -5   3   12.06    2.46
 -15   5  -3    9.12    2.18
  15  -5   3    6.01    0.73
  15  -5   3    5.49    0.69
  15  -5   2   19.19    2.91
 -15   5  -2   19.13    2.97
  15  -5   2   19.17    1.27
  15  -5   2   17.64    1.23
  15  -5   1    0.20    1.64
 -15   5  -1    2.34    1.68
  15  -5   1    1.78    0.67
  15  -5   1    1.88    0.67
  15  -5   0   68.85    8.69
 -15   5   0   61.92    7.86
  15  -5   0   63.89    3.61
  15  -5   0   67.76    3.81
  15  -5  -1   32.69    4.68
 -15   5   1   34.16    4.70
  15  -5  -1   27.19    1.75
  15  -5  -1   26.36    1.70
  15  -5  -2   -1.24    2.23
 -15   5   2    0.22    1.88
  15  -5  -2    0.84    0.69
  15  -5  -2    0.61    0.64
  15  -5  -3    3.47    2.13
 -15   5   3    3.06    1.85
  15  -5  -3    4.29    0.76
  15  -5  -3    2.45    0.72
  15  -5  -4    6.19    2.11
 -15   5   4    7.24    2.16
  15  -5  -4    3.56    0.76
  15  -5  -4    3.70    0.70
  15  -5  -5    6.01    2.31
 -15   5   5    3.28    2.15
  15  -5  -5    0.55    0.71
  15  -5  -5    0.73    0.62
  15  -5  -6   35.18    5.01
 -15   5   6   29.11    4.24
  15  -5  -7   22.07    3.60
 -15   5   7   25.09    3.75
  15  -5  -7   23.11    1.60
  15  -5  -7   25.49    1.71
  15  -5  -8   16.72    3.09
 -15   5   8   17.57    2.94
  15  -5  -8   24.61    1.66
  15  -5  -8   26.04    1.70
  15  -5  -9   39.40    5.59
 -15   5   9   40.88    5.49
  15  -5  -9   38.77    2.36
  15  -5  -9   34.16    2.12
  15  -5 -10   17.45    3.33
 -15   5  10   20.28    3.25
  15  -5 -10   16.89    1.32
  15  -5 -10   16.43    1.26
  15  -5 -11    1.34    2.27
 -15   5  11   -0.94    1.75
  15  -5 -11    0.25    0.81
  15  -5 -11    0.47    0.64
  15  -5 -12  104.70   12.99
  15  -5 -12   97.45    5.46
  15  -5 -12   96.73    5.38
  15  -5 -13    5.37    2.28
  15  -5 -13    3.04    0.81
  15  -5 -13    3.64    0.82
  15  -5 -14   10.19    2.87
  15  -5 -14   12.63    1.17
  15  -5 -14   14.06    1.14
  15  -5 -15    7.50    2.76
  15  -5 -15   10.44    1.00
  15  -5 -15   10.31    0.93
  15  -5 -16    3.55    2.22
  15  -5 -16    1.62    0.68
  15  -5 -16    2.45    0.69
  15  -5 -17    1.64    1.98
  15  -5 -17    3.76    0.72
  15  -5 -17    3.68    0.74
  15  -5 -18    6.57    2.05
  15  -5 -18    6.93    0.80
  15  -5 -18    6.55    0.73
  15  -5 -19    2.60    2.01
  15  -5 -19    0.18    0.82
  15  -5 -19    0.98    0.65
  15  -5 -20    4.93    1.98
  15  -5 -20    8.84    0.96
  15  -5 -20    8.29    0.90
  15  -5 -21    1.96    1.98
  15  -5 -21    1.01    0.75
  15  -5 -21   -0.69    0.54
 -16   4  -7    1.94    1.69
 -16   4  -6   24.71    3.63
 -16   4  -5    2.02    1.99
 -16   4  -4   24.79    3.66
  16  -4   3    3.45    2.22
 -16   4  -3    1.05    1.97
  16  -4   3    2.23    0.57
  16  -4   3    3.27    0.58
  16  -4   2   21.43    3.30
 -16   4  -2   24.84    3.75
  16  -4   1   -0.73    1.85
 -16   4  -1   -0.36    1.76
  16  -4   1    0.55    0.63
  16  -4   1    0.68    0.62
  16  -4   0   -0.31    1.97
 -16   4   0    0.92    1.72
  16  -4   0    1.57    0.64
  16  -4   0    0.53    0.75
  16  -4  -1   19.57    3.30
 -16   4   1   13.60    2.70
  16  -4  -1   13.39    1.06
  16  -4  -1   11.27    0.99
  16  -4  -2   89.74   11.36
 -16   4   2   80.76   10.13
  16  -4  -2   79.71    4.47
  16  -4  -2   71.00    4.00
  16  -4  -3   -0.32    2.35
 -16   4   3    2.77    1.92
  16  -4  -3    0.34    0.72
  16  -4  -3    0.29    0.66
  16  -4  -4    8.40    2.84
 -16   4   4   12.68    2.51
  16  -4  -4   13.08    1.08
  16  -4  -4   14.01    1.14
  16  -4  -5    3.96    2.41
 -16   4   5    1.63    2.18
  16  -4  -5    3.41    0.78
  16  -4  -5    3.29    0.71
  16  -4  -6    5.11    2.34
 -16   4   6    1.00    2.19
  16  -4  -6    0.11    0.76
  16  -4  -6   -0.15    0.68
  16  -4  -7    1.11    2.03
 -16   4   7   -0.97    2.05
  16  -4  -7    2.08    0.81
  16  -4  -7    2.35    0.73
  16  -4  -8   40.27    5.50
 -16   4   8   44.78    6.08
  16  -4  -8   40.22    2.47
  16  -4  -8   42.90    2.55
  16  -4  -9   -1.92    2.30
 -16   4   9   -0.80    2.06
  16  -4  -9    0.05    0.79
  16  -4  -9    0.09    0.63
  16  -4 -10   44.82    6.15
 -16   4  10   42.72    5.78
  16  -4 -10   49.73    2.96
  16  -4 -10   48.29    2.85
  16  -4 -11    3.85    2.60
 -16   4  11    5.76    2.09
  16  -4 -11    6.20    0.94
  16  -4 -11    6.40    0.78
  16  -4 -12    1.37    2.25
  16  -4 -12    3.52    0.87
  16  -4 -12    4.07    0.82
  16  -4 -13    8.51    2.76
  16  -4 -13    8.26    0.99
  16  -4 -13    7.92    0.82
  16  -4 -14   19.78    3.44
  16  -4 -14   16.10    1.22
  16  -4 -14   14.68    1.21
  16  -4 -15    2.55    2.36
  16  -4 -15    0.79    0.76
  16  -4 -15    1.38    0.67
  16  -4 -16   31.47    4.68
  16  -4 -16   35.12    2.21
  16  -4 -16   32.81    1.99
  16  -4 -17    4.71    2.34
  16  -4 -17    3.65    0.84
  16  -4 -17    4.12    0.65
  16  -4 -18   -0.28    2.03
  16  -4 -18    2.60    0.75
  16  -4 -18    2.12    0.61
  16  -4 -19    0.89    2.29
  16  -4 -19    0.71    0.68
  16  -4 -19    0.74    0.66
  16  -4 -20    3.23    2.10
  16  -4 -20    2.34    0.79
  16  -4 -20    2.53    0.73
  16  -4 -21    3.42    2.31
  16  -4 -21    1.11    0.68
  16  -4 -21    0.67    0.57
 -17   3  -6    0.23    1.52
 -17   3  -5   14.11    2.46
 -17   3  -4   -0.58    1.64
  17  -3   3    8.45    2.29
 -17   3  -3   10.02    2.53
  17  -3   2    5.34    2.09
 -17   3  -2    8.17    2.25
  17  -3   2    5.89    0.75
  17  -3   2    6.09    0.82
  17  -3   1    0.54    1.81
 -17   3  -1    0.66    1.95
  17  -3   1    0.75    0.71
  17  -3   1    0.22    0.65
  17  -3   0   12.56    2.70
 -17   3   0   17.75    3.03
  17  -3  -1    3.14    2.21
 -17   3   1    1.18    2.02
  17  -3  -2    2.07    2.38
 -17   3   2    2.08    1.88
  17  -3  -2    1.43    0.75
  17  -3  -2    0.86    0.73
  17  -3  -3   13.77    2.96
 -17   3   3   20.49    3.31
  17  -3  -4   -1.42    2.39
 -17   3   4    1.71    1.94
  17  -3  -4    0.66    0.69
  17  -3  -4    0.24    0.65
  17  -3  -5    3.18    2.36
 -17   3   5   -0.09    1.96
  17  -3  -5    0.76    0.74
  17  -3  -5    0.71    0.68
  17  -3  -6   40.42    5.72
 -17   3   6   45.37    6.03
  17  -3  -6   44.25    2.66
  17  -3  -6   44.60    2.65
  17  -3  -7   16.86    3.29
 -17   3   7   12.85    2.74
  17  -3  -7   12.19    1.13
  17  -3  -7   14.33    1.12
  17  -3  -8    3.03    2.42
 -17   3   8    5.31    2.47
  17  -3  -8    6.47    0.92
  17  -3  -8    6.35    0.77
  17  -3  -9   29.58    4.62
 -17   3   9   33.50    4.94
  17  -3  -9   29.36    1.92
  17  -3  -9   30.46    1.92
  17  -3 -10   -1.98    2.35
 -17   3  10   -1.90    2.26
  17  -3 -10   -0.20    0.76
  17  -3 -10    0.18    0.58
  17  -3 -11    4.57    2.57
 -17   3  11    6.45    2.29
  17  -3 -11    9.47    0.97
  17  -3 -11    9.59    0.94
  17  -3 -12    0.47    2.38
 -17   3  12    1.51    2.00
  17  -3 -12    0.91    0.76
  17  -3 -12    0.56    0.58
  17  -3 -13   -0.70    2.32
  17  -3 -13    0.22    0.73
  17  -3 -13    0.73    0.66
  17  -3 -14    1.65    2.27
  17  -3 -14    3.71    0.75
  17  -3 -14    3.33    0.66
  17  -3 -15   13.12    3.11
  17  -3 -15   15.86    1.29
  17  -3 -15   16.64    1.22
  17  -3 -16   -0.30    2.28
  17  -3 -16    3.34    0.85
  17  -3 -16    3.67    0.75
  17  -3 -17   19.19    3.56
  17  -3 -17   19.48    1.44
  17  -3 -17   19.95    1.39
  17  -3 -18    3.48    2.09
  17  -3 -18    0.91    0.78
  17  -3 -18    2.29    0.64
  17  -3 -19   -0.97    2.35
  17  -3 -19    0.53    0.75
  17  -3 -19    0.18    0.57
  17  -3 -20    0.93    1.83
  17  -3 -20    0.54    0.73
  17  -3 -20    1.32    0.66
  17  -3 -21    0.92    1.95
  17  -3 -21    1.88    0.75
  17  -3 -21    0.78    0.59
 -18   2  -5    2.02    1.66
 -18   2  -4    0.43    1.69
 -18   2  -3    5.06    1.99
  18  -2   2    0.22    2.20
 -18   2  -2   -0.06    1.96
  18  -2   2    1.15    0.61
  18  -2   2    0.45    0.70
  18  -2   1   36.21    4.93
 -18   2  -1   42.36    5.63
  18  -2   1   34.92    2.13
  18  -2   1   33.94    2.07
  18  -2   0    8.35    2.40
 -18   2   0    7.25    2.17
  18  -2   0    5.37    0.82
  18  -2   0    7.64    0.91
  18  -2  -1    8.25    2.62
 -18   2   1    5.24    2.03
  18  -2  -1    6.95    0.96
  18  -2  -1    7.43    0.90
  18  -2  -2    2.03    2.41
 -18   2   2    0.55    2.16
  18  -2  -2    0.15    0.72
  18  -2  -2    0.18    0.71
  18  -2  -3    2.46    2.60
 -18   2   3    4.40    2.31
  18  -2  -3    3.24    0.79
  18  -2  -3    2.44    0.74
  18  -2  -4    4.78    2.52
 -18   2   4   -1.92    2.20
  18  -2  -4    0.35    0.73
  18  -2  -4    0.55    0.77
  18  -2  -5   68.14    8.84
 -18   2   5   71.23    9.11
  18  -2  -5   57.82    3.35
  18  -2  -5   55.56    3.24
  18  -2  -6    0.22    2.25
 -18   2   6    0.21    2.11
  18  -2  -6    1.08    0.72
  18  -2  -6    1.46    0.71
  18  -2  -7   47.18    6.40
 -18   2   7   45.72    6.15
  18  -2  -7   51.35    2.99
  18  -2  -7   52.62    3.08
  18  -2  -8    4.79    2.52
 -18   2   8    0.72    2.33
  18  -2  -8    2.63    0.67
  18  -2  -8    2.14    0.75
  18  -2  -9    1.07    2.60
 -18   2   9    5.53    2.29
  18  -2  -9    3.85    0.75
  18  -2  -9    6.05    0.82
  18  -2 -10    4.92    2.67
 -18   2  10    6.00    2.53
  18  -2 -10    6.62    0.85
  18  -2 -10    6.33    0.89
  18  -2 -11   36.28    5.33
 -18   2  11   37.61    5.33
  18  -2 -11   29.55    1.83
  18  -2 -11   31.21    1.99
  18  -2 -12    0.88    2.55
 -18   2  12   -0.14    2.00
  18  -2 -12   -0.15    0.72
  18  -2 -12   -0.15    0.61
  18  -2 -13   17.50    3.25
  18  -2 -13   16.37    1.25
  18  -2 -13   17.91    1.23
  18  -2 -14    1.62    2.33
  18  -2 -14    1.85    0.81
  18  -2 -14    2.99    0.73
  18  -2 -15    1.65    2.12
  18  -2 -15    4.40    0.80
  18  -2 -15    4.77    0.72
  18  -2 -16    0.72    2.44
  18  -2 -16    0.32    0.67
  18  -2 -16    0.53    0.58
  18  -2 -17    5.29    2.48
  18  -2 -17    0.67    0.76
  18  -2 -17    0.45    0.62
  18  -2 -18    1.59    2.41
  18  -2 -18    0.44    0.69
  18  -2 -18    0.43    0.64
  18  -2 -19    5.87    2.45
  18  -2 -19    6.21    0.86
  18  -2 -19    5.43    0.80
  18  -2 -20   -2.00    1.88
  18  -2 -20   -0.66    0.81
  18  -2 -20    0.28    0.71
 -19   1  -3    6.67    1.93
  19  -1   2    9.38    2.59
 -19   1  -2    8.91    2.20
  19  -1   2    7.31    0.80
  19  -1   2    6.60    0.85
  19  -1   1    1.31    2.24
 -19   1  -1    0.26    1.98
  19  -1   1    3.28    0.78
  19  -1   1    2.11    0.83
  19  -1   0   18.31    3.06
 -19   1   0   21.10    3.39
  19  -1   0   20.93    1.53
  19  -1   0   21.50    1.54
  19  -1  -1    6.81    2.33
 -19   1   1    9.25    2.33
  19  -1  -1    7.53    0.98
  19  -1  -1    6.47    0.95
  19  -1  -2   -1.10    2.43
 -19   1   2    5.09    2.25
  19  -1  -2    2.63    0.76
  19  -1  -2    2.80    0.79
  19  -1  -3    1.63    2.60
 -19   1   3    1.97    1.96
  19  -1  -3    4.09    0.86
  19  -1  -3    5.07    0.84
  19  -1  -4    2.85    2.64
 -19   1   4    5.11    2.34
  19  -1  -5   16.36    3.45
 -19   1   5   10.62    2.56
  19  -1  -5   13.11    1.15
  19  -1  -5   14.17    1.14
  19  -1  -6   30.44    4.87
 -19   1   6   34.74    4.91
  19  -1  -6   34.21    2.12
  19  -1  -6   36.63    2.28
  19  -1  -7    8.31    2.85
 -19   1   7    9.58    2.74
  19  -1  -7    5.53    0.87
  19  -1  -7    5.16    0.95
  19  -1  -8    7.11    2.70
 -19   1   8   11.51    2.74
  19  -1  -9   11.85    3.25
 -19   1   9   13.23    3.10
  19  -1  -9   15.66    1.25
  19  -1  -9   15.08    1.23
  19  -1 -10    1.94    2.31
 -19   1  10   -0.79    2.23
  19  -1 -10    0.65    0.76
  19  -1 -10    0.65    0.69
  19  -1 -11    0.13    2.55
 -19   1  11    2.66    2.26
  19  -1 -11    5.78    0.76
  19  -1 -11    4.73    0.89
  19  -1 -12   38.59    5.62
 -19   1  12   29.64    4.38
  19  -1 -12   33.21    2.12
  19  -1 -12   35.08    2.11
  19  -1 -13   -1.54    2.72
  19  -1 -13    0.49    0.76
  19  -1 -13   -0.18    0.64
  19  -1 -14    3.32    2.44
  19  -1 -14    4.66    0.80
  19  -1 -14    4.84    0.74
  19  -1 -15    2.38    2.50
  19  -1 -15    2.24    0.76
  19  -1 -15    2.14    0.60
  19  -1 -16    0.28    2.29
  19  -1 -16    1.37    0.79
  19  -1 -16    2.06    0.71
  19  -1 -17    6.38    2.56
  19  -1 -17   10.27    1.04
  19  -1 -17   10.64    0.94
  19  -1 -18    0.11    2.31
  19  -1 -18    2.28    0.84
  19  -1 -18    0.97    0.69
  19  -1 -19   -1.48    2.08
  19  -1 -19    1.10    0.76
  19  -1 -19    1.65    0.75
  19  -1 -20    3.97    2.36
  19  -1 -20    2.72    0.76
  19  -1 -20    3.23    0.75
 -20   0  -2    8.03    2.23
  20   0   1   -0.04    1.83
 -20   0  -1   -0.43    1.94
  20   0   1    0.31    0.84
  20   0   1   -0.72    0.75
  20   0   0   -1.48    1.86
 -20   0   0    0.37    1.87
  20   0   0   -0.57    0.83
  20   0   0    0.77    0.92
  20   0  -1    2.19    2.25
 -20   0   1    0.96    1.98
  20   0  -1    0.52    0.88
  20   0  -1   -0.37    0.90
  20   0  -2   26.28    4.21
 -20   0   2   24.96    3.85
  20   0  -3   -4.29    2.70
 -20   0   3   -0.80    2.08
  20   0  -3    0.02    0.80
  20   0  -3   -0.59    0.75
  20   0  -4    0.74    2.73
 -20   0   4    1.01    2.23
  20   0  -4    3.39    0.92
  20   0  -4    3.04    0.81
  20   0  -5   -3.08    2.30
 -20   0   5   -0.68    2.37
  20   0  -5   -0.45    0.72
  20   0  -5   -0.25    0.73
  20   0  -6    5.10    3.00
 -20   0   6    4.05    2.27
  20   0  -6    6.53    0.86
  20   0  -6    8.91    0.97
  20   0  -7   -1.43    2.76
 -20   0   7   -1.48    2.24
  20   0  -7    0.37    0.70
  20   0  -7    0.42    0.64
  20   0  -8   23.94    4.25
 -20   0   8   24.75    3.97
  20   0  -8   20.45    1.45
  20   0  -8   20.01    1.41
  20   0  -9   -1.71    2.53
 -20   0   9    1.58    2.51
  20   0  -9   -0.11    0.66
  20   0  -9    0.13    0.69
  20   0 -10   20.09    4.07
 -20   0  10   19.35    3.64
  20   0 -10   21.69    1.52
  20   0 -10   22.32    1.54
  20   0 -11    1.45    2.94
 -20   0  11    1.42    2.20
  20   0 -11    0.01    0.75
  20   0 -11    0.14    0.58
  20   0 -12    9.15    3.07
 -20   0  12    9.68    2.69
  20   0 -12   16.80    1.30
  20   0 -12   15.31    1.17
  20   0 -13   -1.47    2.81
  20   0 -13    0.84    0.73
  20   0 -13    0.28    0.63
  20   0 -14    3.51    2.74
  20   0 -14    0.98    0.71
  20   0 -14    0.35    0.58
  20   0 -15   -1.29    2.86
  20   0 -15    0.33    0.75
  20   0 -15    1.06    0.60
  20   0 -16    7.19    2.44
  20   0 -16    8.26    0.98
  20   0 -16    7.55    0.88
  20   0 -17   -2.22    2.18
  20   0 -17   -0.55    0.79
  20   0 -17    0.42    0.74
  20   0 -18    1.56    1.72
  20   0 -18    2.96    0.84
  20   0 -18    3.63    0.80
  20   0 -19   -1.52    2.21
  20   0 -19   -0.28    0.87
  20   0 -19   -0.49    0.63
  21   1   0    6.53    2.30
 -21  -1   0    6.81    2.39
  21   1   0    5.91    0.90
  21   1   0    4.23    1.00
  21   1  -1    1.93    1.93
 -21  -1   1   -0.31    1.99
  21   1  -1   -0.06    0.95
  21   1  -1    0.22    0.84
  21   1  -2    5.08    2.06
 -21  -1   2    4.82    2.28
  21   1  -2    3.54    1.00
  21   1  -2    2.42    0.85
  21   1  -3    6.82    2.72
 -21  -1   3    7.08    2.42
  21   1  -3    9.67    1.13
  21   1  -3    8.87    1.05
  21   1  -4   -1.18    2.70
 -21  -1   4   -1.02    2.45
  21   1  -4    0.32    0.81
  21   1  -4    0.46    0.81
  21   1  -5    1.90    2.82
 -21  -1   5   -0.85    2.45
  21   1  -5   -0.54    0.82
  21   1  -5   -0.16    0.77
  21   1  -6   10.23    3.02
 -21  -1   6   14.53    3.15
  21   1  -6   15.12    1.24
  21   1  -6   16.71    1.26
  21   1  -7    2.98    2.98
 -21  -1   7   -0.21    2.46
  21   1  -7    0.28    0.80
  21   1  -7   -0.34    0.72
  21   1  -8    6.94    3.11
 -21  -1   8    6.49    2.78
  21   1  -8   11.30    1.10
  21   1  -8   11.02    1.02
  21   1  -9    3.18    2.91
 -21  -1   9    4.28    2.68
  21   1  -9    5.58    0.87
  21   1  -9    5.90    0.81
  21   1 -10    2.37    2.97
 -21  -1  10   -0.85    2.47
  21   1 -10    2.08    0.81
  21   1 -10    3.48    0.68
  21   1 -11    8.18    3.36
 -21  -1  11    2.04    2.19
  21   1 -11    3.21    0.75
  21   1 -11    3.28    0.69
  21   1 -12   -3.45    2.86
  21   1 -12    1.10    0.71
  21   1 -12   -0.12    0.58
  21   1 -13   -1.87    2.75
  21   1 -13    1.18    0.79
  21   1 -13    2.43    0.71
  21   1 -14    8.45    3.28
  21   1 -14    8.39    0.99
  21   1 -14    8.87    0.89
  21   1 -15    2.39    2.85
  21   1 -15    1.94    0.73
  21   1 -15    0.44    0.66
  21   1 -16    0.42    2.32
  21   1 -16    0.59    0.68
  21   1 -16    1.03    0.67
  21   1 -17    1.33    2.08
  21   1 -17    1.40    0.79
  21   1 -17    2.45    0.75
  21   1 -18    2.21    2.12
  21   1 -18    1.65    0.84
  21   1 -18    0.57    0.67
  22   2  -2   -1.01    2.20
  22   2  -2    0.61    1.03
  22   2  -2    1.32    1.05
  22   2  -3    1.94    1.97
 -22  -2   3    2.66    2.47
  22   2  -3    0.10    1.05
  22   2  -3    3.21    0.99
  22   2  -4    1.11    2.44
 -22  -2   4    1.07    2.36
  22   2  -4    1.84    0.99
  22   2  -4    1.09    0.82
  22   2  -5    0.81    2.80
 -22  -2   5    0.08    2.54
  22   2  -5    0.97    0.86
  22   2  -5    1.48    0.82
  22   2  -6    0.77    2.68
 -22  -2   6   -0.29    2.59
  22   2  -6    1.35    0.77
  22   2  -6    1.54    0.81
  22   2  -7   14.35    3.37
 -22  -2   7   16.27    3.52
  22   2  -7   17.56    1.32
  22   2  -7   17.75    1.38
  22   2  -8    0.70    2.91
 -22  -2   8    3.26    2.81
  22   2  -8    0.69    0.80
  22   2  -8   -0.52    0.67
  22   2  -9    2.91    2.91
 -22  -2   9    2.05    2.49
  22   2  -9    3.15    0.80
  22   2  -9    3.44    0.71
  22   2 -10    3.31    3.07
 -22  -2  10    0.53    2.34
  22   2 -10   -0.76    0.80
  22   2 -10    0.17    0.67
  22   2 -11    1.83    3.08
 -22  -2  11    3.36    2.35
  22   2 -11    0.45    0.69
  22   2 -11    0.56    0.69
  22   2 -12    1.05    3.21
  22   2 -13    2.91    3.05
  22   2 -13    2.29    0.72
  22   2 -13    1.22    0.61
  22   2 -14   -1.34    2.40
  22   2 -14    0.60    0.80
  22   2 -14    0.05    0.72
  22   2 -15    3.41    2.49
  22   2 -15    5.74    0.84
  22   2 -15    7.58    0.91
  22   2 -16   -1.44    2.01
  22   2 -16    0.67    0.73
  22   2 -16    0.15    0.85
  22   2 -17    2.09    2.33
  22   2 -17    0.20    0.75
  22   2 -17    0.91    0.69
  23   3  -6    1.70    2.48
 -23  -3   6    1.76    2.48
  23   3  -6    0.64    0.97
  23   3  -6   -0.68    0.89
  23   3  -7    1.29    2.61
 -23  -3   7    3.45    2.42
  23   3  -7   -0.04    1.00
  23   3  -7    0.43    0.87
  23   3  -8    5.79    2.47
 -23  -3   8    0.78    2.29
  23   3  -8    4.72    0.81
  23   3  -8    5.43    0.95
  23   3  -9   -1.09    2.79
 -23  -3   9    3.95    2.43
  23   3  -9    3.23    0.78
  23   3  -9    2.46    0.86
  23   3 -10   -0.61    2.41
 -23  -3  10   -2.38    2.35
  23   3 -10    0.10    0.75
  23   3 -10   -0.62    0.78
  23   3 -11    5.42    2.34
 -23  -3  11    1.45    2.02
  23   3 -11    4.36    0.91
  23   3 -11    4.89    0.80
  23   3 -12    1.10    2.54
  23   3 -12    0.10    0.79
  23   3 -12   -0.14    0.69
  23   3 -13    1.53    2.49
  23   3 -13    0.15    0.79
  23   3 -13    0.91    0.76
  23   3 -14    1.42    2.06
  23   3 -14   -0.57    0.81
  23   3 -14    0.62    0.69
  -1 -23   3    1.14    0.92
   1  23  -3   -0.61    0.67
  -1 -23   2    2.43    0.77
   1  23  -2    2.95    0.68
  -1 -23   1    2.21    0.81
   1  23  -1    3.85    0.75
  -1 -23   0    2.70    0.74
   1  23   0    1.60    0.69
  -1 -23  -1    4.08    0.81
   1  23   1    5.36    0.83
  -1 -23  -2    0.55    0.79
   1  23   2    1.30    0.74
   0  22  -6   12.45    3.07
   0 -22   6   13.50    1.12
   0  22  -6   13.31    1.09
   0  22  -5   -0.36    1.74
   0 -22   5    0.86    0.82
   0  22  -5   -0.39    0.61
   0 -22   4    0.02    0.76
   0  22  -4    0.11    0.68
   0 -22   3    2.10    0.74
   0  22  -3    1.46    0.68
   0 -22   2    2.78    0.80
   0  22  -2    2.47    0.69
   0 -22   1    0.70    0.72
   0  22  -1    0.27    0.61
   0 -22   0   24.97    1.61
   0  22   0   23.96    1.64
   0 -22  -1   -0.79    0.72
   0  22   1    1.42    0.73
   0 -22  -2    3.57    0.76
   0  22   2    3.17    0.73
   0 -22  -3    1.81    0.74
   0  22   3    1.10    0.78
   0 -22  -4    0.17    0.73
   0  22   4    0.33    0.81
   0 -22  -5    0.53    0.76
   0  22   5   -0.22    0.77
   0 -22  -6   14.35    1.15
   0  22   6   14.08    1.12
  -1  21  -8    0.82    2.14
   1 -21   8    2.40    0.86
  -1  21  -8    3.02    0.82
  -1  21  -7    0.10    1.97
   1 -21   7    1.92    0.74
  -1  21  -7    1.73    0.80
  -1  21  -6    2.41    2.09
   1 -21   6    0.47    0.74
  -1  21  -6    0.12    0.72
  -1  21  -5    4.12    2.41
   1 -21   5    3.56    0.84
  -1  21  -5    3.55    0.69
  -1  21  -4    3.70    2.26
   1 -21   4    4.46    0.77
  -1  21  -4    4.35    0.76
  -1  21  -3    0.26    1.65
   1 -21   3   -0.08    0.73
  -1  21  -3    0.26    0.61
   1 -21   2   11.34    1.08
  -1  21  -2   16.57    1.26
   1 -21   1    1.81    0.72
  -1  21  -1    2.22    0.70
   1 -21   0    0.40    0.72
  -1  21   0    0.17    0.71
   1 -21  -1    7.93    0.96
  -1  21   1    7.41    0.81
   1 -21  -2    7.51    0.86
  -1  21   2    8.25    0.93
   1 -21  -3   -0.58    0.67
  -1  21   3   -0.30    0.66
   1 -21  -4    9.36    0.89
  -1  21   4    9.78    0.91
   1 -21  -5    2.59    0.63
  -1  21   5    2.31    0.77
   1 -21  -6   -0.79    0.72
  -1  21   6   -0.32    0.71
   1 -21  -7    2.86    0.76
  -1  21   7    3.74    0.71
   1 -21  -8    8.21    0.90
  -1  21   8    6.24    0.78
   1 -21  -9    1.20    0.66
  -1  21   9    0.20    0.75
  -2  20  -9   10.44    2.48
   2 -20   9   14.22    1.34
  -2  20  -9   12.47    1.16
  -2  20  -8   -0.10    1.91
   2 -20   8    0.07    0.82
  -2  20  -8    0.31    0.69
  -2  20  -7   -3.35    2.17
   2 -20   7    0.02    0.79
  -2  20  -7   -0.55    0.76
  -2  20  -6    1.46    2.05
   2 -20   6    2.16    0.84
  -2  20  -6    2.55    0.76
  -2  20  -5    2.46    2.09
   2 -20   5    4.13    0.84
  -2  20  -5    4.91    0.76
  -2  20  -4    2.28    2.18
   2 -20   4    1.48    0.73
  -2  20  -4    2.89    0.76
  -2  20  -3   23.03    3.46
   2 -20   3   21.97    1.55
  -2  20  -3   21.79    1.47
  -2  20  -2    1.34    1.71
   2 -20   2    0.48    0.68
  -2  20  -2   -0.10    0.67
  -2  20  -1    0.94    1.54
   2 -20   1    2.58    0.75
  -2  20  -1    2.02    0.70
   2 -20   0    1.34    0.70
  -2  20   0    0.79    0.67
   2 -20  -1    5.97    0.88
  -2  20   1    5.55    0.71
   2 -20  -2    0.81    0.69
  -2  20   2    1.19    0.64
   2 -20  -3   27.15    1.73
  -2  20   3   27.75    1.73
   2 -20  -4    0.87    0.63
  -2  20   4    0.02    0.69
   2 -20  -5   16.93    1.25
  -2  20   5   17.24    1.29
   2 -20  -6   -0.30    0.62
  -2  20   6   -0.46    0.69
   2 -20  -7    2.88    0.82
  -2  20   7    3.30    0.75
   2 -20  -8    1.67    0.63
  -2  20   8    1.28    0.67
   2 -20  -9   16.51    1.20
  -2  20   9   16.04    1.20
   2 -20 -10    0.70    0.60
  -2  20  10    1.01    0.74
   2 -20 -11    0.80    0.70
  -2  20  11    1.68    0.84
  -3  19 -10    1.33    1.87
   3 -19  10    2.83    1.11
  -3  19 -10    0.95    0.85
  -3  19  -9   -0.74    1.62
   3 -19   9    0.54    0.93
  -3  19  -9    0.08    0.81
  -3  19  -8    3.99    1.88
   3 -19   8    5.47    0.87
  -3  19  -8    6.84    0.90
  -3  19  -7   16.47    2.79
   3 -19   7   18.84    1.41
  -3  19  -7   20.47    1.46
  -3  19  -6   -1.08    1.78
   3 -19   6    1.37    0.74
  -3  19  -6    0.02    0.72
  -3  19  -5   17.03    2.79
   3 -19   5   14.37    1.19
  -3  19  -5   20.51    1.45
  -3  19  -4    3.98    1.90
   3 -19   4    3.77    0.83
  -3  19  -4    5.70    0.83
  -3  19  -3    1.95    1.86
   3 -19   3   -0.33    0.70
  -3  19  -3    1.41    0.78
  -3  19  -2   12.44    2.46
   3 -19   2   13.17    1.15
  -3  19  -2   13.43    1.04
  -3  19  -1   14.52    2.48
   3 -19   1   12.35    1.07
  -3  19  -1   12.60    1.11
  -3  19   0    1.46    1.54
   3 -19   0    0.03    0.64
  -3  19   0   -0.10    0.61
  -3  19   1   21.41    3.00
   3 -19  -1   23.82    1.58
  -3  19   1   22.49    1.51
   3 -19  -2    0.31    0.63
  -3  19   2    0.07    0.63
   3 -19  -3   35.36    2.22
  -3  19   3   35.02    2.16
   3 -19  -4   19.38    1.43
  -3  19   4   19.87    1.40
   3 -19  -5   14.64    1.22
  -3  19   5   16.41    1.27
   3 -19  -6   -0.03    0.73
  -3  19   6    1.10    0.71
   3 -19  -7    6.10    0.82
  -3  19   7    6.79    0.84
   3 -19  -8    2.58    1.21
   3 -19  -8    1.34    0.65
  -3  19   8    2.55    0.80
   3 -19  -9   14.60    2.36
   3 -19  -9   13.54    1.09
  -3  19   9   14.49    1.15
   3 -19 -10    6.26    1.92
   3 -19 -10    9.33    0.96
  -3  19  10   10.86    1.02
   3 -19 -11    2.19    1.85
   3 -19 -11    1.90    0.72
  -3  19  11    1.36    0.76
   3 -19 -12   -2.11    2.30
   3 -19 -12   -0.81    0.65
  -3  19  12   -0.33    0.80
  -4  18 -10    1.82    1.47
   4 -18  10    0.09    1.05
  -4  18 -10    0.48    0.84
  -4  18  -9    4.03    1.64
   4 -18   9    2.93    0.98
  -4  18  -9    3.47    0.83
  -4  18  -8    0.88    1.66
   4 -18   8    1.52    0.81
  -4  18  -8    0.63    0.75
  -4  18  -7   -0.44    1.61
   4 -18   7   -0.53    0.76
  -4  18  -7   -0.37    0.71
  -4  18  -6   23.55    3.48
   4 -18   6   25.75    1.73
  -4  18  -6   24.18    1.59
  -4  18  -5    8.72    2.08
   4 -18   5    7.83    0.89
  -4  18  -5    7.48    0.89
  -4  18  -4    4.98    1.69
   4 -18   4   10.89    1.06
  -4  18  -4   10.92    1.06
  -4  18  -3    1.33    1.62
   4 -18   3    0.23    0.76
  -4  18  -3    1.24    0.63
  -4  18  -2    2.07    1.76
   4 -18   2    0.74    0.74
  -4  18  -2    0.69    0.70
  -4  18  -1    6.18    2.06
   4 -18   1    4.25    0.80
  -4  18  -1    3.80    0.69
  -4  18   0   32.50    4.45
   4 -18   0   35.14    2.14
  -4  18   0   36.23    2.23
  -4  18   1    0.08    1.68
   4 -18  -1   -1.55    0.75
  -4  18   1   -0.06    0.64
  -4  18   2    9.26    1.94
   4 -18  -2   12.49    1.12
  -4  18   2   15.16    1.17
   4 -18  -3   17.19    1.25
  -4  18   3   17.06    1.26
   4 -18  -4    6.77    1.54
   4 -18  -4   10.72    1.04
  -4  18   4    8.78    0.90
   4 -18  -5    6.64    1.69
   4 -18  -5    4.26    0.82
  -4  18   5    3.22    0.79
   4 -18  -6   22.73    3.16
   4 -18  -6   23.07    1.58
  -4  18   6   25.00    1.68
   4 -18  -7   -1.03    1.47
   4 -18  -7    1.00    0.71
  -4  18   7   -0.30    0.65
   4 -18  -8   23.35    3.37
   4 -18  -8   27.34    1.73
  -4  18   8   24.96    1.65
   4 -18  -9    3.73    1.75
   4 -18  -9    2.54    0.74
  -4  18   9    2.99    0.67
   4 -18 -10    3.56    1.97
   4 -18 -10    7.07    0.79
  -4  18  10    7.21    0.90
   4 -18 -11    3.58    2.26
   4 -18 -11    2.42    0.67
  -4  18  11    3.75    0.78
   4 -18 -12   14.47    3.25
   4 -18 -12   14.81    1.12
  -4  18  12   15.15    1.25
   4 -18 -13    2.70    2.36
   4 -18 -13    0.69    0.72
  -4  18  13    0.24    0.71
   4 -18 -14    0.65    2.67
   4 -18 -14    1.17    0.73
  -4  18  14    1.75    0.77
  -5  17 -11    1.49    1.52
  -5  17 -11   -0.25    1.05
  -5  17 -10    8.59    1.71
   5 -17  10    8.39    1.17
  -5  17 -10    7.28    1.06
  -5  17  -9    0.19    1.66
   5 -17   9   -1.32    0.95
  -5  17  -9   -0.02    0.84
  -5  17  -8   13.09    2.30
   5 -17   8   11.56    1.20
  -5  17  -8   11.74    1.04
  -5  17  -7    0.46    1.46
   5 -17   7    1.43    0.83
  -5  17  -7    0.47    0.65
  -5  17  -6    0.53    1.57
   5 -17   6   -0.26    0.70
  -5  17  -6    0.16    0.65
  -5  17  -5    1.81    1.63
   5 -17   5    2.65    0.75
  -5  17  -5    1.00    0.71
  -5  17  -4   47.15    6.04
   5 -17   4   43.25    2.59
  -5  17  -4   41.90    2.47
  -5  17  -3    0.00    1.49
   5 -17   3    1.52    0.71
  -5  17  -3    1.46    0.69
  -5  17  -2   24.90    3.50
   5 -17   2   25.34    1.67
  -5  17  -2   23.85    1.55
  -5  17  -1    5.78    1.93
   5 -17   1    6.50    0.81
  -5  17  -1    5.84    0.82
  -5  17   0   16.92    2.82
   5 -17   0   14.30    1.20
  -5  17   0   15.75    1.21
  -5  17   1   20.14    3.09
   5 -17  -1   22.16    1.55
  -5  17   1   25.58    1.75
   5 -17  -2   12.01    2.03
  -5  17   2   11.72    2.28
   5 -17  -2    9.79    0.94
  -5  17   2    9.37    0.89
   5 -17  -3    1.00    1.38
  -5  17   3    0.13    1.59
   5 -17  -3    0.10    0.74
  -5  17   3    0.83    0.67
   5 -17  -4   66.86    8.30
  -5  17   4   58.79    7.37
   5 -17  -4   66.04    3.77
  -5  17   4   68.52    3.88
   5 -17  -5   -0.29    1.58
   5 -17  -5    0.31    0.70
  -5  17   5   -0.16    0.71
   5 -17  -6   64.58    8.10
   5 -17  -6   73.71    4.17
  -5  17   6   68.05    3.90
   5 -17  -7    2.76    1.65
   5 -17  -7    3.01    0.78
  -5  17   7    4.50    0.81
   5 -17  -8    2.40    1.60
   5 -17  -8    3.12    0.76
  -5  17   8    2.71    0.66
   5 -17  -9    3.79    1.79
   5 -17  -9    6.71    0.77
  -5  17   9    6.09    0.87
   5 -17 -10   36.51    4.95
   5 -17 -10   33.16    2.06
  -5  17  10   31.87    2.00
   5 -17 -11   -0.22    2.13
   5 -17 -11    0.94    0.67
  -5  17  11    0.33    0.67
   5 -17 -12   26.94    4.12
   5 -17 -12   29.41    1.85
  -5  17  12   29.16    1.85
   5 -17 -13    3.37    2.79
   5 -17 -13    3.37    0.68
  -5  17  13    3.77    0.80
   5 -17 -14    3.06    2.29
   5 -17 -14    0.95    0.69
  -5  17  14    0.58    0.67
   5 -17 -15   -0.55    2.34
   5 -17 -15   -0.53    0.65
  -5  17  15   -1.30    0.73
  -6  16 -11    5.89    1.60
   6 -16  11    4.22    1.20
  -6  16 -11    1.01    0.97
  -6  16 -10    0.24    1.33
   6 -16  10   -1.55    0.98
  -6  16 -10   -0.31    0.92
  -6  16  -9   12.93    2.21
   6 -16   9   12.22    1.27
  -6  16  -9   12.93    1.18
  -6  16  -8    3.04    1.46
   6 -16   8    1.98    0.91
  -6  16  -8    3.29    0.80
  -6  16  -7   10.03    1.86
   6 -16   7   10.15    1.14
  -6  16  -7   12.59    1.09
  -6  16  -6   11.12    2.02
   6 -16   6   10.56    1.04
  -6  16  -6   11.57    1.02
  -6  16  -5   18.30    2.73
   6 -16   5   19.90    1.45
  -6  16  -5   19.97    1.39
  -6  16  -4    4.22    1.59
   6 -16   4    2.75    0.76
  -6  16  -4    3.59    0.69
  -6  16  -3   16.84    2.61
   6 -16   3   17.89    1.31
  -6  16  -3   18.15    1.33
  -6  16  -2   -0.39    1.60
   6 -16   2    2.73    0.74
  -6  16  -2    3.14    0.67
  -6  16  -1   56.20    7.12
   6 -16   1   58.97    3.41
  -6  16  -1   58.44    3.39
   6 -16   0    5.24    1.56
  -6  16   0    8.66    1.98
   6 -16   0    4.70    0.84
  -6  16   0    2.96    0.74
   6 -16  -1    0.56    1.28
  -6  16   1    1.42    1.75
   6 -16  -1    3.95    0.78
  -6  16   1    2.32    0.74
   6 -16  -2    1.39    1.44
  -6  16   2   -0.74    1.55
   6 -16  -2    0.68    0.76
  -6  16   2    0.48    0.76
   6 -16  -3   13.39    2.31
  -6  16   3   16.84    2.68
   6 -16  -3   13.55    1.16
  -6  16   3   16.90    1.25
   6 -16  -4    5.98    1.75
  -6  16   4    6.09    1.91
   6 -16  -4    4.07    0.79
  -6  16   4    5.17    0.78
   6 -16  -5   56.85    7.19
  -6  16   5   56.74    7.18
   6 -16  -5   66.25    3.81
  -6  16   5   66.51    3.80
   6 -16  -6    3.57    1.62
   6 -16  -6    1.76    0.67
  -6  16   6    3.28    0.76
   6 -16  -7   17.09    2.73
   6 -16  -7   23.39    1.60
  -6  16   7   21.07    1.48
   6 -16  -8   20.38    3.11
   6 -16  -8   19.30    1.35
  -6  16   8   19.85    1.43
   6 -16  -9    3.78    1.89
   6 -16  -9    5.93    0.82
  -6  16   9    4.19    0.76
   6 -16 -10    0.01    1.89
   6 -16 -10    0.40    0.60
  -6  16  10    0.83    0.73
   6 -16 -11   21.87    3.38
   6 -16 -11   23.04    1.55
  -6  16  11   23.90    1.60
   6 -16 -12    3.24    2.19
   6 -16 -12    4.28    0.77
  -6  16  12    3.71    0.78
   6 -16 -13   13.49    2.62
   6 -16 -13   16.08    1.18
  -6  16  13   17.43    1.24
   6 -16 -14    3.12    2.35
   6 -16 -14    4.19    0.77
  -6  16  14    4.22    0.76
   6 -16 -15    3.83    2.20
   6 -16 -15    2.45    0.60
  -6  16  15    2.63    0.74
   6 -16 -16    0.21    2.19
   6 -16 -16    0.05    0.67
  -6  16  16   -0.15    0.74
   7 -15  11   13.78    1.26
  -7  15 -10    1.28    1.27
   7 -15  10    1.97    1.06
  -7  15 -10    2.02    0.92
  -7  15  -9    1.47    1.45
   7 -15   9    1.21    0.95
  -7  15  -9    1.31    0.82
  -7  15  -8    0.77    1.32
   7 -15   8    2.90    0.86
  -7  15  -8    2.89    0.83
  -7  15  -7   42.02    5.35
   7 -15   7   40.78    2.50
  -7  15  -7   41.66    2.47
  -7  15  -6    2.10    1.52
   7 -15   6    1.22    0.75
  -7  15  -6    2.19    0.72
  -7  15  -5   20.58    3.04
   7 -15   5   18.24    1.36
  -7  15  -5   18.07    1.28
  -7  15  -4    6.23    1.77
   7 -15   4    9.12    0.97
  -7  15  -4    7.85    0.92
  -7  15  -3    1.32    1.56
   7 -15   3    0.58    0.68
  -7  15  -3   -0.06    0.60
  -7  15  -2    6.53    1.70
   7 -15   2    3.49    0.75
  -7  15  -2    4.79    0.79
   7 -15   1   -0.15    1.41
  -7  15  -1    1.95    1.48
   7 -15   1   -0.23    0.71
  -7  15  -1    0.04    0.63
   7 -15   0    8.64    1.81
  -7  15   0    7.39    1.91
   7 -15   0   10.03    0.97
  -7  15   0   10.12    0.99
   7 -15  -1   78.39    9.69
  -7  15   1   83.85   10.40
   7 -15  -1   70.27    4.02
  -7  15   1   72.61    4.10
   7 -15  -2    3.79    1.49
  -7  15   2    1.93    1.68
   7 -15  -2    3.28    0.79
  -7  15   2    3.61    0.79
   7 -15  -3   13.86    2.45
  -7  15   3   14.91    2.53
   7 -15  -3   13.53    1.17
  -7  15   3   14.95    1.25
   7 -15  -4    1.02    1.62
  -7  15   4    1.18    1.82
   7 -15  -4    0.05    0.72
  -7  15   4    0.70    0.65
   7 -15  -5   21.82    3.22
  -7  15   5   25.04    3.60
   7 -15  -5   18.20    1.33
  -7  15   5   17.17    1.32
   7 -15  -6    2.40    1.57
  -7  15   6    5.29    1.74
   7 -15  -6    3.09    0.80
  -7  15   6    4.21    0.71
   7 -15  -7   71.53    8.90
   7 -15  -7   58.65    3.40
  -7  15   7   54.90    3.20
   7 -15  -8    1.43    1.67
   7 -15  -8   -0.10    0.68
  -7  15   8    0.50    0.71
   7 -15  -9   46.84    6.08
   7 -15  -9   42.12    2.51
  -7  15   9   40.71    2.47
   7 -15 -10    0.44    1.73
   7 -15 -10    0.10    0.66
  -7  15  10    0.60    0.63
   7 -15 -11    0.30    1.72
   7 -15 -11   -0.03    0.65
  -7  15  11    0.48    0.68
   7 -15 -12   -1.09    1.84
   7 -15 -12    3.36    0.75
  -7  15  12    4.49    0.80
   7 -15 -13   29.42    4.15
   7 -15 -13   30.26    1.89
  -7  15  13   26.70    1.73
   7 -15 -14   -1.24    1.84
   7 -15 -14    1.02    0.65
  -7  15  14    0.13    0.70
  -7  15  15   24.79    1.63
   7 -15 -16   -0.19    2.01
   7 -15 -16   -0.09    0.58
  -7  15  16    0.77    0.71
   7 -15 -17    0.29    2.32
   7 -15 -17    0.67    0.68
  -7  15  17   -0.27    0.81
  -8  14 -11    2.71    1.27
   8 -14  11    2.82    0.81
  -8  14 -11   -0.88    0.79
  -8  14 -10   10.67    1.83
   8 -14  10   10.75    1.13
  -8  14 -10    6.16    0.98
  -8  14  -9    8.68    1.86
   8 -14   9    4.97    1.02
  -8  14  -9    4.73    0.94
  -8  14  -8    0.59    1.41
   8 -14   8    3.00    0.91
  -8  14  -8    1.88    0.84
  -8  14  -7    4.13    1.32
   8 -14   7    3.93    0.91
  -8  14  -7    3.20    0.76
  -8  14  -6   36.83    4.76
   8 -14   6   35.48    2.20
  -8  14  -6   35.98    2.17
  -8  14  -5    1.71    1.40
   8 -14   5    0.43    0.77
  -8  14  -5   -0.02    0.65
  -8  14  -4   33.83    4.48
   8 -14   4   32.99    2.05
  -8  14  -4   37.41    2.25
  -8  14  -3   39.28    5.11
   8 -14   3   31.49    1.95
  -8  14  -3   25.37    1.62
   8 -14   2   39.26    5.06
  -8  14  -2   37.71    4.91
   8 -14   2   31.45    2.00
  -8  14  -2   34.12    2.14
   8 -14   1   73.68    9.15
  -8  14  -1   69.09    8.61
   8 -14   1   68.80    3.92
  -8  14  -1   61.72    3.56
   8 -14   0    5.83    1.60
  -8  14   0    3.83    1.59
   8 -14   0    5.09    0.82
  -8  14   0    4.04    0.73
   8 -14  -1    0.55    1.52
  -8  14   1    0.61    1.56
   8 -14  -1    0.96    0.72
  -8  14   1    2.32    0.77
   8 -14  -2   25.78    3.58
  -8  14   2   23.95    3.34
   8 -14  -2   27.19    1.77
  -8  14   2   27.33    1.72
   8 -14  -3    6.21    1.80
  -8  14   3    4.59    1.76
   8 -14  -3    4.48    0.82
  -8  14   3    3.65    0.74
   8 -14  -4   12.95    2.32
  -8  14   4   13.66    2.46
   8 -14  -4   11.93    1.08
  -8  14   4   13.64    1.16
   8 -14  -5   54.20    6.89
  -8  14   5   57.40    7.30
   8 -14  -5   48.80    2.90
  -8  14   5   47.57    2.79
   8 -14  -6   82.55   10.25
  -8  14   6   86.59   10.73
   8 -14  -6   77.22    4.38
  -8  14   6   76.31    4.35
   8 -14  -7   18.54    2.89
  -8  14   7   21.17    3.19
   8 -14  -7   19.54    1.44
  -8  14   7   21.43    1.47
   8 -14  -8  114.50   14.07
   8 -14  -8  109.20    6.07
  -8  14   8  111.20    6.19
   8 -14  -9    2.89    1.79
   8 -14  -9    1.80    0.74
  -8  14   9    1.82    0.73
   8 -14 -10   26.39    3.75
   8 -14 -10   31.61    1.97
  -8  14  10   30.68    1.97
   8 -14 -11   18.36    3.02
   8 -14 -11   15.42    1.22
  -8  14  11   15.50    1.21
   8 -14 -12    5.17    1.76
   8 -14 -12    1.46    0.74
  -8  14  12    3.23    0.73
   8 -14 -13    2.21    1.67
   8 -14 -13    2.60    0.74
  -8  14  13    1.88    0.67
   8 -14 -14   16.44    2.96
   8 -14 -14   23.32    1.52
  -8  14  14   19.51    1.37
   8 -14 -15    1.06    2.08
   8 -14 -15    0.35    0.68
  -8  14  15    0.16    0.69
   8 -14 -16   17.32    3.06
   8 -14 -16   19.38    1.37
  -8  14  16   19.46    1.37
   8 -14 -17    4.54    2.03
   8 -14 -17    6.86    0.85
   8 -14 -18   -1.25    1.75
   8 -14 -18   -0.14    0.67
  -9  13 -11   -0.84    1.35
  -9  13 -10   15.62    2.24
   9 -13  10   10.66    1.05
  -9  13  -9   -0.51    1.30
   9 -13   9    0.70    0.83
  -9  13  -9    0.64    0.72
  -9  13  -8   25.06    3.40
   9 -13   8   26.67    1.82
  -9  13  -8   28.05    1.81
  -9  13  -7    1.28    1.22
   9 -13   7    0.91    0.83
  -9  13  -7    0.85    0.67
  -9  13  -6    9.58    1.84
   9 -13   6    8.15    0.95
  -9  13  -6    7.48    0.89
  -9  13  -5    0.24    1.34
   9 -13   5    0.96    0.75
  -9  13  -5   -0.07    0.69
  -9  13  -4   22.62    3.18
   9 -13   4   21.02    1.43
  -9  13  -4   19.99    1.35
  -9  13  -3    3.07    1.59
   9 -13   3    3.74    0.82
  -9  13  -3    2.84    0.72
   9 -13   2  171.80   20.90
  -9  13  -2  159.00   19.34
   9 -13   2  158.60    8.66
  -9  13  -2  167.60    9.13
   9 -13   1   16.94    2.64
  -9  13  -1   18.28    2.83
   9 -13   1   19.19    1.43
  -9  13  -1   21.90    1.54
   9 -13   0   18.89    2.79
  -9  13   0   20.86    3.02
   9 -13   0   21.85    1.54
  -9  13   0   21.34    1.44
   9 -13  -1    4.55    1.66
  -9  13   1    4.62    1.72
   9 -13  -1    1.19    0.62
  -9  13   1    3.02    0.78
   9 -13  -2    3.38    1.65
  -9  13   2    1.77    1.60
   9 -13  -2    0.72    0.73
  -9  13   2    1.68    0.72
   9 -13  -3    3.97    1.65
  -9  13   3    2.08    1.68
   9 -13  -3    2.68    0.74
  -9  13   3    3.27    0.73
   9 -13  -4   91.74   11.32
  -9  13   4   87.87   10.87
   9 -13  -4   83.88    4.73
  -9  13   4   79.81    4.53
   9 -13  -5   35.89    4.66
  -9  13   5   36.81    4.93
   9 -13  -5   31.72    2.02
  -9  13   5   29.61    1.90
   9 -13  -6   90.60   11.17
  -9  13   6   92.11   11.39
   9 -13  -6   90.68    5.09
  -9  13   6   92.74    5.18
   9 -13  -7    1.24    1.66
  -9  13   7    2.76    1.61
   9 -13  -7    2.19    0.78
  -9  13   7    1.33    0.70
   9 -13  -8    4.19    2.01
  -9  13   8    6.62    1.82
   9 -13  -8    9.50    1.04
  -9  13   8    9.84    0.94
   9 -13  -9   17.97    2.94
   9 -13  -9   18.15    1.33
  -9  13   9   18.15    1.37
   9 -13 -10   18.90    2.95
   9 -13 -10   16.81    1.28
  -9  13  10   15.41    1.20
   9 -13 -11    1.67    1.87
   9 -13 -11    2.17    0.67
  -9  13  11    1.54    0.73
   9 -13 -12   30.87    4.20
   9 -13 -12   30.64    1.93
  -9  13  12   29.40    1.88
   9 -13 -13   -1.26    1.78
   9 -13 -13    0.34    0.61
  -9  13  13   -0.04    0.62
   9 -13 -14   -2.17    1.75
   9 -13 -14    1.40    0.67
  -9  13  14    1.10    0.60
   9 -13 -15   -0.88    1.94
   9 -13 -15   -0.44    0.70
  -9  13  15    0.36    0.71
   9 -13 -16    4.45    2.08
   9 -13 -16    3.48    0.74
   9 -13 -17    3.38    2.07
   9 -13 -17    3.04    0.70
   9 -13 -18   10.99    2.42
   9 -13 -18    8.64    0.94
 -10  12 -10    4.05    1.34
 -10  12  -9   10.26    1.99
 -10  12  -8    0.71    1.36
  10 -12   8    0.17    0.80
 -10  12  -7   10.45    1.93
  10 -12   7   13.35    1.18
 -10  12  -7   16.33    1.23
 -10  12  -6   28.64    3.80
  10 -12   6   21.86    1.49
 -10  12  -6   19.35    1.35
 -10  12  -5    5.37    1.56
  10 -12   5    1.04    0.74
 -10  12  -5    2.13    0.69
 -10  12  -4   33.43    4.41
  10 -12   4   31.65    1.95
 -10  12  -4   35.33    2.14
  10 -12   3   35.06    4.61
 -10  12  -3   32.71    4.35
  10 -12   3   28.59    1.83
 -10  12  -3   32.30    1.99
  10 -12   2    4.17    1.69
 -10  12  -2    5.75    1.62
  10 -12   2    6.92    0.86
 -10  12  -2    5.62    0.76
  10 -12   1  114.60   14.03
 -10  12  -1  122.00   14.91
  10 -12   1  135.10    7.43
 -10  12  -1  139.20    7.62
  10 -12   0   93.07   11.50
 -10  12   0   86.71   10.70
  10 -12   0   67.54    3.87
 -10  12   0   69.15    3.94
  10 -12  -1    9.30    2.02
 -10  12   1    9.45    2.00
  10 -12  -1    7.01    0.87
 -10  12   1    8.13    0.85
  10 -12  -2   54.45    6.93
 -10  12   2   51.45    6.55
  10 -12  -2   52.69    3.08
 -10  12   2   54.20    3.17
  10 -12  -3    1.86    1.55
 -10  12   3    3.84    1.57
  10 -12  -3    0.91    0.73
 -10  12   3    0.95    0.68
  10 -12  -4   20.00    3.04
 -10  12   4   20.88    3.07
  10 -12  -4   16.68    1.26
 -10  12   4   22.96    1.53
  10 -12  -5   38.48    5.06
 -10  12   5   37.60    4.98
  10 -12  -5   35.85    2.22
 -10  12   5   35.34    2.22
  10 -12  -6   26.76    3.81
 -10  12   6   25.64    3.72
  10 -12  -6   16.97    1.34
 -10  12   6   17.70    1.27
  10 -12  -7    1.84    1.67
 -10  12   7    1.54    1.82
  10 -12  -7    3.87    0.78
 -10  12   7    3.70    0.77
  10 -12  -8   81.47   10.17
 -10  12   8   80.41    9.98
  10 -12  -8   68.61    3.91
 -10  12   8   71.26    4.07
  10 -12  -9   13.35    2.55
  10 -12  -9    9.39    0.96
 -10  12   9    9.73    0.96
  10 -12 -10    2.92    1.94
  10 -12 -10    1.87    0.70
 -10  12  10    2.82    0.78
  10 -12 -11   18.04    2.83
  10 -12 -11   17.05    1.30
 -10  12  11   15.10    1.17
  10 -12 -12    3.50    1.82
  10 -12 -12    0.19    0.63
 -10  12  12   -0.34    0.67
  10 -12 -13    9.58    2.12
  10 -12 -13   10.08    0.98
 -10  12  13   10.83    1.01
  10 -12 -14   23.17    3.58
  10 -12 -14   15.52    1.20
 -10  12  14   15.49    1.20
  10 -12 -15    1.42    1.84
  10 -12 -15    0.41    0.60
  10 -12 -16   18.69    3.07
  10 -12 -16   16.89    1.25
  10 -12 -17   12.16    2.31
  10 -12 -17   11.22    1.00
  10 -12 -18    1.76    1.96
  10 -12 -18    0.09    0.68
  10 -12 -19    0.02    2.00
  10 -12 -19    2.27    0.73
  10 -12 -19    1.62    0.64
 -11  11 -10    0.19    1.21
 -11  11  -9    1.39    1.13
 -11  11  -8    0.57    1.22
 -11  11  -7    7.56    1.59
  11 -11   7    7.00    0.83
 -11  11  -6    8.12    1.81
  11 -11   6    3.86    0.73
 -11  11  -5   57.78    7.23
  11 -11   5   60.46    3.44
 -11  11  -5   55.54    3.19
 -11  11  -4    8.52    1.81
  11 -11   4   12.43    1.04
 -11  11  -4   12.68    1.05
  11 -11   3    4.87    1.66
 -11  11  -3    5.34    1.71
  11 -11   3    5.37    0.80
 -11  11  -3    6.41    0.76
  11 -11   2    0.79    1.67
 -11  11  -2    0.88    1.32
  11 -11   2    1.14    0.69
 -11  11  -2    0.65    0.65
  11 -11   1    6.82    1.89
 -11  11  -1    7.82    1.81
  11 -11   1   11.26    1.03
 -11  11  -1   11.78    0.96
  11 -11   0    1.52    1.75
 -11  11   0    0.91    1.63
  11 -11   0    1.03    0.66
 -11  11   0    1.15    0.71
  11 -11  -1  274.10   33.18
 -11  11   1  281.60   34.06
  11 -11  -1  235.00   12.75
 -11  11   1  236.60   12.83
  11 -11  -2   26.56    3.78
 -11  11   2   23.86    3.38
  11 -11  -2   24.52    1.64
 -11  11   2   21.68    1.46
  11 -11  -3    7.06    1.95
 -11  11   3    4.23    1.65
  11 -11  -3    6.22    0.90
 -11  11   3    5.43    0.78
  11 -11  -4    4.49    1.75
 -11  11   4    1.21    1.52
  11 -11  -4    4.50    0.79
 -11  11   4    5.20    0.75
  11 -11  -5    1.84    1.61
 -11  11   5    0.80    1.62
  11 -11  -5    1.10    0.70
 -11  11   5    0.14    0.63
  11 -11  -6    6.48    1.91
 -11  11   6    6.45    1.74
  11 -11  -6    7.28    0.86
 -11  11   6    8.56    0.97
  11 -11  -7   64.74    8.19
 -11  11   7   82.70   10.25
  11 -11  -7   66.31    3.80
 -11  11   7   68.66    3.89
  11 -11  -8    1.51    1.82
 -11  11   8    2.70    1.66
  11 -11  -8    2.17    0.77
 -11  11   8    1.35    0.71
  11 -11  -9   72.19    9.06
 -11  11   9   68.75    8.61
  11 -11  -9   76.60    4.34
 -11  11   9   72.58    4.12
  11 -11 -10    3.61    2.01
  11 -11 -10    3.47    0.76
 -11  11  10    3.19    0.70
  11 -11 -11   31.20    4.26
  11 -11 -11   36.67    2.27
 -11  11  11   37.26    2.32
  11 -11 -12    0.22    1.73
  11 -11 -12    1.57    0.73
 -11  11  12    1.56    0.65
  11 -11 -13    6.23    1.98
  11 -11 -13    5.53    0.84
 -11  11  13    5.13    0.76
  11 -11 -14    1.35    1.96
  11 -11 -14    0.48    0.64
  11 -11 -15   39.69    5.30
  11 -11 -15   44.26    2.64
  11 -11 -16    0.41    1.88
  11 -11 -16    0.57    0.63
  11 -11 -17    7.38    1.94
  11 -11 -17   10.64    1.00
  11 -11 -18    2.38    1.95
  11 -11 -18    0.71    0.69
  11 -11 -18   -0.09    0.59
  11 -11 -19    3.62    2.02
  11 -11 -19    0.55    0.60
  11 -11 -19    1.03    0.62
 -12  10  -9    7.84    1.67
 -12  10  -8   -0.08    1.35
 -12  10  -7   34.74    4.52
 -12  10  -6   32.70    4.34
  12 -10   6   30.78    1.88
  12 -10   6   29.66    1.80
 -12  10  -5    3.26    1.48
  12 -10   5    6.08    0.72
  12 -10   5    5.51    0.73
 -12  10  -4   16.29    2.58
  12 -10   4   17.28    1.24
  12 -10   3    0.40    1.83
 -12  10  -3    0.89    1.44
  12 -10   3    1.53    0.65
  12 -10   2    2.55    1.80
 -12  10  -2    2.48    1.54
  12 -10   2    2.22    0.70
 -12  10  -2    3.00    0.68
  12 -10   1   39.47    5.32
 -12  10  -1   29.82    4.02
  12 -10   1   29.57    1.87
 -12  10  -1   28.28    1.81
  12 -10   0    1.66    1.99
 -12  10   0    0.67    1.48
  12 -10   0    1.30    0.73
 -12  10   0    1.77    0.60
  12 -10  -1    2.49    1.93
 -12  10   1    1.92    1.73
  12 -10  -1    2.91    0.73
 -12  10   1    3.92    0.76
  12 -10  -2  288.80   34.98
 -12  10   2  271.30   32.87
  12 -10  -2  258.70   14.01
 -12  10   2  273.90   14.81
  12 -10  -3   28.25    4.02
 -12  10   3   29.85    4.22
  12 -10  -3   19.97    1.44
 -12  10   3   21.40    1.48
  12 -10  -4    0.24    1.73
 -12  10   4   -0.29    1.77
  12 -10  -4    1.86    0.69
 -12  10   4    1.22    0.76
  12 -10  -5   32.28    4.44
 -12  10   5   28.26    3.90
  12 -10  -5   25.78    1.73
 -12  10   5   28.55    1.81
  12 -10  -6   12.21    2.43
 -12  10   6   15.19    2.57
  12 -10  -6   10.66    1.03
 -12  10   6   11.99    1.06
  12 -10  -7    8.04    2.21
 -12  10   7   11.04    2.35
  12 -10  -7   12.17    1.09
 -12  10   7   13.29    1.18
  12 -10  -8    6.31    2.11
 -12  10   8    4.60    1.91
  12 -10  -8    5.82    0.83
 -12  10   8    5.93    0.82
  12 -10  -9    9.66    2.35
 -12  10   9    8.41    2.07
  12 -10  -9    4.60    0.82
 -12  10   9    6.80    0.95
  12 -10 -10    8.22    2.39
 -12  10  10    9.12    2.09
  12 -10 -10   15.12    1.23
 -12  10  10   14.94    1.20
  12 -10 -11   10.07    2.29
  12 -10 -11    6.33    0.86
 -12  10  11    6.96    0.83
  12 -10 -12    8.06    2.16
  12 -10 -12   11.72    1.04
  12 -10 -13   27.41    4.00
  12 -10 -13   29.65    1.89
  12 -10 -14    1.35    1.89
  12 -10 -14    0.87    0.69
  12 -10 -15    0.98    1.83
  12 -10 -15    0.66    0.69
  12 -10 -16    0.76    1.74
  12 -10 -16    5.07    0.80
  12 -10 -17    8.41    2.05
  12 -10 -17    6.13    0.83
  12 -10 -17    7.36    0.81
  12 -10 -18   -0.93    1.75
  12 -10 -18   -0.02    0.64
  12 -10 -18    1.28    0.73
  12 -10 -19   14.12    2.67
  12 -10 -19   14.30    1.15
  12 -10 -19   13.53    1.05
  12 -10 -20    3.03    1.91
  12 -10 -20    0.74    0.62
  12 -10 -20    2.28    0.77
 -13   9  -9    0.12    1.27
 -13   9  -8   16.47    2.58
 -13   9  -7   -2.62    1.57
 -13   9  -6   36.76    4.84
 -13   9  -5    2.42    1.51
  13  -9   5    0.61    0.62
  13  -9   5    1.16    0.60
 -13   9  -4    6.49    1.88
  13  -9   4    3.08    0.64
  13  -9   4    2.63    0.63
  13  -9   3    1.96    1.61
 -13   9  -3   -1.73    1.59
  13  -9   3    0.70    0.67
  13  -9   3    1.03    0.61
  13  -9   2   37.05    4.96
 -13   9  -2   33.39    4.51
  13  -9   2   34.16    2.07
  13  -9   1    8.08    2.17
 -13   9  -1    6.72    1.85
  13  -9   1    5.45    0.77
  13  -9   0   52.58    6.80
 -13   9   0   51.30    6.53
  13  -9   0   55.62    3.20
  13  -9  -1    8.39    2.29
 -13   9   1    3.62    1.62
  13  -9  -1    7.29    0.84
  13  -9  -2   24.30    3.61
 -13   9   2   17.28    2.86
  13  -9  -2   25.99    1.69
  13  -9  -3    6.42    2.13
 -13   9   3    6.58    2.12
  13  -9  -3    5.13    0.77
 -13   9   3    5.59    0.75
  13  -9  -4   76.44    9.64
 -13   9   4   65.85    8.31
  13  -9  -4   66.27    3.80
 -13   9   4   62.99    3.60
  13  -9  -5    7.88    2.27
 -13   9   5    6.25    1.89
  13  -9  -5    7.71    0.94
 -13   9   5    7.24    0.83
  13  -9  -6   56.73    7.32
 -13   9   6   55.75    7.10
  13  -9  -6   60.03    3.48
 -13   9   6   59.87    3.43
  13  -9  -7    7.64    2.40
 -13   9   7    6.93    2.03
  13  -9  -7    6.80    0.82
  13  -9  -8    1.11    1.97
 -13   9   8   -0.78    1.86
  13  -9  -8    1.99    0.66
  13  -9  -9   -0.40    1.94
 -13   9   9    1.31    1.69
  13  -9  -9    0.27    0.65
  13  -9 -10   20.36    3.33
 -13   9  10   20.46    3.15
  13  -9 -10   15.36    1.25
  13  -9 -11   19.90    3.22
  13  -9 -11   18.99    1.37
  13  -9 -12   22.34    3.43
  13  -9 -12   22.54    1.53
  13  -9 -13    2.50    1.87
  13  -9 -13    1.74    0.67
  13  -9 -14    4.87    2.23
  13  -9 -14    6.92    0.84
  13  -9 -15    5.63    2.29
  13  -9 -15    4.87    0.81
  13  -9 -15    3.87    0.73
  13  -9 -16    0.62    2.15
  13  -9 -16    0.44    0.68
  13  -9 -16    0.57    0.59
  13  -9 -17    3.05    1.81
  13  -9 -17    1.13    0.65
  13  -9 -17    1.37    0.58
  13  -9 -18   28.83    4.18
  13  -9 -18   20.90    1.43
  13  -9 -18   20.88    1.46
  13  -9 -19    1.13    2.03
  13  -9 -19    1.20    0.73
  13  -9 -19    1.55    0.64
  13  -9 -20    9.09    2.36
 -14   8  -8    2.32    1.38
 -14   8  -7    3.06    1.74
 -14   8  -6   17.43    2.77
 -14   8  -5   12.85    2.31
 -14   8  -4   63.86    8.00
  14  -8   4   56.50    3.19
  14  -8   4   54.72    3.09
  14  -8   3    9.00    2.14
 -14   8  -3    7.38    1.99
  14  -8   3    6.09    0.77
  14  -8   3    5.32    0.72
  14  -8   2   12.96    2.56
 -14   8  -2   11.08    2.23
  14  -8   2   14.87    1.12
  14  -8   2   15.31    1.12
  14  -8   1   32.79    4.63
 -14   8  -1   23.98    3.40
  14  -8   1   28.14    1.78
  14  -8   1   26.66    1.71
  14  -8   0   31.53    4.57
 -14   8   0   24.43    3.56
  14  -8   0   26.01    1.68
  14  -8   0   28.21    1.75
  14  -8  -1    0.23    2.14
 -14   8   1    1.71    1.72
  14  -8  -1    1.98    0.67
  14  -8  -1    0.83    0.62
  14  -8  -2   33.27    4.84
 -14   8   2   31.98    4.40
  14  -8  -2   33.09    2.04
  14  -8  -3    6.11    2.36
 -14   8   3    2.54    1.93
  14  -8  -3    9.11    0.94
  14  -8  -4   39.30    5.36
 -14   8   4   39.96    5.29
  14  -8  -4   46.10    2.72
  14  -8  -5   46.43    6.16
 -14   8   5   46.49    6.12
  14  -8  -5   41.90    2.53
  14  -8  -6   13.94    2.80
 -14   8   6   13.53    2.46
  14  -8  -6    6.21    0.90
  14  -8  -7   -0.17    2.05
 -14   8   7   -1.38    1.84
  14  -8  -7    0.45    0.65
  14  -8  -8   19.15    3.28
 -14   8   8   22.64    3.42
  14  -8  -8   17.05    1.32
  14  -8  -9    2.97    2.07
 -14   8   9    3.92    1.97
  14  -8  -9    2.52    0.70
  14  -8 -10   24.73    4.02
 -14   8  10   25.28    3.72
  14  -8 -10   32.57    2.07
  14  -8 -11    4.84    2.12
 -14   8  11    6.10    2.11
  14  -8 -11    5.48    0.86
  14  -8 -12    0.09    1.91
  14  -8 -12    0.41    0.75
  14  -8 -12    2.08    0.63
  14  -8 -13    7.08    2.16
  14  -8 -13    5.23    0.84
  14  -8 -13    5.11    0.72
  14  -8 -14   26.48    3.96
  14  -8 -14   20.94    1.49
  14  -8 -14   20.58    1.39
  14  -8 -15    0.54    2.24
  14  -8 -15   -0.09    0.71
  14  -8 -15    0.02    0.55
  14  -8 -16    8.67    2.53
  14  -8 -16   12.45    1.10
  14  -8 -16   11.89    1.04
  14  -8 -17    1.29    1.91
  14  -8 -17    3.06    0.75
  14  -8 -17    3.13    0.66
  14  -8 -18   -0.45    1.76
  14  -8 -18    0.52    0.72
  14  -8 -18    1.68    0.64
  14  -8 -19   11.90    2.40
  14  -8 -19   12.07    1.07
  14  -8 -19   12.52    1.02
  14  -8 -20    2.61    1.82
  14  -8 -20   -0.52    0.76
  14  -8 -20   -0.42    0.60
 -15   7  -7    1.74    1.63
 -15   7  -6    4.12    1.95
 -15   7  -5   13.82    2.60
 -15   7  -4    2.10    1.74
  15  -7   4    2.55    0.55
  15  -7   4    2.64    0.55
  15  -7   3   51.11    6.62
 -15   7  -3   47.41    6.19
  15  -7   3   48.08    2.77
  15  -7   3   51.39    2.94
  15  -7   2    0.76    1.87
 -15   7  -2    0.87    1.80
  15  -7   2    0.84    0.64
  15  -7   2    1.28    0.65
  15  -7   1   14.77    2.63
 -15   7  -1   15.57    2.59
  15  -7   1   20.35    1.38
  15  -7   1   21.85    1.46
  15  -7   0    2.99    1.91
 -15   7   0    4.52    1.87
  15  -7   0    4.54    0.81
  15  -7   0    4.15    0.72
  15  -7  -1   54.62    7.03
 -15   7   1   47.98    6.18
  15  -7  -1   49.85    2.91
  15  -7  -1   52.11    3.01
  15  -7  -2    1.29    1.87
 -15   7   2   -2.44    1.63
  15  -7  -2   -1.08    0.71
  15  -7  -2   -0.25    0.66
  15  -7  -3   16.39    2.89
 -15   7   3   15.83    2.80
  15  -7  -3   24.06    1.60
  15  -7  -3   24.53    1.61
  15  -7  -4   24.10    3.71
 -15   7   4   22.77    3.40
  15  -7  -4   20.17    1.45
  15  -7  -4   22.00    1.48
  15  -7  -5   16.69    3.18
 -15   7   5   22.99    3.46
  15  -7  -6    5.20    2.46
 -15   7   6    5.26    2.08
  15  -7  -6    2.84    0.78
  15  -7  -6    3.75    0.71
  15  -7  -7   26.83    4.23
 -15   7   7   24.80    3.71
  15  -7  -7   22.04    1.56
  15  -7  -7   19.58    1.38
  15  -7  -8    4.46    2.62
 -15   7   8    7.45    2.28
  15  -7  -8    8.47    0.96
  15  -7  -8    7.40    0.85
  15  -7  -9   27.76    4.19
 -15   7   9   23.87    3.56
  15  -7  -9   28.00    1.83
  15  -7  -9   28.70    1.85
  15  -7 -10    5.68    2.59
 -15   7  10    3.54    1.98
  15  -7 -10    3.04    0.81
  15  -7 -10    2.35    0.63
  15  -7 -11   19.29    3.44
 -15   7  11   18.58    3.07
  15  -7 -11   23.30    1.57
  15  -7 -11   24.60    1.65
  15  -7 -12   28.47    4.32
  15  -7 -12   25.53    1.72
  15  -7 -12   23.31    1.55
  15  -7 -13    5.01    2.52
  15  -7 -13    3.00    0.73
  15  -7 -13    2.58    0.71
  15  -7 -14    3.78    2.13
  15  -7 -14    1.84    0.84
  15  -7 -14    2.57    0.74
  15  -7 -15   22.48    3.71
  15  -7 -15   23.81    1.60
  15  -7 -15   23.80    1.55
  15  -7 -16    1.41    2.11
  15  -7 -16    0.71    0.77
  15  -7 -16   -0.66    0.59
  15  -7 -17   11.37    2.63
  15  -7 -17   12.18    1.09
  15  -7 -17   12.21    1.02
  15  -7 -18   -0.43    2.08
  15  -7 -18    2.81    0.79
  15  -7 -18    2.11    0.65
  15  -7 -19   -0.59    1.80
  15  -7 -19   -0.25    0.78
  15  -7 -19    0.36    0.60
  15  -7 -20   -0.05    1.76
  15  -7 -20    0.87    0.75
  15  -7 -20   -0.54    0.62
  15  -7 -21    1.62    0.86
  15  -7 -21    1.19    0.59
 -16   6  -7    3.57    1.61
 -16   6  -6    3.31    1.46
 -16   6  -5    0.89    2.00
 -16   6  -4    0.74    1.98
  16  -6   3   12.35    2.42
 -16   6  -3   12.99    2.68
  16  -6   3   10.54    0.93
  16  -6   3    9.66    0.87
  16  -6   2   10.75    2.62
 -16   6  -2   12.46    2.38
  16  -6   2   11.65    0.96
  16  -6   2   13.00    1.07
  16  -6   1   16.57    3.07
 -16   6  -1   22.01    3.31
  16  -6   0    1.29    1.89
 -16   6   0    2.98    1.98
  16  -6   0    4.61    0.76
  16  -6   0    4.45    0.74
  16  -6  -1   13.48    2.75
 -16   6   1   10.88    2.33
  16  -6  -1   13.18    1.09
  16  -6  -1   10.28    0.93
  16  -6  -2    1.71    2.17
 -16   6   2    1.52    1.84
  16  -6  -2    1.57    0.66
  16  -6  -2    1.65    0.71
  16  -6  -3   34.57    4.92
 -16   6   3   40.44    5.40
  16  -6  -3   30.57    1.91
  16  -6  -3   26.97    1.73
  16  -6  -4   -0.51    2.03
 -16   6   4    1.10    1.71
  16  -6  -4    0.08    0.68
  16  -6  -4    0.86    0.65
  16  -6  -5   75.05    9.57
 -16   6   5   80.69   10.09
  16  -6  -5   70.78    4.02
  16  -6  -5   75.71    4.28
  16  -6  -6    1.90    2.26
 -16   6   6    0.97    1.93
  16  -6  -6    1.55    0.76
  16  -6  -6    2.13    0.72
  16  -6  -7   66.88    8.57
 -16   6   7   71.90    9.03
  16  -6  -7   68.79    3.93
  16  -6  -7   69.87    3.96
  16  -6  -8    4.43    2.54
 -16   6   8    8.99    2.35
  16  -6  -8    6.50    0.94
  16  -6  -8    7.86    0.87
  16  -6  -9   -1.82    2.21
 -16   6   9   -2.09    1.96
  16  -6  -9    0.78    0.75
  16  -6  -9    1.14    0.63
  16  -6 -10    1.59    2.12
 -16   6  10    1.59    1.94
  16  -6 -10    2.61    0.68
  16  -6 -10    2.76    0.68
  16  -6 -11   20.92    3.61
 -16   6  11   18.46    3.06
  16  -6 -11   15.95    1.25
  16  -6 -11   15.07    1.16
  16  -6 -12    0.34    2.43
 -16   6  12   -0.05    1.57
  16  -6 -12    0.01    0.74
  16  -6 -12   -0.34    0.62
  16  -6 -13   76.26    9.69
  16  -6 -13   76.21    4.31
  16  -6 -13   74.59    4.20
  16  -6 -14    0.40    2.12
  16  -6 -14    0.59    0.65
  16  -6 -14    0.92    0.70
  16  -6 -15    1.40    2.01
  16  -6 -15    2.20    0.82
  16  -6 -15    2.52    0.75
  16  -6 -16    3.39    2.22
  16  -6 -16    3.31    0.78
  16  -6 -16    3.41    0.70
  16  -6 -17    3.90    2.38
  16  -6 -17    1.16    0.63
  16  -6 -17    1.90    0.58
  16  -6 -18    0.48    2.14
  16  -6 -18    0.36    0.77
  16  -6 -18    1.08    0.63
  16  -6 -19    7.42    2.49
  16  -6 -19    7.18    0.92
  16  -6 -19    7.09    0.80
  16  -6 -20   -2.02    1.77
  16  -6 -20    1.12    0.76
  16  -6 -20   -0.58    0.63
 -17   5  -6    4.07    1.59
 -17   5  -5   10.13    1.97
 -17   5  -4    3.25    1.91
  17  -5   3    4.43    2.01
 -17   5  -3    4.53    1.91
  17  -5   2    5.83    2.37
 -17   5  -2    5.14    2.20
  17  -5   2    4.81    0.80
  17  -5   2    3.96    0.78
  17  -5   1    4.65    2.09
 -17   5  -1    6.07    2.13
  17  -5   1    4.65    0.80
  17  -5   1    5.18    0.79
  17  -5   0   31.01    4.29
 -17   5   0   34.01    4.70
  17  -5   0   26.42    1.72
  17  -5   0   26.48    1.74
  17  -5  -1   10.76    2.32
 -17   5   1   10.62    2.28
  17  -5  -1    9.70    0.99
  17  -5  -1    7.36    0.87
  17  -5  -2    3.33    2.11
 -17   5   2    2.06    1.94
  17  -5  -2    4.60    0.76
  17  -5  -2    4.26    0.72
  17  -5  -3   45.41    6.17
 -17   5   3   50.88    6.66
  17  -5  -4   51.99    6.89
 -17   5   4   47.29    6.25
  17  -5  -4   43.38    2.58
  17  -5  -4   39.73    2.36
  17  -5  -5   10.61    2.86
 -17   5   5   11.86    2.72
  17  -5  -5   13.04    1.12
  17  -5  -5   14.83    1.18
  17  -5  -6   63.52    8.26
 -17   5   6   54.32    7.13
  17  -5  -7    2.99    2.49
 -17   5   7   -0.11    1.98
  17  -5  -7    0.47    0.69
  17  -5  -7    0.18    0.67
  17  -5  -8   15.03    3.02
 -17   5   8   22.11    3.51
  17  -5  -8   21.76    1.47
  17  -5  -8   23.66    1.59
  17  -5  -9    2.59    2.58
 -17   5   9    2.51    2.29
  17  -5  -9    1.48    0.75
  17  -5  -9    2.62    0.67
  17  -5 -10   16.35    3.19
 -17   5  10   15.91    3.06
  17  -5 -10   11.68    1.07
  17  -5 -10   13.46    1.07
  17  -5 -11    6.85    2.65
 -17   5  11    7.49    2.29
  17  -5 -12   16.48    3.20
 -17   5  12   20.10    3.32
  17  -5 -12   19.75    1.43
  17  -5 -12   20.38    1.40
  17  -5 -13   -0.23    2.29
  17  -5 -13    0.61    0.75
  17  -5 -13    0.16    0.58
  17  -5 -14   43.99    6.07
  17  -5 -14   44.63    2.66
  17  -5 -14   49.25    2.88
  17  -5 -15    2.93    2.13
  17  -5 -15    4.74    0.81
  17  -5 -15    3.59    0.72
  17  -5 -16   -1.83    2.08
  17  -5 -16    0.42    0.65
  17  -5 -16   -0.53    0.63
  17  -5 -17    4.86    2.42
  17  -5 -17    4.47    0.81
  17  -5 -17    2.33    0.70
  17  -5 -18    8.02    2.66
  17  -5 -18    5.27    0.87
  17  -5 -18    5.88    0.75
  17  -5 -19   -1.41    2.08
  17  -5 -19    0.74    0.78
  17  -5 -19    0.35    0.60
  17  -5 -20    1.23    1.93
  17  -5 -20    3.81    0.72
  17  -5 -20    3.01    0.71
 -18   4  -4   19.11    2.94
 -18   4  -3    3.93    1.89
  18  -4   2   12.60    2.66
 -18   4  -2    8.22    2.34
  18  -4   2    8.32    0.84
  18  -4   2    8.89    0.93
  18  -4   1    1.89    1.68
 -18   4  -1    1.97    1.84
  18  -4   1    0.97    0.71
  18  -4   1    0.98    0.75
  18  -4   0    1.43    1.96
 -18   4   0    1.05    1.84
  18  -4   0   -0.21    0.72
  18  -4   0   -0.38    0.76
  18  -4  -1    3.15    2.38
 -18   4   1    4.59    2.11
  18  -4  -1    3.39    0.74
  18  -4  -1    4.18    0.82
  18  -4  -2   17.32    3.28
 -18   4   2   13.70    2.64
  18  -4  -2   16.11    1.29
  18  -4  -2   16.27    1.24
  18  -4  -3   -2.38    2.44
 -18   4   3   -1.17    2.05
  18  -4  -3    0.13    0.77
  18  -4  -3    0.72    0.68
  18  -4  -4   30.37    4.61
 -18   4   4   31.19    4.46
  18  -4  -4   33.41    2.07
  18  -4  -4   34.88    2.15
  18  -4  -5   26.30    4.19
 -18   4   5   21.63    3.54
  18  -4  -5   26.02    1.73
  18  -4  -5   25.15    1.63
  18  -4  -6   -2.45    2.30
 -18   4   6   -0.94    2.01
  18  -4  -6    0.88    0.59
  18  -4  -6    0.20    0.68
  18  -4  -7    7.68    2.64
 -18   4   7   11.16    2.62
  18  -4  -7    8.51    0.96
  18  -4  -7    7.44    0.86
  18  -4  -8   21.27    3.50
 -18   4   8   29.73    4.38
  18  -4  -8   22.49    1.58
  18  -4  -8   23.82    1.58
  18  -4  -9    1.88    2.52
 -18   4   9   -0.89    2.42
  18  -4  -9    6.06    0.92
  18  -4  -9    5.02    0.75
  18  -4 -10   22.43    3.66
 -18   4  10   25.11    3.94
  18  -4 -10   24.23    1.64
  18  -4 -10   23.48    1.56
  18  -4 -11    5.31    2.50
 -18   4  11    1.92    2.07
  18  -4 -11    3.81    0.85
  18  -4 -11    3.54    0.63
  18  -4 -12   -1.38    2.62
 -18   4  12    0.58    2.05
  18  -4 -12    2.26    0.84
  18  -4 -12    2.85    0.74
  18  -4 -13   -0.98    2.40
  18  -4 -13    3.92    0.90
  18  -4 -13    4.23    0.72
  18  -4 -14   14.98    3.17
  18  -4 -14   10.06    0.99
  18  -4 -14    8.67    0.84
  18  -4 -15    3.91    2.08
  18  -4 -15    3.36    0.86
  18  -4 -15    4.70    0.75
  18  -4 -16   14.33    3.15
  18  -4 -16   14.91    1.20
  18  -4 -16   12.90    1.06
  18  -4 -17   -1.20    2.19
  18  -4 -17   -0.97    0.76
  18  -4 -17    0.05    0.55
  18  -4 -18    3.65    2.36
  18  -4 -18    5.91    0.93
  18  -4 -18    7.02    0.78
  18  -4 -19   -1.69    2.19
  18  -4 -19    1.54    0.78
  18  -4 -19   -0.46    0.63
  18  -4 -20    0.57    2.33
  18  -4 -20    2.03    0.66
  18  -4 -20    1.48    0.55
 -19   3  -3    8.28    1.95
  19  -3   2    1.97    1.62
 -19   3  -2    4.20    1.90
  19  -3   2    1.90    0.69
  19  -3   2    1.90    0.69
  19  -3   1   -1.43    2.17
 -19   3  -1    0.79    1.86
  19  -3   1    0.84    0.70
  19  -3   1    0.25    0.86
  19  -3   0   27.49    4.25
 -19   3   0   23.27    3.57
  19  -3   0   23.02    1.59
  19  -3   0   21.72    1.57
  19  -3  -1    7.70    2.41
 -19   3   1    8.72    2.55
  19  -3  -1    8.87    0.99
  19  -3  -1    8.51    1.05
  19  -3  -2    1.43    2.45
 -19   3   2    1.03    2.24
  19  -3  -2    0.31    0.82
  19  -3  -2    0.93    0.75
  19  -3  -3   10.38    2.98
 -19   3   3   10.80    2.40
  19  -3  -3   10.46    1.09
  19  -3  -3   12.03    1.12
  19  -3  -4    7.39    2.65
 -19   3   4    7.82    2.36
  19  -3  -4    6.39    0.91
  19  -3  -4    7.31    0.89
  19  -3  -5    9.32    2.47
 -19   3   5    9.09    2.41
  19  -3  -6    9.77    2.73
 -19   3   6   11.13    2.71
  19  -3  -6   11.85    1.11
  19  -3  -6    9.99    0.93
  19  -3  -7    4.22    2.58
 -19   3   7    1.53    2.14
  19  -3  -7    1.61    0.79
  19  -3  -7    1.71    0.69
  19  -3  -8    7.48    2.69
 -19   3   8    2.72    2.44
  19  -3  -8    6.29    0.84
  19  -3  -8    6.47    0.83
  19  -3  -9   30.18    4.71
 -19   3   9   38.61    5.37
  19  -3  -9   30.41    1.98
  19  -3  -9   27.65    1.75
  19  -3 -10   -0.34    2.44
 -19   3  10   -1.03    2.29
  19  -3 -10    0.10    0.80
  19  -3 -10   -0.31    0.65
  19  -3 -11   18.59    3.34
 -19   3  11   16.43    3.15
  19  -3 -11   24.94    1.73
  19  -3 -11   24.20    1.56
  19  -3 -12   12.28    2.93
 -19   3  12   15.86    3.07
  19  -3 -12   12.64    1.10
  19  -3 -12   12.36    0.99
  19  -3 -13    6.62    2.60
  19  -3 -13    3.72    0.75
  19  -3 -13    2.09    0.62
  19  -3 -14    3.20    2.92
  19  -3 -14    1.06    0.80
  19  -3 -14    3.11    0.65
  19  -3 -15    4.74    2.45
  19  -3 -15    8.12    0.97
  19  -3 -15    9.78    0.91
  19  -3 -16   -0.48    2.23
  19  -3 -16    0.56    0.82
  19  -3 -16    1.27    0.62
  19  -3 -17    5.69    2.45
  19  -3 -17    6.13    0.86
  19  -3 -17    7.01    0.77
  19  -3 -18    2.10    2.07
  19  -3 -18    2.27    0.79
  19  -3 -18    3.15    0.66
  19  -3 -19   -0.27    2.01
  19  -3 -19    1.43    0.80
  19  -3 -19    1.28    0.68
  19  -3 -20    1.52    2.20
  19  -3 -20    3.02    0.71
  19  -3 -20    2.03    0.61
  20  -2   2   -0.81    1.90
 -20   2  -2    2.40    1.93
  20  -2   1   13.28    2.37
 -20   2  -1   12.35    2.29
  20  -2   1   11.83    1.02
  20  -2   1   11.22    1.07
  20  -2   0   -1.02    1.95
 -20   2   0    0.09    1.81
  20  -2   0    0.76    0.84
  20  -2   0   -0.32    0.89
  20  -2  -1   25.13    3.81
 -20   2   1   26.01    3.85
  20  -2  -1   25.16    1.75
  20  -2  -1   27.02    1.84
  20  -2  -2   -1.02    2.18
 -20   2   2    4.18    2.03
  20  -2  -2    0.72    0.94
  20  -2  -2    1.22    0.83
  20  -2  -3    1.71    2.56
 -20   2   3   -1.66    2.05
  20  -2  -3    0.62    0.87
  20  -2  -3    0.89    0.81
  20  -2  -4    2.41    2.60
 -20   2   4    5.91    2.52
  20  -2  -4    0.29    0.83
  20  -2  -4    0.87    0.77
  20  -2  -5   14.21    2.83
 -20   2   5   20.34    3.36
  20  -2  -5   16.07    1.30
  20  -2  -5   16.41    1.25
  20  -2  -6    0.81    2.64
 -20   2   6    2.44    2.17
  20  -2  -6    0.62    0.76
  20  -2  -6    0.23    0.78
  20  -2  -7   25.49    4.06
 -20   2   7   30.48    4.48
  20  -2  -7   33.30    2.12
  20  -2  -7   31.46    1.95
  20  -2  -8   -0.83    2.81
 -20   2   8    4.40    2.49
  20  -2  -8    0.58    0.70
  20  -2  -8    0.18    0.63
  20  -2  -9    7.61    2.70
 -20   2   9    5.38    2.73
  20  -2  -9    9.31    0.96
  20  -2  -9   10.43    0.96
  20  -2 -10    2.70    2.96
 -20   2  10    0.74    2.29
  20  -2 -10    4.16    0.83
  20  -2 -10    2.35    0.63
  20  -2 -11   -0.07    3.00
 -20   2  11    5.34    2.64
  20  -2 -11    0.23    0.67
  20  -2 -11    0.18    0.57
  20  -2 -12    1.38    2.74
 -20   2  12    2.72    2.32
  20  -2 -12    1.58    0.76
  20  -2 -12    2.04    0.63
  20  -2 -13   28.60    4.73
  20  -2 -13   30.98    1.98
  20  -2 -13   32.66    2.02
  20  -2 -14    1.24    2.56
  20  -2 -14    1.03    0.71
  20  -2 -14    0.77    0.66
  20  -2 -15    2.59    2.82
  20  -2 -15    2.99    0.83
  20  -2 -15    2.57    0.64
  20  -2 -16    0.13    2.39
  20  -2 -16   -0.08    0.65
  20  -2 -16    0.29    0.56
  20  -2 -17    1.29    2.19
  20  -2 -17    0.91    0.75
  20  -2 -17    0.48    0.63
  20  -2 -18   -1.23    1.89
  20  -2 -18   -0.69    0.75
  20  -2 -18   -0.69    0.71
  20  -2 -19    5.25    2.29
  20  -2 -19    4.83    0.93
  20  -2 -19    5.16    0.79
  21  -1   0    4.67    2.11
 -21   1   0    5.98    2.11
  21  -1   0    4.72    0.91
  21  -1   0    3.90    1.01
  21  -1  -1    0.84    1.61
 -21   1   1    1.54    1.73
  21  -1  -1    0.97    1.00
  21  -1  -1    1.34    0.94
  21  -1  -2    2.04    2.41
 -21   1   2    3.46    1.93
  21  -1  -2    4.10    1.00
  21  -1  -2    2.49    0.98
  21  -1  -3   13.25    3.14
 -21   1   3    8.23    2.61
  21  -1  -3    7.87    1.01
  21  -1  -3    9.52    1.06
  21  -1  -4   -0.20    2.44
 -21   1   4    1.82    2.14
  21  -1  -4   -1.06    0.84
  21  -1  -4    0.92    0.80
  21  -1  -5    1.95    2.99
 -21   1   5    1.36    2.43
  21  -1  -5    0.49    0.93
  21  -1  -5    0.23    0.77
  21  -1  -6   12.77    3.30
 -21   1   6   17.10    3.21
  21  -1  -7   -2.27    3.07
 -21   1   7   -2.07    2.55
  21  -1  -7    1.42    0.80
  21  -1  -7    0.96    0.72
  21  -1  -8    9.95    3.14
 -21   1   8    8.48    2.71
  21  -1  -8    8.86    1.02
  21  -1  -8   10.59    1.01
  21  -1  -9    5.07    3.05
 -21   1   9    4.72    2.54
  21  -1  -9    5.89    0.92
  21  -1  -9    4.79    0.81
  21  -1 -10    0.30    2.45
 -21   1  10    2.90    2.48
  21  -1 -10    2.13    0.79
  21  -1 -10    2.28    0.71
  21  -1 -11    2.27    2.69
 -21   1  11    6.68    2.42
  21  -1 -11    4.23    0.87
  21  -1 -11    3.58    0.64
  21  -1 -12    1.55    2.60
 -21   1  12    2.93    2.21
  21  -1 -12   -0.13    0.68
  21  -1 -12    0.60    0.67
  21  -1 -13    4.91    2.64
  21  -1 -13    0.56    0.71
  21  -1 -13    2.28    0.61
  21  -1 -14   10.07    3.07
  21  -1 -14    9.31    0.96
  21  -1 -14    6.99    0.77
  21  -1 -15    3.24    2.64
  21  -1 -15    2.75    0.81
  21  -1 -15    0.82    0.58
  21  -1 -16    1.22    2.15
  21  -1 -16   -0.11    0.71
  21  -1 -16    1.16    0.59
  21  -1 -17    2.07    1.96
  21  -1 -17    2.20    0.77
  21  -1 -17    1.72    0.71
  21  -1 -18    1.97    2.13
  21  -1 -18   -0.12    0.80
  21  -1 -18    0.47    0.60
  22   0  -2    8.79    2.52
 -22   0   2    9.75    2.58
  22   0  -2    8.41    1.14
  22   0  -2    9.28    1.17
  22   0  -3    0.23    1.92
 -22   0   3    1.21    2.18
  22   0  -3   -0.67    0.81
  22   0  -3   -0.43    0.92
  22   0  -4   10.22    2.90
 -22   0   4   13.48    2.88
  22   0  -4   15.04    1.38
  22   0  -4   13.57    1.19
  22   0  -5   -0.30    2.90
 -22   0   5   -1.85    2.33
  22   0  -5    0.41    1.00
  22   0  -5   -0.85    0.84
  22   0  -6    1.44    2.88
 -22   0   6   -1.58    2.18
  22   0  -6    0.71    0.93
  22   0  -6    0.05    0.74
  22   0  -7    0.10    2.79
 -22   0   7   -1.22    2.47
  22   0  -7   -0.03    0.83
  22   0  -7   -0.27    0.74
  22   0  -8    5.03    3.23
 -22   0   8    4.58    2.74
  22   0  -8    4.07    0.84
  22   0  -8    3.54    0.78
  22   0  -9   -3.76    3.02
 -22   0   9    3.17    2.57
  22   0  -9   -0.30    0.75
  22   0  -9    0.92    0.72
  22   0 -10   -1.03    3.11
 -22   0  10    1.50    2.46
  22   0 -10    4.08    0.89
  22   0 -10    2.38    0.68
  22   0 -11    1.01    3.04
 -22   0  11    0.05    2.51
  22   0 -11   -0.49    0.75
  22   0 -11   -0.82    0.62
  22   0 -12    4.45    3.04
 -22   0  12    2.44    2.26
  22   0 -12    4.72    0.87
  22   0 -12    4.36    0.70
  22   0 -13    0.23    2.84
  22   0 -13   -0.38    0.79
  22   0 -13    1.31    0.68
  22   0 -14   -3.06    2.20
  22   0 -14   -0.29    0.75
  22   0 -14    0.78    0.70
  22   0 -15   -3.56    2.23
  22   0 -15    0.84    0.60
  22   0 -15   -0.87    0.73
  22   0 -16    5.62    2.54
  22   0 -16    6.92    0.97
  22   0 -16    6.56    0.76
  22   0 -17    3.71    2.30
  22   0 -17    0.30    0.75
  22   0 -17   -0.75    0.65
  23   1  -5    2.77    2.44
 -23  -1   5    2.96    2.50
  23   1  -5    2.29    1.11
  23   1  -5    2.12    0.94
  23   1  -6   -4.77    2.50
 -23  -1   6   -1.11    2.34
  23   1  -6    0.74    1.03
  23   1  -6    0.06    0.93
  23   1  -7    1.26    2.56
 -23  -1   7   -0.80    2.32
  23   1  -7    0.20    0.91
  23   1  -7    0.53    0.87
  23   1  -8   -0.12    2.49
 -23  -1   8    3.15    2.17
  23   1  -8    5.17    0.92
  23   1  -8    4.84    0.90
  23   1  -9    3.13    2.17
 -23  -1   9    4.24    2.27
  23   1  -9    3.80    0.86
  23   1  -9    4.98    0.93
  23   1 -10    3.26    2.52
 -23  -1  10   -0.87    2.16
  23   1 -10    0.58    0.86
  23   1 -10    0.43    0.73
  23   1 -11    4.67    2.41
 -23  -1  11    0.30    2.07
  23   1 -11    1.74    0.82
  23   1 -11    0.11    0.77
  23   1 -12    0.87    2.38
 -23  -1  12   -0.02    1.85
  23   1 -12    1.38    0.84
  23   1 -12    0.21    0.76
  23   1 -13    1.70    2.43
  23   1 -13    0.83    0.68
  23   1 -13    0.59    0.84
  23   1 -14    0.78    2.00
  23   1 -14    1.90    0.77
  23   1 -14    2.83    0.88
  23   1 -15    1.10    2.44
  23   1 -15    0.39    0.87
  23   1 -15    1.45    0.83
   1 -23   2    0.56    0.88
  -1  23  -2    0.94    0.73
   1 -23   1    5.22    0.87
  -1  23  -1    4.83    0.85
   1 -23   0    2.58    0.78
  -1  23   0    2.29    0.74
   1 -23  -1    4.47    0.84
  -1  23   1    2.90    0.83
   1 -23  -2    3.00    0.82
  -1  23   2    3.43    0.70
   1 -23  -3    0.79    0.71
  -1  23   3    1.90    0.72
  -2  22  -5   -2.48    2.58
   2 -22   5    0.13    0.88
  -2  22  -5    2.15    0.84
  -2  22  -4    2.74    2.37
   2 -22   4    4.65    0.84
  -2  22  -4    3.31    0.76
  -2  22  -3    0.23    1.99
   2 -22   3   -0.57    0.65
  -2  22  -3   -0.50    0.70
   2 -22   2    4.38    0.79
  -2  22  -2    4.31    0.81
   2 -22   1    1.22    0.64
  -2  22  -1    2.05    0.70
   2 -22   0   14.71    1.14
  -2  22   0   13.68    1.10
   2 -22  -1    0.35    0.76
  -2  22   1    0.53    0.68
   2 -22  -2    4.79    0.72
  -2  22   2    4.61    0.77
   2 -22  -3    0.48    0.68
  -2  22   3    0.25    0.67
   2 -22  -4    1.55    0.62
  -2  22   4    3.35    0.84
   2 -22  -5    1.01    0.67
  -2  22   5    0.85    0.78
   2 -22  -6    9.44    0.97
  -2  22   6    9.54    0.85
   2 -22  -7    0.31    0.69
  -2  22   7    0.68    0.65
  -3  21  -7    0.49    2.20
  -3  21  -7    1.42    0.84
  -3  21  -6    0.89    2.14
   3 -21   6    1.08    0.85
  -3  21  -6    0.13    0.70
  -3  21  -5    5.70    2.35
   3 -21   5    6.28    0.86
  -3  21  -5    4.16    0.80
  -3  21  -4    6.63    2.43
   3 -21   4    3.38    0.71
  -3  21  -4    4.77    0.80
  -3  21  -3   -1.77    2.27
   3 -21   3   -0.48    0.73
  -3  21  -3   -0.16    0.69
  -3  21  -2   13.99    2.84
   3 -21   2   11.23    1.07
  -3  21  -2   10.31    0.99
  -3  21  -1    6.88    2.15
   3 -21   1    5.82    0.81
  -3  21  -1    5.20    0.75
   3 -21   0   -0.11    0.74
  -3  21   0   -0.05    0.62
   3 -21  -1    9.17    1.01
  -3  21   1    8.59    0.88
   3 -21  -2    8.55    0.88
  -3  21   2   10.17    0.98
  -3  21   3    1.96    0.78
   3 -21  -4   13.57    1.07
  -3  21   4   14.79    1.15
   3 -21  -5    3.40    0.69
  -3  21   5    4.38    0.74
   3 -21  -6    5.38    0.80
  -3  21   6    6.06    0.86
   3 -21  -7   15.01    1.23
  -3  21   7   15.52    1.23
   3 -21  -8    1.98    0.67
  -3  21   8    2.06    0.74
   3 -21  -9    1.30    0.63
  -3  21   9    0.67    0.66
  -4  20  -8    1.25    1.92
  -4  20  -8    0.41    0.82
  -4  20  -7    1.78    2.03
   4 -20   7    1.85    0.88
  -4  20  -7    2.57    0.84
  -4  20  -6    1.12    1.93
   4 -20   6    1.50    0.81
  -4  20  -6    1.25    0.72
  -4  20  -5   -0.24    2.20
   4 -20   5    0.82    0.68
  -4  20  -5    2.32    0.71
  -4  20  -4   -0.26    2.06
   4 -20   4    0.37    0.68
  -4  20  -4    0.67    0.65
  -4  20  -3   26.91    4.19
   4 -20   3   25.89    1.74
  -4  20  -3   25.67    1.68
  -4  20  -2   -2.20    2.24
   4 -20   2    0.94    0.72
  -4  20  -2   -0.52    0.58
  -4  20  -1   11.08    2.44
   4 -20   1   11.83    1.09
  -4  20  -1   11.02    0.97
  -4  20   0    1.64    1.79
   4 -20   0   -1.40    0.77
  -4  20   0   -1.36    0.63
  -4  20   1    1.74    1.74
   4 -20  -1    1.22    0.75
  -4  20   1    1.69    0.73
   4 -20  -2    0.36    0.67
  -4  20   2    0.51    0.62
   4 -20  -3   22.01    1.48
  -4  20   3   20.22    1.41
   4 -20  -4    1.28    0.74
  -4  20   4   -0.16    0.65
   4 -20  -5   16.43    1.24
  -4  20   5   15.45    1.18
   4 -20  -6    0.41    0.73
  -4  20   6    0.66    0.73
   4 -20  -7    0.89    0.67
  -4  20   7    0.56    0.71
   4 -20  -8   -0.06    1.33
   4 -20  -8    2.01    0.76
  -4  20   8    1.95    0.68
   4 -20  -9    3.98    1.78
   4 -20  -9    7.49    0.84
  -4  20   9    5.05    0.77
   4 -20 -10    1.40    1.93
   4 -20 -10   -0.29    0.69
  -4  20  10   -0.21    0.64
   4 -20 -11    3.60    2.33
   4 -20 -11    5.30    0.82
  -4  20  11    4.49    0.88
  -5  19  -8    1.90    1.75
   5 -19   8    1.25    0.97
  -5  19  -8    1.37    0.78
  -5  19  -7    8.56    2.05
   5 -19   7    6.35    1.05
  -5  19  -7    8.56    0.95
  -5  19  -6   -1.93    1.84
   5 -19   6    0.38    0.81
  -5  19  -6   -0.25    0.73
  -5  19  -5    4.19    1.96
   5 -19   5    6.95    0.93
  -5  19  -5    7.61    0.88
  -5  19  -4   -0.58    1.85
   5 -19   4   -0.77    0.75
  -5  19  -4    1.40    0.70
  -5  19  -3   -3.02    1.88
   5 -19   3    0.58    0.68
  -5  19  -3    1.34    0.70
  -5  19  -2   10.23    2.21
   5 -19   2   11.31    1.02
  -5  19  -2   11.29    0.98
  -5  19  -1    2.98    1.90
   5 -19   1    0.70    0.69
  -5  19  -1    1.56    0.76
  -5  19   0    3.71    1.89
   5 -19   0    3.66    0.78
  -5  19   0    3.81    0.71
  -5  19   1   22.81    3.50
   5 -19  -1   20.66    1.42
  -5  19   1   25.00    1.64
  -5  19   2    5.11    1.96
   5 -19  -2    6.09    0.87
  -5  19   2    8.43    0.87
  -5  19   3    1.87    1.37
   5 -19  -3    2.47    0.77
  -5  19   3    1.90    0.74
   5 -19  -4    7.96    1.95
   5 -19  -4   10.13    0.94
  -5  19   4   11.21    1.03
   5 -19  -5    6.32    1.78
   5 -19  -5    5.01    0.78
  -5  19   5    6.68    0.86
   5 -19  -6   -1.79    1.79
   5 -19  -6   -0.11    0.64
  -5  19   6    0.59    0.67
   5 -19  -7   13.18    2.52
   5 -19  -7   11.33    1.01
  -5  19   7   11.49    0.96
   5 -19  -8   -3.59    1.83
   5 -19  -8   -0.35    0.65
  -5  19   8    0.49    0.66
   5 -19  -9    4.71    2.18
   5 -19  -9    6.00    0.78
  -5  19   9    6.30    0.84
   5 -19 -10    1.73    2.25
   5 -19 -10    2.20    0.71
  -5  19  10    0.93    0.73
   5 -19 -11    4.78    2.30
   5 -19 -11    2.77    0.72
  -5  19  11    2.38    0.76
   5 -19 -12    1.11    2.43
   5 -19 -12    1.57    0.67
  -5  19  12    0.74    0.77
   5 -19 -13    1.96    2.90
   5 -19 -13    1.82    0.77
  -5  19  13    2.22    0.76
  -6  18  -9    3.57    1.80
   6 -18   9    1.55    1.17
  -6  18  -9    1.19    0.95
  -6  18  -8    2.41    1.65
   6 -18   8    1.84    0.95
  -6  18  -8    2.23    0.79
  -6  18  -7    0.87    1.78
   6 -18   7    0.94    0.96
  -6  18  -7    1.08    0.76
  -6  18  -6   20.84    3.14
   6 -18   6   21.57    1.54
  -6  18  -6   21.93    1.53
  -6  18  -5   -0.66    1.64
   6 -18   5    0.26    0.75
  -6  18  -5   -0.29    0.68
  -6  18  -4   -0.14    1.67
   6 -18   4    0.67    0.79
  -6  18  -4    1.38    0.61
  -6  18  -3   13.80    2.44
   6 -18   3   12.78    1.06
  -6  18  -3   12.09    1.03
  -6  18  -2    0.52    1.72
   6 -18   2    2.21    0.71
  -6  18  -2    1.90    0.74
  -6  18  -1    1.46    1.85
   6 -18   1   -0.98    0.60
  -6  18  -1    0.27    0.66
  -6  18   0   19.18    3.04
   6 -18   0   15.91    1.23
  -6  18   0   18.98    1.40
  -6  18   1    0.65    1.82
   6 -18  -1   -0.41    0.61
  -6  18   1    0.69    0.73
   6 -18  -2   19.98    2.96
  -6  18   2   21.94    3.42
   6 -18  -2   22.45    1.53
  -6  18   2   20.30    1.49
   6 -18  -3    1.71    1.51
  -6  18   3    3.34    2.01
   6 -18  -3    0.56    0.66
  -6  18   3    1.08    0.69
   6 -18  -4    0.78    1.73
  -6  18   4    1.21    1.72
   6 -18  -4    1.33    0.73
  -6  18   4    1.23    0.70
   6 -18  -5   17.51    2.83
   6 -18  -5   11.99    1.03
  -6  18   5   12.63    1.00
   6 -18  -6   12.34    2.35
   6 -18  -6   13.64    1.16
  -6  18   6   16.40    1.27
   6 -18  -7    6.59    2.09
   6 -18  -7    6.36    0.85
  -6  18   7    6.40    0.79
   6 -18  -8   19.80    3.13
   6 -18  -8   20.82    1.40
  -6  18   8   21.55    1.47
   6 -18  -9    2.06    1.89
   6 -18  -9    2.68    0.75
  -6  18   9    1.23    0.70
   6 -18 -10    8.31    2.36
   6 -18 -10   10.65    0.93
  -6  18  10   11.03    1.04
   6 -18 -11    4.33    2.35
   6 -18 -11    2.69    0.73
  -6  18  11    3.48    0.77
   6 -18 -12   11.36    2.95
   6 -18 -12    8.50    0.89
  -6  18  12    8.11    0.92
   6 -18 -13    3.31    2.41
   6 -18 -13    0.50    0.55
  -6  18  13   -0.68    0.72
   6 -18 -14    1.76    2.49
   6 -18 -14    2.11    0.69
  -6  18  14    1.08    0.74
  -7  17  -9    1.30    1.49
   7 -17   9   -0.05    1.13
  -7  17  -9   -0.77    0.91
  -7  17  -8    3.64    1.52
   7 -17   8    2.84    0.97
  -7  17  -8    3.71    0.92
  -7  17  -7    1.31    1.62
   7 -17   7    0.21    0.94
  -7  17  -7    0.46    0.74
  -7  17  -6    5.13    1.66
   7 -17   6    5.45    0.88
  -7  17  -6    5.81    0.89
  -7  17  -5    5.04    1.80
   7 -17   5   10.42    1.10
  -7  17  -5    9.86    0.99
  -7  17  -4   36.47    4.80
   7 -17   4   33.12    2.09
  -7  17  -4   31.02    1.94
  -7  17  -3    0.10    1.69
   7 -17   3    0.53    0.71
  -7  17  -3    0.35    0.71
  -7  17  -2    8.77    2.09
   7 -17   2    9.75    0.96
  -7  17  -2    9.67    0.94
  -7  17  -1    0.63    1.66
   7 -17   1    0.60    0.67
  -7  17  -1   -0.05    0.64
  -7  17   0   20.78    3.14
   7 -17   0   20.10    1.42
  -7  17   0   22.33    1.54
   7 -17  -1    0.63    1.34
  -7  17   1    3.09    1.85
   7 -17  -1    4.68    0.78
  -7  17   1    4.72    0.75
   7 -17  -2    7.85    1.70
  -7  17   2   10.15    2.16
   7 -17  -2    6.47    0.85
  -7  17   2    6.22    0.82
   7 -17  -3    1.59    1.57
  -7  17   3   -1.81    1.84
   7 -17  -3    0.46    0.68
  -7  17   3    0.02    0.66
   7 -17  -4   25.81    3.63
  -7  17   4   28.11    3.97
   7 -17  -4   24.19    1.62
  -7  17   4   22.16    1.51
   7 -17  -5   -0.22    1.69
  -7  17   5   -0.59    1.70
   7 -17  -5    0.36    0.70
  -7  17   5    0.14    0.65
   7 -17  -6  110.00   13.54
   7 -17  -6   98.76    5.49
  -7  17   6   99.08    5.48
   7 -17  -7    7.06    1.94
   7 -17  -7    9.51    0.97
  -7  17   7    8.81    0.98
   7 -17  -8   -0.15    1.63
   7 -17  -8    0.82    0.61
  -7  17   8    0.35    0.64
   7 -17  -9    0.97    1.91
   7 -17  -9    0.47    0.70
  -7  17   9    0.36    0.71
   7 -17 -10    6.02    2.08
   7 -17 -10    7.19    0.86
  -7  17  10    8.74    0.93
   7 -17 -11    1.20    2.17
   7 -17 -11    1.56    0.67
  -7  17  11    0.92    0.69
   7 -17 -12   12.86    2.87
   7 -17 -12   14.33    1.11
  -7  17  12   14.14    1.16
   7 -17 -13    0.66    2.56
   7 -17 -13    2.28    0.70
  -7  17  13    2.39    0.72
   7 -17 -14    2.95    2.54
   7 -17 -14    0.53    0.66
  -7  17  14    1.87    0.68
   7 -17 -15   -2.90    2.32
   7 -17 -15   -0.57    0.68
  -7  17  15   -0.23    0.72
  -8  16  -9    5.57    1.57
   8 -16   9    8.19    1.30
  -8  16  -9    7.17    1.15
  -8  16  -8    1.70    1.36
   8 -16   8    2.20    0.89
  -8  16  -8    3.13    0.93
  -8  16  -7    2.17    1.60
   8 -16   7    3.67    0.99
  -8  16  -7    3.59    0.84
  -8  16  -6   23.09    3.31
   8 -16   6   17.63    1.40
  -8  16  -6   18.23    1.35
  -8  16  -5    0.67    1.55
   8 -16   5    0.79    0.81
  -8  16  -5    0.25    0.71
  -8  16  -4   -0.72    1.53
   8 -16   4    0.82    0.79
  -8  16  -4    0.43    0.70
  -8  16  -3   43.63    5.65
   8 -16   3   44.47    2.63
  -8  16  -3   45.64    2.69
  -8  16  -2   -0.24    1.62
   8 -16   2    0.08    0.69
  -8  16  -2   -0.15    0.60
  -8  16  -1    7.06    1.91
   8 -16   1    6.88    0.87
  -8  16  -1    6.58    0.85
   8 -16   0   10.52    1.98
  -8  16   0   10.45    2.25
   8 -16   0    7.73    0.90
  -8  16   0    6.26    0.83
   8 -16  -1    2.10    1.36
  -8  16   1    1.95    1.73
   8 -16  -1    3.24    0.76
  -8  16   1    3.46    0.73
   8 -16  -2   28.76    3.90
  -8  16   2   26.73    3.86
   8 -16  -2   25.14    1.66
  -8  16   2   23.84    1.56
   8 -16  -3   30.67    4.19
  -8  16   3   32.65    4.46
   8 -16  -3   29.03    1.86
  -8  16   3   29.76    1.91
   8 -16  -4    2.24    1.70
  -8  16   4    3.78    1.87
   8 -16  -4    3.48    0.68
  -8  16   4    3.07    0.73
   8 -16  -5    9.34    2.24
  -8  16   5    9.97    2.14
   8 -16  -5   13.07    1.13
  -8  16   5   10.83    0.96
   8 -16  -6    9.41    2.24
  -8  16   6    5.92    1.79
   8 -16  -6    5.80    0.76
  -8  16   6    5.28    0.87
   8 -16  -7   44.63    5.76
   8 -16  -7   52.00    3.03
  -8  16   7   49.49    2.89
   8 -16  -8    9.89    2.10
   8 -16  -8    5.23    0.75
  -8  16   8    5.74    0.89
   8 -16  -9   28.52    3.95
   8 -16  -9   28.18    1.80
  -8  16   9   29.72    1.89
   8 -16 -10   -1.12    1.86
   8 -16 -10    0.76    0.69
  -8  16  10    1.15    0.67
   8 -16 -11   13.23    2.70
   8 -16 -11   15.08    1.15
  -8  16  11   15.40    1.22
   8 -16 -12    3.46    2.15
   8 -16 -12    2.08    0.70
  -8  16  12    2.67    0.75
   8 -16 -13    8.76    2.32
   8 -16 -13   10.36    0.93
  -8  16  13   11.64    1.04
   8 -16 -14    8.97    2.60
   8 -16 -14    7.49    0.85
  -8  16  14    7.63    0.86
   8 -16 -15    7.34    2.33
   8 -16 -15    5.46    0.79
  -8  16  15    5.94    0.80
   8 -16 -16   -1.82    2.15
   8 -16 -16   -0.54    0.67
  -8  16  16    0.19    0.75
  -9  15  -9   -0.21    1.27
   9 -15   9    3.03    0.95
  -9  15  -9    1.61    1.20
  -9  15  -8   -0.91    1.33
   9 -15   8    0.48    1.01
  -9  15  -8   -0.16    0.89
  -9  15  -7   24.48    3.42
   9 -15   7   21.25    1.65
  -9  15  -7   20.90    1.55
  -9  15  -6    2.59    1.59
   9 -15   6    0.38    0.78
  -9  15  -6    0.18    0.75
  -9  15  -5   39.19    5.13
   9 -15   5   36.99    2.30
  -9  15  -5   35.55    2.20
  -9  15  -4    1.28    1.43
   9 -15   4    1.00    0.71
  -9  15  -4    1.64    0.72
  -9  15  -3   14.84    2.51
   9 -15   3   14.78    1.15
  -9  15  -3   16.25    1.21
  -9  15  -2    5.02    1.72
   9 -15   2    8.16    0.91
  -9  15  -2    8.36    0.89
   9 -15   1   21.99    3.15
  -9  15  -1   23.70    3.43
   9 -15   1   16.73    1.24
  -9  15  -1   19.02    1.31
   9 -15   0    3.87    1.47
  -9  15   0    6.59    1.73
   9 -15   0    4.98    0.79
  -9  15   0    4.60    0.82
   9 -15  -1   76.48    9.48
  -9  15   1   77.59    9.68
   9 -15  -1   65.98    3.77
  -9  15   1   70.01    3.95
   9 -15  -2    0.67    1.50
  -9  15   2    1.54    1.43
   9 -15  -2    3.23    0.76
  -9  15   2    4.21    0.83
   9 -15  -3   27.84    3.88
  -9  15   3   27.68    3.92
   9 -15  -3   31.87    2.02
  -9  15   3   33.49    2.04
   9 -15  -4    5.98    1.81
  -9  15   4    7.95    1.92
   9 -15  -4   11.44    1.07
  -9  15   4   11.57    1.05
   9 -15  -5   -0.25    1.59
  -9  15   5    1.31    1.67
   9 -15  -5    0.53    0.69
  -9  15   5    0.83    0.69
   9 -15  -6    3.78    1.65
  -9  15   6    4.10    1.72
   9 -15  -6    3.98    0.72
  -9  15   6    3.55    0.76
   9 -15  -7   88.22   10.91
  -9  15   7   82.04   10.17
   9 -15  -7   71.67    4.08
  -9  15   7   72.67    4.14
   9 -15  -8   11.45    2.26
   9 -15  -8    9.33    0.98
  -9  15   8   10.57    0.96
   9 -15  -9   88.39   10.97
   9 -15  -9   87.84    4.91
  -9  15   9   90.23    5.06
   9 -15 -10    0.42    1.87
   9 -15 -10    3.81    0.75
  -9  15  10    2.72    0.73
   9 -15 -11    0.82    1.96
   9 -15 -11    0.14    0.60
  -9  15  11   -0.06    0.66
   9 -15 -12    0.52    1.91
   9 -15 -12    1.53    0.71
  -9  15  12    1.89    0.70
   9 -15 -13   22.03    3.50
   9 -15 -13   15.88    1.24
  -9  15  13   17.94    1.31
   9 -15 -14   -0.61    1.89
   9 -15 -14    0.60    0.57
  -9  15  14    0.96    0.66
   9 -15 -15   19.66    3.29
   9 -15 -15   24.29    1.61
  -9  15  15   25.96    1.69
   9 -15 -16    1.22    1.91
   9 -15 -16    0.88    0.57
  -9  15  16    0.27    0.73
   9 -15 -17    1.15    2.18
   9 -15 -17    0.23    0.62
  10 -14   9    4.77    1.04
 -10  14  -8    1.19    1.31
  10 -14   8    1.36    0.96
 -10  14  -8    1.44    0.90
 -10  14  -7    3.27    1.49
  10 -14   7    4.39    1.06
 -10  14  -7    2.57    0.84
 -10  14  -6   15.58    2.53
  10 -14   6   15.82    1.29
 -10  14  -6   16.10    1.27
 -10  14  -5   -1.16    1.51
  10 -14   5    1.83    0.89
 -10  14  -5    1.61    0.71
 -10  14  -4   12.57    2.23
  10 -14   4   15.39    1.23
 -10  14  -4   15.18    1.19
 -10  14  -3    6.58    1.85
  10 -14   3    3.80    0.77
 -10  14  -3    6.47    0.87
  10 -14   2    8.82    1.95
 -10  14  -2    8.83    1.97
  10 -14   2   12.95    1.12
 -10  14  -2   13.22    1.09
  10 -14   1   21.03    3.03
 -10  14  -1   20.89    3.07
  10 -14   1   20.52    1.44
 -10  14  -1   19.92    1.38
  10 -14   0   36.37    4.76
 -10  14   0   34.12    4.60
  10 -14   0   37.31    2.27
 -10  14   0   39.18    2.40
  10 -14  -1    8.82    1.97
 -10  14   1    8.38    2.06
  10 -14  -1    9.54    0.96
 -10  14   1    9.43    0.99
  10 -14  -2   34.97    4.62
 -10  14   2   40.86    5.38
  10 -14  -2   42.26    2.53
 -10  14   2   41.33    2.50
  10 -14  -3    2.35    1.62
 -10  14   3    2.65    1.77
  10 -14  -3    1.62    0.71
 -10  14   3    1.66    0.74
  10 -14  -4   18.32    2.94
 -10  14   4   14.91    2.64
  10 -14  -4   18.76    1.40
 -10  14   4   18.86    1.33
  10 -14  -5   29.84    4.18
 -10  14   5   27.77    3.95
  10 -14  -5   20.55    1.47
 -10  14   5   20.36    1.50
  10 -14  -6    1.00    1.51
 -10  14   6    0.74    1.71
  10 -14  -6    2.01    0.65
 -10  14   6    1.81    0.67
  10 -14  -7    0.82    1.55
 -10  14   7    0.81    1.67
  10 -14  -7    3.92    0.82
 -10  14   7    3.12    0.75
  10 -14  -8   21.83    3.28
 -10  14   8   25.65    3.60
  10 -14  -8   24.53    1.67
 -10  14   8   24.96    1.68
  10 -14  -9    0.08    1.85
  10 -14  -9    0.99    0.77
 -10  14   9    1.03    0.59
  10 -14 -10   67.89    8.58
  10 -14 -10   75.78    4.30
 -10  14  10   73.67    4.18
  10 -14 -11   26.38    3.91
  10 -14 -11   22.16    1.54
 -10  14  11   18.66    1.37
  10 -14 -12    2.06    2.00
  10 -14 -12    2.88    0.75
 -10  14  12    2.82    0.66
  10 -14 -13    3.69    2.00
  10 -14 -13    2.23    0.74
 -10  14  13    1.97    0.67
  10 -14 -14   11.68    2.41
  10 -14 -14   18.26    1.35
 -10  14  14   16.41    1.27
  10 -14 -15    3.05    2.09
  10 -14 -15    0.65    0.57
 -10  14  15    0.34    0.73
  10 -14 -16    9.95    2.51
  10 -14 -16    7.89    0.90
 -10  14  16    8.59    0.97
  10 -14 -17   16.96    2.97
  10 -14 -17    9.98    0.92
  10 -14 -18    1.34    2.49
  10 -14 -18    0.27    0.68
 -11  13  -9    1.06    1.13
 -11  13  -8   38.04    4.84
  11 -13   8   28.99    1.91
 -11  13  -7    3.43    1.42
  11 -13   7    2.25    0.82
 -11  13  -7    2.07    0.80
 -11  13  -6   11.48    2.15
  11 -13   6   15.30    1.25
 -11  13  -6   12.87    1.15
 -11  13  -5    1.18    1.37
  11 -13   5    0.82    0.82
 -11  13  -5    0.12    0.67
 -11  13  -4    3.20    1.63
  11 -13   4    2.93    0.79
 -11  13  -4    1.89    0.73
 -11  13  -3    2.63    1.56
  11 -13   3    1.75    0.79
 -11  13  -3    1.00    0.71
  11 -13   2   45.28    5.82
 -11  13  -2   43.84    5.61
  11 -13   2   42.31    2.52
 -11  13  -2   40.99    2.44
  11 -13   1    2.92    1.57
 -11  13  -1    4.08    1.55
  11 -13   1    2.92    0.71
 -11  13  -1    1.54    0.69
  11 -13   0   33.27    4.47
 -11  13   0   27.04    3.75
  11 -13   0   33.69    2.08
 -11  13   0   31.28    1.90
  11 -13  -1    1.66    1.69
 -11  13   1   -0.96    1.66
  11 -13  -1   -0.40    0.63
 -11  13   1    0.59    0.69
  11 -13  -2   -0.33    1.64
 -11  13   2   -1.39    1.85
  11 -13  -2    0.76    0.67
 -11  13   2    1.93    0.65
  11 -13  -3    2.22    1.70
 -11  13   3    1.41    1.57
  11 -13  -3    0.69    0.64
 -11  13   3    0.46    0.62
  11 -13  -4   20.69    3.12
 -11  13   4   18.52    3.00
  11 -13  -4   17.67    1.35
 -11  13   4   15.42    1.22
  11 -13  -5    0.36    1.66
 -11  13   5   -0.12    1.53
  11 -13  -5   -0.20    0.73
 -11  13   5    0.02    0.62
  11 -13  -6   72.98    9.12
 -11  13   6   74.44    9.28
  11 -13  -6   76.92    4.35
 -11  13   6   69.52    4.00
  11 -13  -7    2.36    1.71
 -11  13   7    1.43    1.71
  11 -13  -7    1.17    0.77
 -11  13   7    0.53    0.63
  11 -13  -8   13.88    2.51
 -11  13   8   10.63    2.03
  11 -13  -8    7.85    0.96
 -11  13   8    6.61    0.82
  11 -13  -9    0.01    1.75
 -11  13   9    0.83    1.40
  11 -13  -9    0.91    0.78
 -11  13   9    1.32    0.67
  11 -13 -10   14.75    2.77
  11 -13 -10   13.16    1.15
 -11  13  10   14.96    1.21
  11 -13 -11   11.50    2.41
  11 -13 -11   17.40    1.33
 -11  13  11   16.33    1.25
  11 -13 -12   65.63    8.35
  11 -13 -12   60.01    3.43
 -11  13  12   60.12    3.46
  11 -13 -13    1.36    1.96
  11 -13 -13    1.08    0.65
 -11  13  13    0.29    0.57
  11 -13 -14    1.03    1.77
  11 -13 -14    5.37    0.74
 -11  13  14    4.61    0.71
  11 -13 -15   -1.02    1.77
  11 -13 -15    0.76    0.65
  11 -13 -16    6.79    2.37
  11 -13 -16    4.66    0.71
  11 -13 -17    0.85    2.26
  11 -13 -17    1.30    0.71
  11 -13 -18   28.39    4.18
  11 -13 -18   31.07    1.93
 -12  12  -8   -0.05    1.26
 -12  12  -7   20.31    2.95
  12 -12   7   21.73    1.44
  12 -12   7   23.11    1.58
 -12  12  -6    0.70    1.39
  12 -12   6    0.42    0.78
 -12  12  -5   -0.32    1.51
  12 -12   5    0.99    0.88
 -12  12  -4   32.25    4.32
  12 -12   4   34.03    2.10
 -12  12  -4   34.23    2.09
  12 -12   3   21.42    3.18
 -12  12  -3   18.05    2.84
  12 -12   3   16.61    1.33
 -12  12  -3   18.10    1.32
  12 -12   2    1.10    1.51
 -12  12  -2   -1.39    1.61
  12 -12   2    1.00    0.75
 -12  12  -2    0.18    0.75
  12 -12   1   29.17    3.98
 -12  12  -1   32.93    4.40
  12 -12   1   36.12    2.20
 -12  12  -1   35.60    2.15
  12 -12   0   18.74    2.97
 -12  12   0   15.60    2.66
  12 -12   0   13.63    1.09
 -12  12   0   14.10    1.11
  12 -12  -1    1.20    1.72
 -12  12   1   -0.14    1.66
  12 -12  -1    2.43    0.69
 -12  12   1    0.97    0.62
  12 -12  -2   30.99    4.32
 -12  12   2   40.92    5.37
  12 -12  -2   37.27    2.26
 -12  12   2   36.54    2.25
  12 -12  -3    2.82    1.83
 -12  12   3    2.85    1.56
  12 -12  -3    3.66    0.76
 -12  12   3    3.24    0.69
  12 -12  -4    5.20    1.90
 -12  12   4    4.42    1.90
  12 -12  -4    4.42    0.73
 -12  12   4    3.94    0.76
  12 -12  -5   52.18    6.65
 -12  12   5   52.65    6.76
  12 -12  -5   53.65    3.14
 -12  12   5   49.55    2.89
  12 -12  -6    4.68    1.80
 -12  12   6    1.51    1.77
  12 -12  -6    2.17    0.68
 -12  12   6    2.61    0.70
  12 -12  -7   71.97    9.02
 -12  12   7   71.15    8.92
  12 -12  -7   72.98    4.15
 -12  12   7   75.72    4.33
  12 -12  -8   55.45    7.13
 -12  12   8   50.66    6.48
  12 -12  -8   49.74    2.92
 -12  12   8   48.54    2.81
  12 -12  -9   12.76    2.52
 -12  12   9   16.20    2.70
  12 -12  -9   15.59    1.23
 -12  12   9   13.50    1.17
  12 -12 -10   14.39    2.56
 -12  12  10   12.76    2.23
  12 -12 -10   15.89    1.23
 -12  12  10   16.67    1.23
  12 -12 -11    6.33    2.22
  12 -12 -11    8.89    0.93
 -12  12  11    7.98    0.94
  12 -12 -12   -0.17    2.00
  12 -12 -12    0.48    0.70
 -12  12  12    1.63    0.75
  12 -12 -13   21.36    3.43
  12 -12 -13   22.73    1.54
 -12  12  13   23.23    1.56
  12 -12 -14   10.61    2.21
  12 -12 -14    8.57    0.88
  12 -12 -15   -0.24    1.87
  12 -12 -15   -0.78    0.65
  12 -12 -16   13.49    2.69
  12 -12 -16   10.56    0.93
  12 -12 -17   15.37    3.00
  12 -12 -17    9.72    0.91
  12 -12 -18    5.14    2.08
  12 -12 -18    4.87    0.75
  12 -12 -18    5.17    0.68
  12 -12 -19    8.08    2.50
  12 -12 -19    9.02    0.85
  12 -12 -19    9.16    0.96
 -13  11  -8   -0.61    1.42
 -13  11  -7    1.17    1.50
 -13  11  -6   -0.90    1.63
  13 -11   6    0.39    0.70
  13 -11   6    0.44    0.78
 -13  11  -5   50.38    6.40
  13 -11   5   42.34    2.51
  13 -11   5   41.51    2.46
 -13  11  -4    0.03    1.47
  13 -11   4    0.82    0.70
  13 -11   3   19.66    3.03
 -13  11  -3   15.37    2.63
  13 -11   3   22.85    1.56
  13 -11   2    6.27    2.03
 -13  11  -2    7.77    1.83
  13 -11   2    7.39    0.90
  13 -11   1    6.97    1.93
 -13  11  -1    6.07    1.81
  13 -11   1    4.97    0.81
 -13  11  -1    4.75    0.76
  13 -11   0    7.23    1.93
 -13  11   0    5.73    1.67
  13 -11   0    9.73    0.92
 -13  11   0    7.73    0.91
  13 -11  -1   69.66    8.72
 -13  11   1   63.45    7.97
  13 -11  -1   66.29    3.76
 -13  11   1   65.75    3.72
  13 -11  -2    2.57    1.80
 -13  11   2    1.58    1.76
  13 -11  -2    0.81    0.71
 -13  11   2    0.96    0.73
  13 -11  -3   32.48    4.44
 -13  11   3   31.45    4.28
  13 -11  -3   36.02    2.21
 -13  11   3   37.09    2.25
  13 -11  -4    2.79    1.96
 -13  11   4    4.01    1.75
  13 -11  -4    3.40    0.73
 -13  11   4    2.65    0.69
  13 -11  -5   16.58    2.75
 -13  11   5   14.94    2.68
  13 -11  -5   17.99    1.34
 -13  11   5   19.79    1.43
  13 -11  -6   -1.65    1.70
 -13  11   6    1.16    1.73
  13 -11  -6    1.70    0.64
 -13  11   6    1.25    0.67
  13 -11  -7   14.26    2.59
 -13  11   7   18.20    2.83
  13 -11  -7   14.29    1.20
 -13  11   7   17.45    1.32
  13 -11  -8   15.70    2.72
 -13  11   8   19.44    3.09
  13 -11  -8   16.70    1.27
 -13  11   8   18.03    1.39
  13 -11  -9   33.40    4.66
 -13  11   9   31.79    4.28
  13 -11  -9   37.99    2.31
 -13  11   9   39.99    2.42
  13 -11 -10    2.20    1.82
 -13  11  10    2.61    1.75
  13 -11 -10    1.76    0.75
 -13  11  10    1.83    0.79
  13 -11 -11    2.17    2.09
  13 -11 -11    5.22    0.81
 -13  11  11    5.17    0.77
  13 -11 -12   -0.42    2.15
  13 -11 -12    0.16    0.69
  13 -11 -13    1.82    1.76
  13 -11 -13   -0.35    0.71
  13 -11 -14    0.08    1.84
  13 -11 -14    0.60    0.72
  13 -11 -15   19.58    3.06
  13 -11 -15   19.46    1.37
  13 -11 -16   -0.88    1.91
  13 -11 -16    0.67    0.67
  13 -11 -17    5.49    2.48
  13 -11 -17    8.42    0.91
  13 -11 -17    7.92    0.88
  13 -11 -18    2.44    2.08
  13 -11 -18    0.12    0.65
  13 -11 -18    0.83    0.64
  13 -11 -19   -2.39    2.21
  13 -11 -19    1.31    0.64
  13 -11 -19    0.74    0.62
 -14  10  -7    5.90    1.78
 -14  10  -6    0.65    1.70
 -14  10  -5    5.24    1.71
  14 -10   5    2.97    0.74
  14 -10   5    2.87    0.69
 -14  10  -4   40.95    5.40
  14 -10   4   37.62    2.28
  14 -10   4   37.02    2.24
  14 -10   3   25.76    3.89
 -14  10  -3   24.01    3.42
  14 -10   3   21.35    1.47
  14 -10   3   21.07    1.46
  14 -10   2    5.27    1.94
 -14  10  -2    4.40    1.75
  14 -10   2    5.96    0.84
  14 -10   2    5.49    0.77
  14 -10   1    7.30    2.10
 -14  10  -1    8.28    2.01
  14 -10   1    9.53    0.97
  14 -10   0    4.05    2.13
 -14  10   0    6.14    1.70
  14 -10   0    5.60    0.78
  14 -10  -1   -0.48    2.10
 -14  10   1   -0.75    1.61
  14 -10  -1   -0.44    0.63
  14 -10  -2   39.14    5.43
 -14  10   2   40.41    5.37
  14 -10  -2   41.85    2.50
  14 -10  -3   34.92    4.80
 -14  10   3   30.85    4.34
  14 -10  -3   22.87    1.57
  14 -10  -4    4.31    1.85
 -14  10   4    3.33    1.74
  14 -10  -4    1.71    0.68
  14 -10  -5   22.23    3.41
 -14  10   5   21.30    3.20
  14 -10  -5   17.30    1.29
  14 -10  -6    3.17    1.95
 -14  10   6    2.37    1.63
  14 -10  -6    3.97    0.78
  14 -10  -7   10.66    2.41
 -14  10   7   10.06    2.25
  14 -10  -7   15.31    1.24
  14 -10  -8   10.42    2.62
 -14  10   8   12.95    2.54
  14 -10  -8   12.09    1.10
  14 -10  -9   14.77    2.82
 -14  10   9   10.39    2.14
  14 -10  -9    8.94    0.93
  14 -10 -10    1.99    2.01
 -14  10  10    4.06    1.81
  14 -10 -10    2.75    0.75
  14 -10 -11   41.49    5.61
 -14  10  11   45.87    5.94
  14 -10 -11   34.41    2.12
  14 -10 -12    9.64    2.44
  14 -10 -12    5.01    0.72
  14 -10 -13   19.48    3.23
  14 -10 -13   16.25    1.26
  14 -10 -14    3.32    1.85
  14 -10 -14    3.79    0.72
  14 -10 -15    1.33    1.94
  14 -10 -15    1.51    0.68
  14 -10 -15    0.84    0.55
  14 -10 -16    5.22    2.32
  14 -10 -16    5.73    0.81
  14 -10 -16    6.21    0.73
  14 -10 -17    1.49    2.07
  14 -10 -17    0.75    0.70
  14 -10 -17    1.48    0.66
  14 -10 -18    8.93    2.55
  14 -10 -18    4.75    0.78
  14 -10 -18    3.62    0.71
  14 -10 -19    8.07    2.17
  14 -10 -19    7.12    0.89
  14 -10 -19    6.30    0.75
 -15   9  -7    0.26    1.47
 -15   9  -6    8.55    1.77
 -15   9  -5    7.16    1.83
 -15   9  -4    0.48    1.58
  15  -9   4    1.74    0.73
  15  -9   4    1.28    0.71
  15  -9   3   -0.01    2.04
 -15   9  -3   -0.92    1.50
  15  -9   3    1.06    0.80
  15  -9   3    0.48    0.71
  15  -9   2   35.43    4.82
 -15   9  -2   34.13    4.51
  15  -9   2   32.82    2.03
  15  -9   2   34.18    2.10
  15  -9   1    0.22    1.74
 -15   9  -1    0.00    1.44
  15  -9   1    0.86    0.70
  15  -9   1    0.69    0.73
  15  -9   0   11.38    2.52
 -15   9   0   10.32    2.21
  15  -9   0   12.40    1.08
  15  -9   0   11.77    1.00
  15  -9  -1    3.33    1.85
 -15   9   1    3.50    1.68
  15  -9  -1    2.77    0.70
  15  -9  -1    2.32    0.65
  15  -9  -2   -0.02    1.99
 -15   9   2    1.00    1.91
  15  -9  -2    0.70    0.75
  15  -9  -2    0.50    0.58
  15  -9  -3    4.18    2.32
 -15   9   3    2.65    1.99
  15  -9  -3    2.34    0.68
  15  -9  -4  122.40   15.10
 -15   9   4  113.70   13.99
  15  -9  -4   96.22    5.36
  15  -9  -5   10.08    2.69
 -15   9   5    8.87    2.28
  15  -9  -5   11.42    1.04
  15  -9  -6   25.60    4.00
 -15   9   6   26.52    3.77
  15  -9  -6   29.54    1.87
  15  -9  -7    5.36    2.47
 -15   9   7    8.26    2.06
  15  -9  -7    5.18    0.75
  15  -9  -8    0.70    1.99
 -15   9   8    2.87    1.88
  15  -9  -8    2.64    0.73
  15  -9  -9    1.77    2.30
 -15   9   9   -1.16    1.78
  15  -9  -9    1.32    0.69
  15  -9 -10   11.67    2.50
 -15   9  10    8.86    2.22
  15  -9 -10    7.17    0.89
  15  -9 -11    3.80    2.23
 -15   9  11    2.39    1.70
  15  -9 -11    1.89    0.73
  15  -9 -12   89.81   11.22
  15  -9 -12   86.19    4.82
  15  -9 -12   78.97    4.43
  15  -9 -13    2.06    2.30
  15  -9 -13   -0.02    0.63
  15  -9 -13    0.97    0.58
  15  -9 -14   24.57    3.80
  15  -9 -14   27.98    1.80
  15  -9 -14   27.74    1.75
  15  -9 -15    1.19    2.07
  15  -9 -15    0.71    0.75
  15  -9 -15    1.58    0.72
  15  -9 -16    0.05    2.19
  15  -9 -16   -0.68    0.63
  15  -9 -16    0.72    0.59
  15  -9 -17   -1.98    2.32
  15  -9 -17    0.46    0.73
  15  -9 -17   -0.85    0.66
  15  -9 -18    4.70    2.13
  15  -9 -18    3.68    0.78
  15  -9 -18    3.30    0.66
  15  -9 -19    0.18    2.06
  15  -9 -19    0.45    0.75
  15  -9 -19    0.58    0.59
  15  -9 -20   10.70    2.76
  15  -9 -20   11.35    1.09
  15  -9 -20   11.55    0.95
 -16   8  -6    4.19    1.60
 -16   8  -5    0.75    1.54
 -16   8  -4   19.16    3.11
  16  -8   3    1.43    1.66
 -16   8  -3    0.22    1.46
  16  -8   3    0.32    0.79
  16  -8   3    0.39    0.76
  16  -8   2    2.11    2.09
 -16   8  -2    2.93    1.62
  16  -8   2    5.47    0.86
  16  -8   2    6.01    0.84
  16  -8   1    8.84    2.38
 -16   8  -1    9.14    1.98
  16  -8   1    8.63    0.93
  16  -8   1    7.16    0.87
  16  -8   0    0.77    1.90
 -16   8   0    2.45    1.58
  16  -8   0    1.82    0.69
  16  -8   0    0.68    0.70
  16  -8  -1    0.32    2.17
 -16   8   1    1.53    1.63
  16  -8  -1    0.48    0.78
  16  -8  -1    0.38    0.68
  16  -8  -2   37.83    5.39
 -16   8   2   52.00    6.68
  16  -8  -2   44.74    2.64
  16  -8  -2   46.01    2.68
  16  -8  -3   -0.55    2.53
 -16   8   3   -2.59    1.95
  16  -8  -3    0.92    0.72
  16  -8  -3    0.58    0.65
  16  -8  -4   36.42    5.15
 -16   8   4   32.88    4.51
  16  -8  -4   42.59    2.55
  16  -8  -4   39.47    2.37
  16  -8  -5   50.53    6.90
 -16   8   5   53.88    6.97
  16  -8  -5   52.22    3.02
  16  -8  -5   53.80    3.11
  16  -8  -6    0.51    2.59
 -16   8   6    2.51    2.01
  16  -8  -6    0.33    0.62
  16  -8  -6    0.85    0.66
  16  -8  -7    1.34    2.35
 -16   8   7    0.68    1.89
  16  -8  -7   -0.01    0.72
  16  -8  -7   -0.54    0.65
  16  -8  -8   22.45    3.61
 -16   8   8   21.87    3.44
  16  -8  -8   22.91    1.56
  16  -8  -8   19.80    1.37
  16  -8  -9    0.93    2.34
 -16   8   9   -0.66    1.97
  16  -8  -9    0.47    0.66
  16  -8  -9    0.03    0.70
  16  -8 -10   16.90    3.30
 -16   8  10   17.40    3.00
  16  -8 -10   20.09    1.44
  16  -8 -10   17.57    1.25
  16  -8 -11   -1.11    2.21
 -16   8  11   -2.35    1.89
  16  -8 -11   -0.57    0.72
  16  -8 -11    0.78    0.64
  16  -8 -12    1.75    2.25
 -16   8  12    1.69    1.73
  16  -8 -12    4.73    0.84
  16  -8 -12    5.76    0.70
  16  -8 -13   11.64    2.90
  16  -8 -13   16.59    1.27
  16  -8 -13   18.07    1.30
  16  -8 -14    5.42    2.23
  16  -8 -14    4.57    0.89
  16  -8 -14    4.31    0.69
  16  -8 -15    3.61    2.34
  16  -8 -15    2.87    0.77
  16  -8 -15    3.06    0.62
  16  -8 -16    6.01    2.30
  16  -8 -16    8.08    0.93
  16  -8 -16    8.85    0.87
  16  -8 -17   -1.87    2.22
  16  -8 -17    1.63    0.68
  16  -8 -17    1.34    0.67
  16  -8 -18    2.85    2.07
  16  -8 -18    0.91    0.79
  16  -8 -18    2.37    0.67
  16  -8 -19    1.36    2.01
  16  -8 -19    1.43    0.82
  16  -8 -19    0.63    0.66
  16  -8 -20   -0.01    2.23
  16  -8 -20    1.01    0.78
  16  -8 -20    0.38    0.65
 -17   7  -5   11.12    2.05
 -17   7  -4    0.91    1.41
  17  -7   3   14.42    2.57
 -17   7  -3    7.76    2.23
  17  -7   3    9.14    0.92
  17  -7   3   10.60    0.96
  17  -7   2    3.05    1.94
 -17   7  -2    6.48    2.13
  17  -7   2    4.76    0.83
  17  -7   2    3.87    0.88
  17  -7   1   -0.07    1.91
 -17   7  -1    3.42    1.87
  17  -7   1    0.88    0.80
  17  -7   1    0.30    0.75
  17  -7   0    4.00    1.89
 -17   7   0    5.57    1.91
  17  -7   0    2.05    0.76
  17  -7   0    3.31    0.76
  17  -7  -1    9.94    2.31
 -17   7   1   11.13    2.37
  17  -7  -1    7.97    0.91
  17  -7  -1    7.92    0.89
  17  -7  -2    7.20    2.32
 -17   7   2   10.19    2.40
  17  -7  -2    7.33    0.94
  17  -7  -2    5.81    0.80
  17  -7  -3   32.68    4.72
 -17   7   3   30.42    4.22
  17  -7  -3   38.08    2.31
  17  -7  -3   38.46    2.29
  17  -7  -4    1.71    2.02
 -17   7   4   -0.11    1.75
  17  -7  -4    0.19    0.66
  17  -7  -4    0.56    0.65
  17  -7  -5   16.49    3.44
 -17   7   5   14.46    2.75
  17  -7  -5   22.45    1.53
  17  -7  -5   21.97    1.48
  17  -7  -6    4.58    2.59
 -17   7   6    3.53    2.08
  17  -7  -6    1.95    0.75
  17  -7  -6    1.30    0.66
  17  -7  -7   20.10    3.58
 -17   7   7   25.10    3.72
  17  -7  -7   19.28    1.38
  17  -7  -7   18.44    1.31
  17  -7  -8   30.89    4.59
 -17   7   8   27.92    4.01
  17  -7  -8   30.19    1.94
  17  -7  -8   31.93    1.99
  17  -7  -9   16.73    3.49
 -17   7   9   14.39    2.83
  17  -7  -9   16.47    1.28
  17  -7  -9   14.84    1.14
  17  -7 -10   -0.70    2.55
 -17   7  10    1.10    1.89
  17  -7 -10    0.33    0.69
  17  -7 -10    0.85    0.61
  17  -7 -11    1.21    2.43
 -17   7  11    1.52    1.69
  17  -7 -11    2.12    0.79
  17  -7 -11    2.43    0.62
  17  -7 -12    4.04    2.64
 -17   7  12    3.81    1.83
  17  -7 -12    3.87    0.86
  17  -7 -12    4.49    0.77
  17  -7 -13    1.34    2.38
  17  -7 -13    1.59    0.66
  17  -7 -13    0.90    0.61
  17  -7 -14    2.83    2.32
  17  -7 -14    3.59    0.84
  17  -7 -14    3.46    0.68
  17  -7 -15   12.73    2.71
  17  -7 -15   13.70    1.18
  17  -7 -15   14.12    1.08
  17  -7 -16   -1.92    2.30
  17  -7 -16    0.21    0.65
  17  -7 -16    0.01    0.57
  17  -7 -17    7.62    2.29
  17  -7 -17    9.43    1.04
  17  -7 -17   10.13    0.89
  17  -7 -18   -1.30    2.11
  17  -7 -18    0.90    0.78
  17  -7 -18    1.32    0.67
  17  -7 -19   -1.11    2.05
  17  -7 -19   -0.33    0.79
  17  -7 -19    0.30    0.61
  17  -7 -20    3.23    2.28
  17  -7 -20    0.21    0.77
  17  -7 -20    0.59    0.62
 -18   6  -4    2.52    1.80
 -18   6  -3   10.18    1.99
  18  -6   2    3.19    2.11
 -18   6  -2    3.38    1.92
  18  -6   2    2.26    0.79
  18  -6   2    1.50    0.84
  18  -6   1    8.38    2.32
 -18   6  -1   11.28    2.59
  18  -6   1   10.95    1.02
  18  -6   1    9.32    1.00
  18  -6   0   11.13    2.62
 -18   6   0   13.83    2.87
  18  -6   0    7.49    0.92
  18  -6   0    7.01    0.96
  18  -6  -1   24.89    3.78
 -18   6   1   24.09    3.74
  18  -6  -1   24.88    1.64
  18  -6  -1   26.02    1.70
  18  -6  -2    2.96    2.46
 -18   6   2    2.07    1.91
  18  -6  -2    4.31    0.82
  18  -6  -2    3.66    0.74
  18  -6  -3   -0.66    2.53
 -18   6   3   -2.64    2.14
  18  -6  -3    0.83    0.70
  18  -6  -3    0.71    0.69
  18  -6  -4    0.54    2.17
 -18   6   4   -0.03    2.16
  18  -6  -4    1.07    0.73
  18  -6  -4   -0.34    0.63
  18  -6  -5    5.35    2.59
 -18   6   5    3.99    2.35
  18  -6  -5    6.33    0.84
  18  -6  -5    7.89    0.87
  18  -6  -6    2.30    2.30
 -18   6   6    5.93    2.13
  18  -6  -6    3.55    0.77
  18  -6  -6    1.73    0.69
  18  -6  -7   45.07    6.18
 -18   6   7   47.27    6.20
  18  -6  -7   43.71    2.62
  18  -6  -7   41.64    2.46
  18  -6  -8   25.13    4.15
 -18   6   8   23.02    3.57
  18  -6  -8   25.51    1.70
  18  -6  -8   25.91    1.68
  18  -6  -9    1.56    2.49
 -18   6   9    2.47    1.87
  18  -6  -9    4.23    0.76
  18  -6  -9    5.22    0.76
  18  -6 -10   -0.89    2.33
 -18   6  10    1.48    1.91
  18  -6 -10    2.48    0.71
  18  -6 -10    2.64    0.66
  18  -6 -11   11.09    2.76
 -18   6  11   11.35    2.52
  18  -6 -11    9.03    0.96
  18  -6 -11    9.40    0.90
  18  -6 -12   -0.94    2.40
 -18   6  12    0.07    1.79
  18  -6 -12    0.29    0.75
  18  -6 -12   -0.08    0.60
  18  -6 -13   12.66    3.09
  18  -6 -13   15.81    1.21
  18  -6 -13   13.41    1.12
  18  -6 -14   -0.99    2.26
  18  -6 -14    0.57    0.75
  18  -6 -14    0.48    0.57
  18  -6 -15   10.21    2.96
  18  -6 -15   10.11    1.01
  18  -6 -15   10.15    0.90
  18  -6 -16    2.51    2.42
  18  -6 -16    2.03    0.74
  18  -6 -16    1.55    0.67
  18  -6 -17    1.20    2.44
  18  -6 -17   -0.73    0.77
  18  -6 -17    0.11    0.67
  18  -6 -18   -0.91    2.16
  18  -6 -18    0.28    0.78
  18  -6 -18    2.19    0.66
  18  -6 -19    7.61    2.17
  18  -6 -19    5.15    0.89
  18  -6 -19    4.99    0.70
 -19   5  -3    2.90    1.66
  19  -5   2    9.41    2.02
 -19   5  -2    8.73    2.09
  19  -5   2    6.16    0.88
  19  -5   2    4.98    0.85
  19  -5   1    1.77    1.79
 -19   5  -1    2.62    1.80
  19  -5   1    1.76    0.81
  19  -5   1    1.86    0.92
  19  -5   0    6.44    1.92
 -19   5   0    8.71    2.32
  19  -5  -1   -1.26    2.45
 -19   5   1    1.19    2.06
  19  -5  -1    1.03    0.76
  19  -5  -1    0.33    0.93
  19  -5  -2    9.82    2.85
 -19   5   2    7.04    2.56
  19  -5  -2   15.46    1.21
  19  -5  -2   13.63    1.16
  19  -5  -3    1.35    2.30
 -19   5   3    2.30    2.16
  19  -5  -3    1.80    0.74
  19  -5  -3    0.62    0.74
  19  -5  -4    8.49    2.92
 -19   5   4    6.23    2.43
  19  -5  -4    5.96    0.88
  19  -5  -4    6.82    0.89
  19  -5  -5    3.57    2.23
 -19   5   5    2.29    2.29
  19  -5  -5    3.14    0.80
  19  -5  -5    1.96    0.66
  19  -5  -6   10.58    3.14
 -19   5   6    9.30    2.60
  19  -5  -6   10.79    1.05
  19  -5  -6   12.68    1.06
  19  -5  -7    2.35    2.43
 -19   5   7    0.77    2.25
  19  -5  -7    1.81    0.76
  19  -5  -7    1.26    0.59
  19  -5  -8   51.17    7.04
 -19   5   8   47.56    6.36
  19  -5  -8   47.41    2.79
  19  -5  -8   51.56    2.96
  19  -5  -9    2.53    2.49
 -19   5   9    4.35    2.29
  19  -5  -9    2.57    0.65
  19  -5  -9    3.58    0.70
  19  -5 -10    3.78    2.54
 -19   5  10    2.75    2.44
  19  -5 -10    0.98    0.72
  19  -5 -10    0.69    0.59
  19  -5 -11    6.35    2.68
 -19   5  11    4.54    2.26
  19  -5 -11    4.37    0.74
  19  -5 -11    4.12    0.70
  19  -5 -12   17.23    3.31
 -19   5  12   17.48    3.12
  19  -5 -12   17.33    1.31
  19  -5 -12   14.43    1.13
  19  -5 -13   -1.44    2.43
  19  -5 -13   -1.22    0.71
  19  -5 -13    0.07    0.57
  19  -5 -14    4.86    2.96
  19  -5 -14    5.33    0.82
  19  -5 -14    4.43    0.67
  19  -5 -15    0.89    2.45
  19  -5 -15    1.94    0.69
  19  -5 -15    2.28    0.62
  19  -5 -16   -2.25    2.27
  19  -5 -16    0.64    0.70
  19  -5 -16   -0.10    0.65
  19  -5 -17    3.89    2.15
  19  -5 -17    1.94    0.67
  19  -5 -17    2.56    0.65
  19  -5 -18    1.01    2.13
  19  -5 -18    1.38    0.75
  19  -5 -18    1.67    0.61
  19  -5 -19    0.87    2.13
  19  -5 -19    1.50    0.75
  19  -5 -19    1.03    0.66
  20  -4   1   -0.96    1.67
 -20   4  -1   -0.62    1.75
  20  -4   1    0.04    0.74
  20  -4   1    0.36    0.87
  20  -4   0   -0.64    1.74
 -20   4   0    0.51    1.86
  20  -4   0    0.01    0.77
  20  -4   0    0.38    0.95
  20  -4  -1   -1.52    1.96
 -20   4   1   -1.14    2.18
  20  -4  -1    0.65    0.91
  20  -4  -1    0.07    0.89
  20  -4  -2   16.08    3.29
 -20   4   2   18.47    3.27
  20  -4  -2   14.64    1.20
  20  -4  -2   15.31    1.29
  20  -4  -3    2.62    2.63
 -20   4   3   -0.24    2.09
  20  -4  -3    3.50    0.83
  20  -4  -3    2.21    0.85
  20  -4  -4    4.78    2.59
 -20   4   4    5.51    2.48
  20  -4  -4    6.77    0.98
  20  -4  -4    7.14    1.00
  20  -4  -5   -1.36    2.34
 -20   4   5   -0.47    2.25
  20  -4  -5    1.03    0.84
  20  -4  -5    0.32    0.74
  20  -4  -6    0.24    2.42
 -20   4   6   -2.44    2.13
  20  -4  -6    1.31    0.80
  20  -4  -6    1.86    0.68
  20  -4  -7   -0.51    2.54
 -20   4   7   -1.54    2.16
  20  -4  -7   -0.16    0.71
  20  -4  -7   -0.12    0.59
  20  -4  -8    5.87    2.67
 -20   4   8    9.85    2.49
  20  -4  -8    5.19    0.74
  20  -4  -8    5.56    0.76
  20  -4  -9    5.45    2.71
 -20   4   9    4.44    2.55
  20  -4  -9    5.88    0.79
  20  -4  -9    5.60    0.76
  20  -4 -10   29.55    4.82
 -20   4  10   24.91    4.15
  20  -4 -10   26.83    1.74
  20  -4 -10   24.79    1.57
  20  -4 -11    3.91    2.90
 -20   4  11    4.07    2.46
  20  -4 -11    2.98    0.86
  20  -4 -11    3.46    0.72
  20  -4 -12    6.10    2.80
 -20   4  12    6.61    2.72
  20  -4 -12    7.67    0.91
  20  -4 -12    9.94    0.93
  20  -4 -13    1.83    2.32
  20  -4 -13    3.31    0.82
  20  -4 -13    1.58    0.67
  20  -4 -14    3.74    2.93
  20  -4 -14    3.13    0.77
  20  -4 -14    3.99    0.72
  20  -4 -15    0.05    2.74
  20  -4 -15    1.27    0.81
  20  -4 -15    0.35    0.55
  20  -4 -16   10.80    2.79
  20  -4 -16   10.64    1.03
  20  -4 -16   10.25    0.95
  20  -4 -17    2.00    2.01
  20  -4 -17   -0.02    0.78
  20  -4 -17    0.46    0.59
  20  -4 -18    5.11    2.11
  20  -4 -18    6.95    0.87
  20  -4 -18    5.24    0.69
  20  -4 -19    2.66    1.85
  20  -4 -19    0.09    0.66
  20  -4 -19    0.80    0.57
  21  -3   0    4.99    2.04
 -21   3   0    5.19    2.36
  21  -3   0    4.37    0.85
  21  -3   0    5.73    1.07
  21  -3  -1   -1.21    2.03
 -21   3   1   -1.43    1.70
  21  -3  -1    0.80    0.96
  21  -3  -1    0.03    0.95
  21  -3  -2    3.96    1.85
 -21   3   2    2.76    1.81
  21  -3  -2    4.68    0.95
  21  -3  -2    5.01    1.08
  21  -3  -3   13.98    2.98
 -21   3   3   15.88    3.03
  21  -3  -3   14.02    1.25
  21  -3  -3   14.26    1.32
  21  -3  -4    2.72    2.33
 -21   3   4   -1.79    2.12
  21  -3  -4    0.90    0.93
  21  -3  -4    0.83    0.80
  21  -3  -5    2.61    2.77
 -21   3   5    0.45    2.39
  21  -3  -5    4.34    0.96
  21  -3  -5    4.87    0.92
  21  -3  -6    5.58    2.86
 -21   3   6    8.41    2.51
  21  -3  -6    5.16    0.88
  21  -3  -6    5.30    0.81
  21  -3  -7   -3.35    2.64
 -21   3   7   -2.89    2.23
  21  -3  -7    0.75    0.77
  21  -3  -7    1.33    0.71
  21  -3  -8    5.21    2.78
 -21   3   8    3.60    2.29
  21  -3  -8    3.32    0.75
  21  -3  -8    2.07    0.73
  21  -3  -9    6.26    2.64
 -21   3   9    8.78    2.60
  21  -3  -9    6.90    0.87
  21  -3  -9    6.61    0.87
  21  -3 -10   -2.76    2.44
 -21   3  10    1.30    2.24
  21  -3 -10   -0.69    0.81
  21  -3 -10    0.38    0.62
  21  -3 -11   16.35    3.46
 -21   3  11   18.12    3.52
  21  -3 -11   22.41    1.59
  21  -3 -11   20.15    1.36
  21  -3 -12    2.84    2.77
 -21   3  12   -0.86    2.49
  21  -3 -12    0.15    0.80
  21  -3 -12   -0.24    0.55
  21  -3 -13    1.14    2.63
  21  -3 -13    2.10    0.78
  21  -3 -13    2.04    0.61
  21  -3 -14    4.09    2.29
  21  -3 -14    3.86    0.83
  21  -3 -14    5.66    0.73
  21  -3 -15    6.04    2.86
  21  -3 -15    3.33    0.88
  21  -3 -15    3.27    0.68
  21  -3 -16    1.50    1.98
  21  -3 -16    1.55    0.82
  21  -3 -16    0.16    0.56
  21  -3 -17    4.20    2.06
  21  -3 -17    5.13    0.94
  21  -3 -17    5.94    0.76
  21  -3 -18   -0.08    1.99
  21  -3 -18    1.07    0.74
  21  -3 -18   -0.42    0.57
  22  -2  -2    0.14    2.05
  22  -2  -2    0.24    1.11
  22  -2  -2    0.85    0.97
  22  -2  -3   -2.62    2.20
 -22   2   3   -0.56    2.40
  22  -2  -3    2.51    0.99
  22  -2  -3    2.30    1.00
  22  -2  -4    2.27    2.35
 -22   2   4    1.62    2.30
  22  -2  -4    0.53    0.99
  22  -2  -4    0.54    0.93
  22  -2  -5   -3.37    2.75
 -22   2   5   -1.98    2.22
  22  -2  -5   -0.77    0.85
  22  -2  -5    0.76    0.89
  22  -2  -6    3.26    2.70
 -22   2   6    0.81    2.26
  22  -2  -6    1.87    0.82
  22  -2  -6    1.14    0.84
  22  -2  -7    9.81    2.92
 -22   2   7   18.45    3.45
  22  -2  -7   18.02    1.34
  22  -2  -7   16.68    1.30
  22  -2  -8    0.92    3.05
 -22   2   8    0.79    2.25
  22  -2  -8    0.65    0.84
  22  -2  -8    0.50    0.72
  22  -2  -9    4.43    3.13
 -22   2   9   -0.98    2.64
  22  -2  -9    3.26    0.88
  22  -2  -9    3.15    0.79
  22  -2 -10   -1.07    3.06
 -22   2  10    1.51    2.30
  22  -2 -10   -0.03    0.83
  22  -2 -10   -0.18    0.69
  22  -2 -11    0.16    2.84
 -22   2  11    1.28    2.23
  22  -2 -11    0.26    0.78
  22  -2 -11    0.65    0.69
  22  -2 -12    1.62    2.86
 -22   2  12   -0.76    2.15
  22  -2 -12    1.87    0.86
  22  -2 -12    0.06    0.70
  22  -2 -13    2.33    2.77
  22  -2 -13    1.81    0.87
  22  -2 -13    1.24    0.70
  22  -2 -14    0.11    1.94
  22  -2 -14    0.13    0.83
  22  -2 -14   -0.07    0.59
  22  -2 -15    2.98    2.09
  22  -2 -15    5.81    0.98
  22  -2 -15    6.09    0.75
  22  -2 -16    2.48    2.47
  22  -2 -16    1.12    0.83
  22  -2 -16    0.58    0.60
  22  -2 -17   -0.96    2.19
  22  -2 -17    0.01    0.86
  22  -2 -17    0.30    0.61
  23  -1  -5    0.34    2.13
 -23   1   5    2.11    2.26
  23  -1  -5    1.05    0.97
  23  -1  -5    1.05    0.94
  23  -1  -6    1.41    2.50
 -23   1   6    1.31    2.08
  23  -1  -6    1.68    0.91
  23  -1  -6    1.92    0.98
  23  -1  -7   -0.98    2.40
 -23   1   7   -1.50    2.33
  23  -1  -7    0.89    0.91
  23  -1  -7   -1.20    0.94
  23  -1  -8    3.57    2.11
 -23   1   8    2.36    2.41
  23  -1  -8    4.95    1.00
  23  -1  -8    5.52    0.99
  23  -1  -9    1.29    2.11
 -23   1   9    3.91    2.29
  23  -1  -9    4.03    0.93
  23  -1  -9    4.24    0.92
  23  -1 -10   -0.86    2.19
 -23   1  10    2.25    2.27
  23  -1 -10    0.15    0.86
  23  -1 -10    0.85    0.77
  23  -1 -11    1.75    2.12
 -23   1  11    1.50    2.32
  23  -1 -11    2.48    0.87
  23  -1 -11    0.62    0.74
  23  -1 -12    1.68    2.06
 -23   1  12   -0.30    2.07
  23  -1 -12    0.09    0.83
  23  -1 -12    0.79    0.74
  23  -1 -13    3.27    2.23
  23  -1 -13    0.65    0.79
  23  -1 -13   -0.41    0.72
  23  -1 -14   -0.27    2.44
  23  -1 -14    0.47    0.80
  23  -1 -14    2.18    0.73
  23  -1 -15    2.50    2.33
  23  -1 -15    0.10    0.77
  23  -1 -15    0.38    0.62
   3 -23   0    1.94    0.94
  -3  23   0    0.60    0.73
   3 -23  -1    4.36    0.88
  -3  23   1    4.63    0.83
   3 -23  -2    0.99    0.83
  -3  23   2    1.51    0.74
   3 -23  -3    0.25    0.80
  -3  23   3    0.15    0.58
  -4  22  -4    6.98    2.93
  -4  22  -4    8.56    1.03
  -4  22  -3   -1.88    2.47
   4 -22   3    0.40    0.82
  -4  22  -3    0.43    0.73
  -4  22  -2    1.94    2.40
   4 -22   2    0.85    0.73
  -4  22  -2    1.20    0.66
  -4  22  -1    0.96    2.37
   4 -22   1    0.51    0.75
  -4  22  -1   -0.21    0.63
  -4  22   0   13.61    2.44
   4 -22   0   16.60    1.23
  -4  22   0   15.62    1.19
   4 -22  -1    0.17    0.69
  -4  22   1   -0.07    0.81
   4 -22  -2   13.58    1.16
  -4  22   2   15.25    1.18
   4 -22  -3    0.67    0.63
  -4  22   3    0.45    0.77
   4 -22  -4   -0.40    0.59
  -4  22   4    0.00    0.63
   4 -22  -5   -0.73    0.70
  -4  22   5   -0.03    0.72
   4 -22  -6    5.69    0.86
  -4  22   6    5.06    0.66
   4 -22  -7    0.57    0.70
  -4  22   7   -0.04    0.56
  -5  21  -5    0.72    2.25
   5 -21   5    1.26    0.82
  -5  21  -5    2.19    0.81
   5 -21   4    5.96    0.85
  -5  21  -3    3.79    2.53
   5 -21   3    4.65    0.75
  -5  21  -3    3.38    0.84
  -5  21  -2   17.22    3.44
   5 -21   2   15.09    1.22
  -5  21  -2   15.22    1.20
  -5  21  -1    3.03    2.36
   5 -21   1    3.18    0.78
  -5  21  -1    2.64    0.74
  -5  21   0    0.30    2.23
   5 -21   0   -0.43    0.65
  -5  21   0    0.89    0.63
  -5  21   1    1.26    2.27
   5 -21  -1    3.61    0.70
  -5  21   1    4.82    0.83
   5 -21  -2    6.76    0.81
  -5  21   2    5.38    0.84
   5 -21  -3    3.13    0.80
  -5  21   3    3.67    0.71
   5 -21  -4   12.48    1.08
  -5  21   4   12.78    1.06
   5 -21  -5   -0.01    0.60
  -5  21   5    0.74    0.72
   5 -21  -6    3.44    0.69
  -5  21   6    4.21    0.73
   5 -21  -7    2.19    0.75
  -5  21   7    2.90    0.75
   5 -21  -8    1.44    0.69
  -5  21   8    2.01    0.78
   5 -21  -9    0.98    1.87
   5 -21  -9    2.80    0.70
  -5  21   9    2.21    0.77
  -6  20  -6    1.67    2.09
   6 -20   6    1.92    0.96
  -6  20  -6    1.69    0.75
  -6  20  -5    1.29    2.07
   6 -20   5   -0.14    0.74
  -6  20  -5   -0.76    0.72
  -6  20  -4    0.52    2.02
   6 -20   4    0.21    0.70
  -6  20  -4    2.14    0.76
  -6  20  -3    9.84    2.61
   6 -20   3   12.71    1.07
  -6  20  -3   14.30    1.19
  -6  20  -2    3.73    2.37
   6 -20   2    1.76    0.73
  -6  20  -2    1.19    0.71
  -6  20  -1   20.45    3.53
   6 -20   1   20.00    1.42
  -6  20  -1   20.34    1.45
  -6  20   0    0.06    2.13
   6 -20   0   -0.27    0.63
  -6  20   0    0.59    0.71
  -6  20   1    0.23    2.07
   6 -20  -1    0.21    0.64
  -6  20   1    0.15    0.72
  -6  20   2    6.33    2.26
   6 -20  -2    4.72    0.74
  -6  20   2    3.91    0.78
  -6  20   3   23.00    3.56
   6 -20  -3   20.92    1.49
  -6  20   3   22.89    1.52
   6 -20  -4    0.38    0.66
  -6  20   4    0.66    0.75
   6 -20  -5   39.05    5.28
   6 -20  -5   39.36    2.37
  -6  20   5   36.94    2.23
   6 -20  -6    1.25    2.10
   6 -20  -6    1.90    0.73
  -6  20   6    2.25    0.72
   6 -20  -7   -0.86    2.22
   6 -20  -7    1.54    0.68
  -6  20   7   -0.20    0.63
   6 -20  -8   -1.29    2.27
   6 -20  -8   -0.16    0.63
  -6  20   8   -0.02    0.66
   6 -20  -9   -0.11    2.31
   6 -20  -9    1.53    0.71
  -6  20   9    1.26    0.70
   6 -20 -10    0.69    2.56
   6 -20 -10    0.42    0.61
  -6  20  10   -0.53    0.70
   6 -20 -11    3.87    2.54
   6 -20 -11    5.57    0.75
  -6  20  11    6.60    0.85
  -7  19  -7    6.46    2.18
  -7  19  -7    4.04    0.88
  -7  19  -6    0.07    1.72
   7 -19   6    0.28    0.89
  -7  19  -6   -0.24    0.70
  -7  19  -5   10.11    2.15
   7 -19   5   10.19    1.01
  -7  19  -5    8.19    0.97
  -7  19  -4    2.06    1.94
   7 -19   4    5.28    0.88
  -7  19  -4    4.65    0.83
  -7  19  -3    1.15    1.86
   7 -19   3    0.13    0.66
  -7  19  -3   -0.21    0.75
  -7  19  -2   -1.12    1.92
   7 -19   2   -0.08    0.64
  -7  19  -2    1.43    0.75
  -7  19  -1    2.06    2.15
   7 -19   1    3.27    0.69
  -7  19  -1    3.15    0.77
  -7  19   0    1.47    2.09
   7 -19   0    4.73    0.79
  -7  19   0    4.88    0.69
  -7  19   1   32.48    4.42
   7 -19  -1   25.56    1.66
  -7  19   1   27.53    1.75
  -7  19   2    2.32    1.96
   7 -19  -2    1.68    0.66
  -7  19   2    3.57    0.75
   7 -19  -3   10.10    2.21
  -7  19   3    8.18    2.27
   7 -19  -3   11.57    0.99
  -7  19   3   10.67    0.95
   7 -19  -4   12.98    2.48
  -7  19   4   14.28    2.71
   7 -19  -4   16.49    1.25
  -7  19   4   16.41    1.24
   7 -19  -5    2.87    2.14
   7 -19  -5    4.12    0.72
  -7  19   5    2.72    0.68
   7 -19  -6    4.31    2.02
   7 -19  -6    7.71    0.87
  -7  19   6    6.44    0.78
   7 -19  -7   13.69    2.77
   7 -19  -7    9.88    0.97
  -7  19   7   12.66    1.06
   7 -19  -8    7.37    2.59
   7 -19  -8    5.26    0.75
  -7  19   8    4.73    0.76
   7 -19  -9   10.10    2.70
   7 -19  -9    9.69    0.94
  -7  19   9    9.90    0.99
   7 -19 -10   -3.29    2.38
   7 -19 -10    1.08    0.63
  -7  19  10    0.59    0.70
   7 -19 -11   -1.60    2.33
   7 -19 -11    0.01    0.65
  -7  19  11    0.79    0.69
   7 -19 -12   -1.80    2.40
   7 -19 -12    1.67    0.67
  -7  19  12    1.21    0.63
   7 -19 -13    2.94    2.83
   7 -19 -13    3.02    0.74
  -7  19  13    3.92    0.82
  -8  18  -7   -3.18    1.76
   8 -18   7    0.61    1.08
  -8  18  -7   -0.77    0.86
  -8  18  -6   11.16    2.23
   8 -18   6   13.17    1.23
  -8  18  -6   12.57    1.09
  -8  18  -5    2.07    1.76
   8 -18   5    0.35    0.83
  -8  18  -5    0.13    0.72
  -8  18  -4    8.89    2.24
   8 -18   4   10.36    1.09
  -8  18  -4    8.53    0.92
  -8  18  -3    4.10    1.72
   8 -18   3    4.50    0.82
  -8  18  -3    4.11    0.83
  -8  18  -2    4.45    1.98
   8 -18   2    5.84    0.82
  -8  18  -2    4.75    0.80
  -8  18  -1   10.55    2.34
   8 -18   1    6.87    0.88
  -8  18  -1    6.74    0.90
  -8  18   0    1.55    1.88
   8 -18   0    4.81    0.80
  -8  18   0    4.17    0.76
   8 -18  -1    7.37    1.91
  -8  18   1    3.72    2.01
   8 -18  -1    5.95    0.84
  -8  18   1    4.31    0.75
   8 -18  -2   52.22    6.67
  -8  18   2   51.62    6.58
   8 -18  -2   55.27    3.19
  -8  18   2   53.87    3.09
   8 -18  -3    0.59    1.64
  -8  18   3    0.19    1.72
   8 -18  -3    0.78    0.68
  -8  18   3    0.80    0.68
   8 -18  -4   -2.74    1.81
  -8  18   4   -1.48    1.95
   8 -18  -4    0.41    0.61
  -8  18   4    0.07    0.60
   8 -18  -5    0.85    1.74
  -8  18   5    0.00    1.68
   8 -18  -5   -0.03    0.68
  -8  18   5    0.05    0.66
   8 -18  -6    6.33    1.98
   8 -18  -6    7.25    0.79
  -8  18   6    8.94    0.87
   8 -18  -7    2.97    1.96
   8 -18  -7    3.20    0.66
  -8  18   7    3.07    0.76
   8 -18  -8   19.96    3.19
   8 -18  -8   19.50    1.35
  -8  18   8   20.66    1.40
   8 -18  -9    0.43    1.80
   8 -18  -9    0.02    0.71
  -8  18   9    2.03    0.70
   8 -18 -10   -0.60    2.28
   8 -18 -10   -0.30    0.67
  -8  18  10    0.90    0.70
   8 -18 -11    2.09    2.30
   8 -18 -11    1.29    0.71
  -8  18  11    1.31    0.75
   8 -18 -12    2.54    2.77
   8 -18 -12    5.14    0.83
  -8  18  12    3.38    0.76
   8 -18 -13    1.07    2.38
   8 -18 -13    0.02    0.65
  -8  18  13   -0.57    0.65
   8 -18 -14    4.01    2.56
   8 -18 -14    3.88    0.70
  -8  18  14    4.09    0.78
  -9  17  -7    2.44    1.52
   9 -17   7    0.25    1.06
  -9  17  -7    1.67    1.03
  -9  17  -6    3.18    1.61
   9 -17   6    3.92    0.95
  -9  17  -6    6.01    0.90
  -9  17  -5    3.17    1.77
   9 -17   5    3.20    0.87
  -9  17  -5    2.10    0.85
  -9  17  -4   10.63    2.12
   9 -17   4   10.32    1.10
  -9  17  -4   11.29    1.08
  -9  17  -3   -1.25    1.69
   9 -17   3    0.96    0.74
  -9  17  -3   -0.02    0.69
  -9  17  -2    8.87    2.11
   9 -17   2    7.69    0.91
  -9  17  -2    8.69    0.86
  -9  17  -1    8.56    2.04
   9 -17   1    8.59    0.85
  -9  17  -1    7.20    0.83
   9 -17   0   22.00    3.23
  -9  17   0   26.13    3.70
   9 -17   0   27.39    1.76
  -9  17   0   24.25    1.60
   9 -17  -1    1.27    1.54
  -9  17   1    1.02    1.72
   9 -17  -1    3.16    0.75
  -9  17   1    5.53    0.83
   9 -17  -2    3.51    1.71
  -9  17   2    0.80    1.73
   9 -17  -2    4.13    0.73
  -9  17   2    4.26    0.73
   9 -17  -3    2.83    1.71
  -9  17   3    4.32    1.92
   9 -17  -3    8.84    0.94
  -9  17   3    6.76    0.80
   9 -17  -4   23.15    3.38
  -9  17   4   30.29    4.20
   9 -17  -4   25.59    1.69
  -9  17   4   23.33    1.63
   9 -17  -5    2.13    1.71
  -9  17   5    5.01    1.95
   9 -17  -5    1.89    0.72
  -9  17   5    1.53    0.66
   9 -17  -6    9.20    2.20
  -9  17   6    6.23    1.91
   9 -17  -6    7.54    0.90
  -9  17   6    6.28    0.87
   9 -17  -7    1.74    1.76
   9 -17  -7    5.00    0.81
  -9  17   7    4.04    0.70
   9 -17  -8   -0.48    1.80
   9 -17  -8    1.86    0.64
  -9  17   8    2.52    0.76
   9 -17  -9    5.17    2.02
   9 -17  -9    6.56    0.88
  -9  17   9    5.85    0.73
   9 -17 -10   23.16    3.49
   9 -17 -10   21.33    1.42
  -9  17  10   20.55    1.42
   9 -17 -11    1.68    2.08
   9 -17 -11   -0.07    0.68
  -9  17  11    0.34    0.74
   9 -17 -12   10.11    2.55
   9 -17 -12   10.19    0.99
  -9  17  12    9.90    0.99
   9 -17 -13    0.10    2.31
   9 -17 -13    0.52    0.61
  -9  17  13    0.59    0.65
   9 -17 -14    2.86    2.34
   9 -17 -14    1.58    0.69
  -9  17  14   -0.03    0.63
   9 -17 -15   -1.04    2.32
   9 -17 -15    0.53    0.62
  -9  17  15    0.84    0.70
 -10  16  -7    0.97    1.42
  10 -16   7    1.90    0.98
 -10  16  -7    3.28    1.06
 -10  16  -6    3.07    1.54
  10 -16   6    3.03    0.87
 -10  16  -6    2.42    0.89
 -10  16  -5   -2.03    1.66
  10 -16   5    0.06    0.84
 -10  16  -5    0.67    0.85
 -10  16  -4    2.46    1.49
  10 -16   4    0.79    0.87
 -10  16  -4    0.11    0.79
 -10  16  -3   24.78    3.56
  10 -16   3   26.84    1.77
 -10  16  -3   24.06    1.65
 -10  16  -2    0.84    1.62
  10 -16   2    1.02    0.70
 -10  16  -2    0.51    0.68
  10 -16   1   11.57    2.21
 -10  16  -1   11.52    2.23
  10 -16   1   14.83    1.19
 -10  16  -1   14.81    1.18
  10 -16   0    3.20    1.66
 -10  16   0   -0.77    1.68
  10 -16   0    0.46    0.69
 -10  16   0    1.05    0.72
  10 -16  -1    4.71    1.62
 -10  16   1    8.59    1.92
  10 -16  -1    8.54    0.91
 -10  16   1   11.45    1.10
  10 -16  -2    8.96    2.07
 -10  16   2   10.87    2.31
  10 -16  -2    8.19    0.90
 -10  16   2    7.25    0.84
  10 -16  -3   10.20    2.07
 -10  16   3   12.08    2.35
  10 -16  -3    9.52    0.96
 -10  16   3    9.42    0.95
  10 -16  -4    1.10    1.63
 -10  16   4   -1.31    1.77
  10 -16  -4    0.05    0.60
 -10  16   4    0.58    0.66
  10 -16  -5   30.29    4.15
 -10  16   5   33.10    4.55
  10 -16  -5   31.34    1.97
 -10  16   5   33.02    2.12
  10 -16  -6    0.74    1.60
 -10  16   6    3.57    1.84
  10 -16  -6    1.95    0.72
 -10  16   6    0.86    0.69
  10 -16  -7   12.69    2.31
 -10  16   7    9.59    2.11
  10 -16  -7   13.38    1.14
 -10  16   7   13.92    1.15
  10 -16  -8   40.98    5.41
  10 -16  -8   31.25    1.96
 -10  16   8   31.16    1.92
  10 -16  -9    2.38    1.89
  10 -16  -9    0.59    0.67
 -10  16   9    1.65    0.75
  10 -16 -10    3.50    2.07
  10 -16 -10    4.17    0.70
 -10  16  10    4.47    0.75
  10 -16 -11   29.87    4.29
  10 -16 -11   30.64    1.93
 -10  16  11   27.65    1.75
  10 -16 -12    1.93    2.09
  10 -16 -12   -0.58    0.66
 -10  16  12    0.68    0.69
  10 -16 -13    4.25    2.27
  10 -16 -13    7.05    0.83
 -10  16  13    5.87    0.83
  10 -16 -14    9.60    2.62
  10 -16 -14    6.80    0.85
 -10  16  14    5.34    0.75
  10 -16 -15    7.48    2.39
  10 -16 -15    7.64    0.88
 -10  16  15    8.74    0.86
  10 -16 -16    2.03    2.24
  10 -16 -16    3.32    0.61
 -10  16  16    4.02    0.79
 -11  15  -7    1.23    1.23
  11 -15   7    1.09    0.99
 -11  15  -7    0.81    1.10
 -11  15  -6   -0.46    1.33
  11 -15   6   -0.09    0.86
 -11  15  -6    0.57    0.92
 -11  15  -5   10.38    2.25
  11 -15   5   11.08    1.14
 -11  15  -5    9.87    1.10
 -11  15  -4   -0.13    1.55
  11 -15   4   -0.76    0.86
 -11  15  -4   -0.78    0.75
 -11  15  -3   14.88    2.59
  11 -15   3   16.31    1.27
 -11  15  -3   17.34    1.33
 -11  15  -2    5.56    1.78
  11 -15   2    6.69    0.87
 -11  15  -2    6.06    0.83
  11 -15   1    1.59    1.59
 -11  15  -1    3.29    1.67
  11 -15   1    0.61    0.76
 -11  15  -1    0.91    0.65
  11 -15   0    2.18    1.54
 -11  15   0    2.62    1.82
  11 -15   0    2.81    0.73
 -11  15   0    1.87    0.71
  11 -15  -1   50.50    6.45
 -11  15   1   51.96    6.65
  11 -15  -1   43.68    2.59
 -11  15   1   40.75    2.43
  11 -15  -2    0.83    1.62
 -11  15   2    3.34    1.57
  11 -15  -2    0.40    0.70
 -11  15   2    1.18    0.74
  11 -15  -3   36.79    4.87
 -11  15   3   41.11    5.51
  11 -15  -3   32.90    2.04
 -11  15   3   38.80    2.33
  11 -15  -4    0.38    1.69
 -11  15   4    1.23    1.89
  11 -15  -4    1.87    0.70
 -11  15   4    2.36    0.75
  11 -15  -5    0.54    1.74
 -11  15   5    2.75    1.86
  11 -15  -5    2.63    0.72
 -11  15   5    4.03    0.70
  11 -15  -6    1.73    1.79
 -11  15   6    0.61    1.77
  11 -15  -6    1.79    0.69
 -11  15   6    2.13    0.67
  11 -15  -7   17.64    2.82
 -11  15   7   17.16    2.81
  11 -15  -7   15.74    1.23
 -11  15   7   15.10    1.12
  11 -15  -8    0.60    1.83
 -11  15   8   -0.69    1.68
  11 -15  -8    0.96    0.73
 -11  15   8    0.53    0.72
  11 -15  -9   65.21    8.19
  11 -15  -9   66.25    3.78
 -11  15   9   65.34    3.69
  11 -15 -10   -0.99    2.00
  11 -15 -10    0.19    0.63
 -11  15  10    1.00    0.70
  11 -15 -11    4.18    2.14
  11 -15 -11    4.43    0.78
 -11  15  11    5.72    0.77
  11 -15 -12    1.96    2.10
  11 -15 -12    1.74    0.69
 -11  15  12    1.44    0.62
  11 -15 -13    9.10    2.52
  11 -15 -13    6.35    0.77
 -11  15  13    7.01    0.79
  11 -15 -14   -2.06    2.19
  11 -15 -14   -0.08    0.64
 -11  15  14   -0.28    0.66
  11 -15 -15   31.65    4.59
  11 -15 -15   24.49    1.61
 -11  15  15   30.39    1.87
  11 -15 -16    5.15    2.15
  11 -15 -16    6.11    0.80
  11 -15 -17    2.12    2.24
  11 -15 -17    1.21    0.65
 -12  14  -7    4.77    1.60
  12 -14   7    2.59    0.99
 -12  14  -6    8.86    1.76
  12 -14   6    9.22    1.12
 -12  14  -6    9.54    1.14
 -12  14  -5   -0.34    1.66
  12 -14   5   -1.07    0.83
 -12  14  -5    1.03    0.85
 -12  14  -4   -0.69    1.47
  12 -14   4    2.14    0.84
 -12  14  -4    1.03    0.88
 -12  14  -3    3.84    1.72
  12 -14   3    1.87    0.76
 -12  14  -3    0.57    0.81
  12 -14   2   -0.48    1.65
 -12  14  -2    2.38    1.51
  12 -14   2    3.08    0.82
 -12  14  -2    2.09    0.73
  12 -14   1    4.35    1.83
 -12  14  -1    7.64    1.93
  12 -14   1    5.79    0.85
 -12  14  -1    6.45    0.84
  12 -14   0    2.40    1.54
 -12  14   0    4.93    1.79
  12 -14   0    2.87    0.78
 -12  14   0    2.05    0.69
  12 -14  -1    0.83    1.70
 -12  14   1    1.04    1.77
  12 -14  -1    2.41    0.73
 -12  14   1    1.56    0.69
  12 -14  -2   16.04    2.72
 -12  14   2   17.66    2.77
  12 -14  -2   20.69    1.44
 -12  14   2   19.45    1.38
  12 -14  -3   -1.19    1.83
 -12  14   3    1.59    1.62
  12 -14  -3    2.51    0.70
 -12  14   3    1.23    0.69
  12 -14  -4   20.11    3.13
 -12  14   4   15.25    2.74
  12 -14  -4   22.15    1.50
 -12  14   4   22.99    1.55
  12 -14  -5    4.13    1.89
 -12  14   5    6.43    1.97
  12 -14  -5    4.53    0.74
 -12  14   5    5.25    0.80
  12 -14  -6    5.40    1.98
 -12  14   6    0.53    1.63
  12 -14  -6    1.17    0.72
 -12  14   6    2.45    0.69
  12 -14  -7    9.56    2.29
 -12  14   7    7.20    2.08
  12 -14  -7    9.11    0.89
 -12  14   7    9.32    0.96
  12 -14  -8    8.87    2.23
 -12  14   8    8.91    2.11
  12 -14  -8    8.39    0.97
 -12  14   8    8.06    0.88
  12 -14  -9    7.59    2.08
 -12  14   9    9.25    2.13
  12 -14  -9    4.99    0.85
 -12  14   9    6.36    0.85
  12 -14 -10   21.84    3.49
  12 -14 -10   29.19    1.84
 -12  14  10   28.08    1.73
  12 -14 -11   17.40    2.99
  12 -14 -11   14.00    1.19
 -12  14  11   13.07    1.09
  12 -14 -12   -0.40    2.12
  12 -14 -12    0.89    0.65
 -12  14  12    1.32    0.60
  12 -14 -13    7.06    2.38
  12 -14 -13    8.06    0.85
 -12  14  13   10.31    0.97
  12 -14 -14    9.52    2.16
  12 -14 -14    8.16    0.84
 -12  14  14    8.35    0.91
  12 -14 -15    1.45    2.20
  12 -14 -15    0.23    0.64
  12 -14 -16   14.16    2.79
  12 -14 -16   20.26    1.44
  12 -14 -17    2.23    1.99
  12 -14 -17    1.26    0.62
 -13  13  -7    0.74    1.38
 -13  13  -6    6.99    1.72
  13 -13   6    6.65    0.96
  13 -13   6    6.30    0.89
 -13  13  -5    6.19    1.84
  13 -13   5    8.30    1.03
 -13  13  -4    4.97    1.66
  13 -13   4    2.65    0.88
 -13  13  -3    7.96    1.93
  13 -13   3    6.12    0.97
 -13  13  -3    5.70    0.91
  13 -13   2   18.96    3.09
 -13  13  -2   15.56    2.57
  13 -13   2   15.89    1.28
 -13  13  -2   15.04    1.21
  13 -13   1   -0.41    1.70
 -13  13  -1   -0.38    1.46
  13 -13   1   -0.36    0.68
 -13  13  -1   -0.15    0.68
  13 -13   0   22.05    3.25
 -13  13   0   21.86    3.23
  13 -13   0   23.92    1.60
 -13  13   0   22.39    1.51
  13 -13  -1    1.55    1.58
 -13  13   1    0.38    1.68
  13 -13  -1    1.42    0.71
 -13  13   1    0.33    0.71
  13 -13  -2    2.11    1.77
 -13  13   2    2.11    1.58
  13 -13  -2    1.91    0.68
 -13  13   2    1.79    0.65
  13 -13  -3   -0.55    1.98
 -13  13   3    1.87    1.81
  13 -13  -3    1.48    0.70
 -13  13   3    0.56    0.68
  13 -13  -4    7.87    2.21
 -13  13   4    7.42    2.25
  13 -13  -4    8.08    0.91
 -13  13   4    8.78    0.89
  13 -13  -5    4.35    1.95
 -13  13   5    4.41    1.88
  13 -13  -5    5.53    0.84
 -13  13   5    3.94    0.80
  13 -13  -6   31.41    4.28
 -13  13   6   32.02    4.46
  13 -13  -6   32.71    2.07
 -13  13   6   30.98    1.94
  13 -13  -7    0.66    1.87
 -13  13   7    0.21    1.84
  13 -13  -7    0.77    0.68
 -13  13   7   -0.40    0.68
  13 -13  -8    1.66    1.90
 -13  13   8    1.39    1.76
  13 -13  -8    6.72    0.81
 -13  13   8    6.98    0.86
  13 -13  -9    0.75    1.87
 -13  13   9    2.64    1.79
  13 -13  -9    1.22    0.64
 -13  13   9    0.34    0.68
  13 -13 -10   31.99    4.50
 -13  13  10   32.93    4.52
  13 -13 -10   24.62    1.61
 -13  13  10   27.09    1.76
  13 -13 -11    4.04    2.13
  13 -13 -11    1.28    0.70
 -13  13  11    1.04    0.70
  13 -13 -12   35.43    4.92
  13 -13 -12   33.90    2.08
 -13  13  12   33.70    2.04
  13 -13 -13   -1.40    2.06
  13 -13 -13    0.43    0.62
 -13  13  13    0.10    0.65
  13 -13 -14    7.97    2.39
  13 -13 -14    9.51    0.89
  13 -13 -15   -1.44    1.90
  13 -13 -15    1.29    0.61
  13 -13 -16   -1.80    2.04
  13 -13 -16    0.78    0.66
  13 -13 -17   -0.90    2.00
  13 -13 -17   -0.20    0.60
  13 -13 -18   13.29    2.61
  13 -13 -18   14.85    1.07
  13 -13 -18   14.38    1.10
 -14  12  -6    3.43    1.43
  14 -12   6    2.91    0.90
  14 -12   6    2.01    0.81
 -14  12  -5    1.31    1.32
  14 -12   5    3.70    0.79
  14 -12   5    4.60    0.87
 -14  12  -4    9.81    2.10
  14 -12   4    8.02    0.95
  14 -12   4    8.17    1.00
 -14  12  -3    3.38    1.67
  14 -12   3    4.79    0.96
  14 -12   2    1.06    1.58
 -14  12  -2    1.96    1.64
  14 -12   2    3.43    0.85
  14 -12   1    5.71    1.98
 -14  12  -1    5.28    1.66
  14 -12   1    8.87    0.92
  14 -12   0   11.56    2.34
 -14  12   0    8.50    2.04
  14 -12   0   10.47    1.04
 -14  12   0    8.09    0.90
  14 -12  -1   13.92    2.70
 -14  12   1   17.48    2.90
  14 -12  -1   19.01    1.35
 -14  12   1   18.29    1.29
  14 -12  -2   40.14    5.34
 -14  12   2   34.93    4.72
  14 -12  -2   34.27    2.11
 -14  12   2   34.47    2.13
  14 -12  -3    7.58    2.03
 -14  12   3    6.35    2.02
  14 -12  -3    6.40    0.81
 -14  12   3    4.68    0.74
  14 -12  -4    2.40    1.96
 -14  12   4    1.94    1.64
  14 -12  -4    4.22    0.82
 -14  12   4    4.92    0.84
  14 -12  -5    1.47    2.00
 -14  12   5    1.50    1.98
  14 -12  -5    2.08    0.74
 -14  12   5    0.25    0.67
  14 -12  -6   -1.21    1.69
 -14  12   6    2.47    1.79
  14 -12  -6    1.16    0.75
 -14  12   6    0.53    0.76
  14 -12  -7   15.77    2.78
 -14  12   7   14.89    2.61
  14 -12  -7   18.15    1.32
 -14  12   7   19.08    1.32
  14 -12  -8   29.67    4.28
 -14  12   8   27.95    3.95
  14 -12  -8   23.85    1.60
 -14  12   8   25.64    1.73
  14 -12  -9    1.37    1.81
 -14  12   9    3.33    1.87
  14 -12  -9    0.10    0.66
 -14  12   9   -0.38    0.71
  14 -12 -10    5.03    2.20
 -14  12  10    6.62    1.97
  14 -12 -10    8.37    0.94
 -14  12  10    9.28    0.92
  14 -12 -11   14.38    2.87
  14 -12 -11   16.57    1.26
  14 -12 -12    3.15    2.25
  14 -12 -12    5.95    0.85
  14 -12 -13   18.88    3.23
  14 -12 -13   21.83    1.49
  14 -12 -14    5.50    2.41
  14 -12 -14    2.95    0.68
  14 -12 -15    1.12    1.93
  14 -12 -15    0.16    0.68
  14 -12 -16    5.87    2.20
  14 -12 -16    4.07    0.75
  14 -12 -17   -2.96    2.04
  14 -12 -17    1.60    0.70
  14 -12 -17    1.08    0.64
  14 -12 -18    1.31    1.83
  14 -12 -18    1.13    0.61
  14 -12 -18    0.71    0.63
 -15  11  -5   11.37    1.95
  15 -11   5   12.39    1.11
  15 -11   5   12.24    1.09
 -15  11  -4    1.53    1.64
  15 -11   4    0.42    0.77
  15 -11   4    0.92    0.85
 -15  11  -3   38.70    5.05
  15 -11   3   33.92    2.13
  15 -11   3   36.27    2.25
  15 -11   2   12.87    2.63
 -15  11  -2    7.54    1.92
  15 -11   2    6.54    0.99
  15 -11   2    6.99    0.94
  15 -11   1    1.29    1.85
 -15  11  -1    0.48    1.54
  15 -11   1    0.22    0.79
  15 -11   1    1.36    0.68
  15 -11   0    3.20    1.81
 -15  11   0    1.49    1.70
  15 -11   0    0.43    0.68
  15 -11  -1   50.94    6.58
 -15  11   1   49.58    6.35
  15 -11  -1   44.83    2.68
  15 -11  -2    5.32    2.13
 -15  11   2    3.67    1.79
  15 -11  -2    5.20    0.79
  15 -11  -3   45.50    6.06
 -15  11   3   47.72    6.17
  15 -11  -3   50.91    2.96
  15 -11  -4    1.88    2.23
 -15  11   4    0.98    1.64
  15 -11  -4    2.06    0.75
  15 -11  -5    0.44    2.19
 -15  11   5   -0.30    1.92
  15 -11  -5    0.18    0.70
  15 -11  -6   14.43    2.77
 -15  11   6   15.67    2.78
  15 -11  -6   11.85    1.05
  15 -11  -7    3.64    2.09
 -15  11   7    2.31    1.88
  15 -11  -7    0.94    0.68
  15 -11  -8    0.64    1.99
 -15  11   8    0.90    1.80
  15 -11  -8   -0.05    0.69
  15 -11  -9   68.18    8.68
 -15  11   9   72.46    9.08
  15 -11  -9   71.21    4.03
  15 -11 -10   -1.15    1.98
 -15  11  10   -2.20    1.84
  15 -11 -10    1.34    0.72
  15 -11 -11    1.15    2.18
 -15  11  11    1.11    1.78
  15 -11 -11    1.19    0.70
  15 -11 -12    0.92    2.02
  15 -11 -12    0.06    0.68
  15 -11 -13    1.76    2.17
  15 -11 -13    1.36    0.73
  15 -11 -14    2.61    2.02
  15 -11 -14    2.17    0.72
  15 -11 -15   26.85    4.13
  15 -11 -15   26.12    1.61
  15 -11 -15   26.62    1.73
  15 -11 -16    0.99    2.27
  15 -11 -16   -0.36    0.61
  15 -11 -16   -0.51    0.66
  15 -11 -17    3.98    2.18
  15 -11 -17    2.72    0.58
  15 -11 -17    3.47    0.80
  15 -11 -18   -0.58    1.86
  15 -11 -18   -1.16    0.69
  15 -11 -18   -0.17    0.56
  15 -11 -19    1.21    0.64
  15 -11 -19    2.14    0.77
 -16  10  -5    0.91    1.30
 -16  10  -4    4.22    1.48
  16 -10   4    3.64    0.76
  16 -10   4    3.05    0.88
 -16  10  -3    3.13    1.86
  16 -10   3    4.14    0.92
  16 -10   3    3.76    0.88
  16 -10   2    9.41    2.45
 -16  10  -2   10.09    2.25
  16 -10   2   10.93    1.10
  16 -10   2   12.16    1.18
  16 -10   1   39.06    5.21
 -16  10  -1   38.00    5.05
  16 -10   1   39.28    2.39
  16 -10   1   38.16    2.33
  16 -10   0    6.73    2.05
 -16  10   0    7.79    2.06
  16 -10   0    4.26    0.82
  16 -10   0    4.30    0.81
  16 -10  -1   10.47    2.66
 -16  10   1    5.77    1.77
  16 -10  -1    9.14    0.95
  16 -10  -1   10.11    1.01
  16 -10  -2   28.27    4.21
 -16  10   2   27.77    3.90
  16 -10  -2   25.80    1.69
  16 -10  -2   30.04    1.92
  16 -10  -3    2.90    1.99
 -16  10   3    5.09    1.99
  16 -10  -3    2.69    0.65
  16 -10  -3    2.81    0.79
  16 -10  -4    5.06    2.28
 -16  10   4    1.81    1.68
  16 -10  -4    3.37    0.71
  16 -10  -5   47.63    6.32
 -16  10   5   44.31    5.77
  16 -10  -5   35.53    2.18
  16 -10  -6    7.43    2.31
 -16  10   6    9.19    2.39
  16 -10  -6    6.96    0.88
  16 -10  -7   24.76    3.85
 -16  10   7   23.94    3.62
  16 -10  -7   27.10    1.75
  16 -10  -8   -0.38    2.04
 -16  10   8    0.07    1.64
  16 -10  -8   -0.68    0.70
  16 -10  -9    0.62    1.97
 -16  10   9    0.04    1.72
  16 -10  -9    1.75    0.67
  16 -10 -10   21.80    3.68
 -16  10  10   21.02    3.26
  16 -10 -10   25.27    1.65
  16 -10 -11   11.84    2.92
 -16  10  11   13.99    2.54
  16 -10 -11   12.69    1.10
  16 -10 -11   12.78    1.06
  16 -10 -12   -1.57    2.23
 -16  10  12   -0.38    1.36
  16 -10 -12    0.23    0.66
  16 -10 -12    1.08    0.56
  16 -10 -13   37.87    5.29
  16 -10 -13   30.25    1.88
  16 -10 -13   31.62    1.92
  16 -10 -14    1.54    2.53
  16 -10 -14    0.46    0.61
  16 -10 -14    0.12    0.56
  16 -10 -15    2.91    2.36
  16 -10 -15    1.36    0.65
  16 -10 -15    2.77    0.69
  16 -10 -16   12.42    2.83
  16 -10 -16   12.10    1.05
  16 -10 -16   13.62    1.09
  16 -10 -17    2.68    2.21
  16 -10 -17    1.48    0.65
  16 -10 -17    2.33    0.59
  16 -10 -18    0.51    2.02
  16 -10 -18    1.05    0.75
  16 -10 -18    0.51    0.57
  16 -10 -19    2.23    2.36
  16 -10 -19    1.74    0.82
  16 -10 -19    2.77    0.66
 -17   9  -4    1.29    1.47
 -17   9  -3    2.35    1.45
  17  -9   3    2.75    0.80
  17  -9   3    1.99    0.79
  17  -9   2   19.39    3.06
 -17   9  -2   18.53    3.00
  17  -9   2   12.93    1.16
  17  -9   2   14.13    1.22
  17  -9   1   -0.37    1.95
 -17   9  -1   -0.47    1.60
  17  -9   1    0.80    0.81
  17  -9   1    0.74    0.82
  17  -9   0   30.46    4.37
 -17   9   0   25.14    3.60
  17  -9   0   32.53    2.06
  17  -9   0   30.99    1.97
  17  -9  -1    3.92    2.29
 -17   9   1    1.74    1.77
  17  -9  -1    1.77    0.78
  17  -9  -1    3.90    0.78
  17  -9  -2    2.82    1.91
 -17   9   2    1.98    1.63
  17  -9  -2    4.18    0.84
  17  -9  -2    4.46    0.84
  17  -9  -3   -0.47    2.20
 -17   9   3   -0.23    1.83
  17  -9  -3   -0.41    0.64
  17  -9  -3    0.54    0.74
  17  -9  -4   18.12    3.08
 -17   9   4   19.83    3.07
  17  -9  -4   14.99    1.17
  17  -9  -4   16.76    1.24
  17  -9  -5    5.02    2.31
 -17   9   5    2.48    1.78
  17  -9  -5    5.54    0.83
  17  -9  -5    3.71    0.76
  17  -9  -6   57.99    7.52
 -17   9   6   60.37    7.65
  17  -9  -6   69.65    3.96
  17  -9  -6   62.21    3.57
  17  -9  -7    3.63    2.51
 -17   9   7    2.25    1.81
  17  -9  -7    0.93    0.69
  17  -9  -7   -0.13    0.61
  17  -9  -8    1.26    2.20
 -17   9   8    0.99    1.89
  17  -9  -8    3.00    0.71
  17  -9  -8    2.88    0.63
  17  -9  -9    5.78    2.50
 -17   9   9    5.24    2.12
  17  -9  -9    3.06    0.69
  17  -9  -9    4.80    0.70
  17  -9 -10   -0.11    2.44
 -17   9  10    1.78    1.91
  17  -9 -10    0.27    0.68
  17  -9 -10   -0.87    0.63
  17  -9 -11   -0.33    2.33
 -17   9  11    1.14    1.94
  17  -9 -11    1.01    0.74
  17  -9 -11    2.12    0.64
  17  -9 -12   12.56    2.96
 -17   9  12   10.24    2.18
  17  -9 -12    8.56    0.90
  17  -9 -12    8.30    0.87
  17  -9 -13    0.34    2.37
  17  -9 -13   -0.68    0.71
  17  -9 -13    0.68    0.58
  17  -9 -14   28.20    4.37
  17  -9 -14   30.30    1.92
  17  -9 -14   30.08    1.85
  17  -9 -15   -0.49    2.29
  17  -9 -15    0.22    0.65
  17  -9 -15    0.46    0.61
  17  -9 -16    1.78    2.00
  17  -9 -16    0.04    0.71
  17  -9 -16    1.23    0.62
  17  -9 -17   -1.77    2.26
  17  -9 -17    1.54    0.74
  17  -9 -17    0.10    0.64
  17  -9 -18    7.16    2.22
  17  -9 -18    4.94    0.83
  17  -9 -18    4.97    0.76
  17  -9 -19    0.83    2.03
  17  -9 -19    0.30    0.67
  17  -9 -19    0.18    0.61
 -18   8  -3    0.00    1.52
  18  -8   2    8.96    2.20
 -18   8  -2    8.17    1.98
  18  -8   2    8.47    0.97
  18  -8   2    6.32    1.00
  18  -8   1    8.35    2.21
 -18   8  -1    8.96    2.04
  18  -8   1    7.60    0.99
  18  -8   1    7.40    1.06
  18  -8   0   -0.16    1.74
 -18   8   0    0.52    1.79
  18  -8   0    0.32    0.74
  18  -8   0    0.73    0.80
  18  -8  -1    5.10    2.27
 -18   8   1    4.38    2.14
  18  -8  -1    8.01    0.95
  18  -8  -1    9.27    1.00
  18  -8  -2    2.37    1.87
 -18   8   2    2.54    1.87
  18  -8  -2    2.12    0.77
  18  -8  -2    3.23    0.77
  18  -8  -3   -2.94    2.27
 -18   8   3    0.44    1.66
  18  -8  -3   -0.36    0.69
  18  -8  -3   -0.40    0.69
  18  -8  -4   11.31    2.85
 -18   8   4   14.61    2.62
  18  -8  -5   10.62    2.67
 -18   8   5   13.94    2.52
  18  -8  -5   12.00    1.10
  18  -8  -5   13.78    1.14
  18  -8  -6    0.14    2.00
 -18   8   6   -0.30    1.70
  18  -8  -6    0.41    0.71
  18  -8  -6    1.70    0.74
  18  -8  -7    5.22    2.54
 -18   8   7    3.47    2.02
  18  -8  -7    6.10    0.84
  18  -8  -7    7.72    0.90
  18  -8  -8   11.32    2.73
 -18   8   8    7.44    2.17
  18  -8  -8    8.16    0.90
  18  -8  -8    8.17    0.86
  18  -8  -9    0.71    2.48
 -18   8   9    2.97    2.07
  18  -8  -9    1.81    0.70
  18  -8  -9    1.64    0.65
  18  -8 -10   16.88    3.43
 -18   8  10   13.58    2.66
  18  -8 -10   13.72    1.17
  18  -8 -10   14.90    1.13
  18  -8 -11    0.28    2.70
 -18   8  11   -0.97    1.98
  18  -8 -11    1.29    0.74
  18  -8 -11    1.25    0.64
  18  -8 -12    1.17    2.50
 -18   8  12    3.20    1.80
  18  -8 -12    3.75    0.78
  18  -8 -12    4.25    0.78
  18  -8 -13    1.57    2.27
  18  -8 -13    4.13    0.79
  18  -8 -13    4.83    0.69
  18  -8 -14   14.50    3.37
  18  -8 -14    9.39    0.97
  18  -8 -14    8.18    0.85
  18  -8 -15    2.03    2.40
  18  -8 -15    3.61    0.79
  18  -8 -15    2.81    0.73
  18  -8 -16    8.06    2.74
  18  -8 -16    5.20    0.77
  18  -8 -16    6.13    0.82
  18  -8 -17   -3.87    2.17
  18  -8 -17    0.55    0.76
  18  -8 -17    0.77    0.64
  18  -8 -18    0.32    2.00
  18  -8 -18    3.07    0.85
  18  -8 -18    4.02    0.67
  18  -8 -19   -0.42    2.17
  18  -8 -19    2.09    0.70
  18  -8 -19    1.05    0.54
  19  -7   2    1.96    2.04
 -19   7  -2    4.56    1.84
  19  -7   2    2.87    0.86
  19  -7   2    2.33    0.97
  19  -7   1    5.22    1.86
 -19   7  -1    1.47    1.77
  19  -7   1    4.60    0.82
  19  -7   1    3.50    0.96
  19  -7   0   -0.77    1.82
 -19   7   0    0.04    1.95
  19  -7   0    0.02    0.85
  19  -7   0    0.34    0.96
  19  -7  -1    8.68    2.49
 -19   7   1    7.15    2.45
  19  -7  -1    7.54    0.99
  19  -7  -1    7.77    1.02
  19  -7  -2    2.65    2.48
 -19   7   2    1.77    2.25
  19  -7  -2    1.49    0.73
  19  -7  -2    0.26    0.69
  19  -7  -3    6.57    2.62
 -19   7   3    5.34    2.13
  19  -7  -3    5.05    0.87
  19  -7  -3    6.72    0.89
  19  -7  -4    3.97    2.22
 -19   7   4   -1.23    2.17
  19  -7  -4    0.81    0.79
  19  -7  -4    1.33    0.71
  19  -7  -5    5.56    2.50
 -19   7   5    0.78    2.05
  19  -7  -5    4.24    0.79
  19  -7  -5    4.81    0.76
  19  -7  -6   -3.21    2.14
 -19   7   6    1.92    1.80
  19  -7  -6    0.32    0.74
  19  -7  -6    0.70    0.66
  19  -7  -7    7.32    2.83
 -19   7   7    5.69    2.16
  19  -7  -7    5.00    0.78
  19  -7  -7    4.29    0.75
  19  -7  -8    8.54    2.80
 -19   7   8    4.47    2.04
  19  -7  -8    7.31    0.91
  19  -7  -8    5.02    0.78
  19  -7  -9   41.78    5.87
 -19   7   9   37.49    5.09
  19  -7  -9   34.46    2.13
  19  -7  -9   37.33    2.24
  19  -7 -10   -0.98    2.25
 -19   7  10   -0.87    2.05
  19  -7 -10    0.71    0.76
  19  -7 -10    0.97    0.61
  19  -7 -11    5.57    2.32
 -19   7  11   10.30    2.35
  19  -7 -11   10.92    1.05
  19  -7 -11    8.33    0.85
  19  -7 -12    1.31    2.28
 -19   7  12    2.42    1.83
  19  -7 -12    1.77    0.66
  19  -7 -12    1.56    0.62
  19  -7 -13    0.60    2.66
 -19   7  13    1.01    1.56
  19  -7 -13   -0.12    0.71
  19  -7 -13    0.00    0.60
  19  -7 -14    2.46    2.29
  19  -7 -14   -0.40    0.72
  19  -7 -14   -0.20    0.58
  19  -7 -15   11.17    2.86
  19  -7 -15   13.28    1.14
  19  -7 -15   14.46    1.09
  19  -7 -16   -0.21    2.49
  19  -7 -17    7.58    2.46
  19  -7 -17    3.87    0.85
  19  -7 -17    5.13    0.69
  19  -7 -18   -1.19    1.87
  19  -7 -18    0.97    0.76
  19  -7 -18   -0.20    0.56
  20  -6   1    2.54    1.86
 -20   6  -1    4.40    1.88
  20  -6   1    4.37    0.90
  20  -6   1    5.01    1.11
  20  -6   0   -0.26    1.59
 -20   6   0   -0.72    1.76
  20  -6   0    0.03    0.74
  20  -6   0   -0.05    0.97
  20  -6  -1    3.81    1.95
 -20   6   1    7.54    2.17
  20  -6  -1    9.00    1.02
  20  -6  -1    7.38    1.18
  20  -6  -2    4.09    2.11
 -20   6   2    6.87    2.32
  20  -6  -2    5.80    0.89
  20  -6  -2    5.43    1.00
  20  -6  -3   -1.97    2.35
 -20   6   3    1.14    2.09
  20  -6  -3    0.33    0.82
  20  -6  -3   -0.09    0.76
  20  -6  -4    0.04    2.33
 -20   6   4   -1.63    2.40
  20  -6  -4    0.02    0.77
  20  -6  -4    0.95    0.77
  20  -6  -5    9.67    2.84
 -20   6   5    7.72    2.40
  20  -6  -5    9.39    1.02
  20  -6  -5    8.91    0.94
  20  -6  -6    2.29    2.42
 -20   6   6   -0.57    2.39
  20  -6  -6    1.48    0.74
  20  -6  -6    0.13    0.69
  20  -6  -7   13.28    2.91
 -20   6   7   15.94    3.03
  20  -6  -8    3.57    2.41
 -20   6   8    6.18    2.34
  20  -6  -8    5.46    0.86
  20  -6  -8    5.16    0.72
  20  -6  -9   13.63    3.19
 -20   6   9   14.45    2.93
  20  -6  -9   15.01    1.20
  20  -6  -9   13.96    1.10
  20  -6 -10    4.15    2.73
 -20   6  10    4.26    2.17
  20  -6 -10    4.68    0.81
  20  -6 -10    4.87    0.70
  20  -6 -11    4.81    2.79
 -20   6  11    5.65    2.29
  20  -6 -11    2.13    0.67
  20  -6 -11    2.35    0.66
  20  -6 -12    0.88    2.55
 -20   6  12    2.65    1.91
  20  -6 -12    1.02    0.75
  20  -6 -12    1.10    0.62
  20  -6 -13   10.51    2.68
 -20   6  13   11.18    2.44
  20  -6 -13   11.61    1.16
  20  -6 -13   12.70    1.02
  20  -6 -14    5.30    2.75
  20  -6 -14    1.13    0.88
  20  -6 -14    1.08    0.54
  20  -6 -15    1.26    2.61
  20  -6 -15    0.36    0.84
  20  -6 -15    1.49    0.67
  20  -6 -16    2.19    2.45
  20  -6 -16    3.98    0.85
  20  -6 -16    5.13    0.70
  20  -6 -17   -1.48    2.29
  20  -6 -17    0.58    0.66
  20  -6 -17    0.68    0.65
  20  -6 -18   -0.63    2.12
  20  -6 -18    1.25    0.75
  20  -6 -18    0.68    0.62
  21  -5  -1   -0.36    1.73
 -21   5   1   -0.03    1.79
  21  -5  -1    0.24    0.91
  21  -5  -1    0.21    1.07
  21  -5  -2    2.62    2.21
 -21   5   2    2.97    1.77
  21  -5  -2    7.30    1.00
  21  -5  -2    6.53    1.16
  21  -5  -3    2.30    1.90
 -21   5   3    3.33    1.92
  21  -5  -3    3.32    0.94
  21  -5  -3    2.10    0.98
  21  -5  -4    0.83    2.25
 -21   5   4    0.20    2.24
  21  -5  -4    0.30    0.89
  21  -5  -4    1.11    0.82
  21  -5  -5   -3.14    2.45
 -21   5   5    1.07    2.13
  21  -5  -5    0.89    0.89
  21  -5  -5    1.69    0.87
  21  -5  -6    4.38    2.12
 -21   5   6    7.06    2.51
  21  -5  -6    3.96    0.88
  21  -5  -6    5.18    0.82
  21  -5  -7    1.95    2.14
 -21   5   7    1.74    2.41
  21  -5  -7    0.71    0.80
  21  -5  -7    0.56    0.57
  21  -5  -8    5.32    2.69
 -21   5   8    6.55    2.37
  21  -5  -8   11.07    1.09
  21  -5  -8   11.20    0.98
  21  -5  -9   -0.11    2.81
 -21   5   9    0.48    2.56
  21  -5  -9    0.00    0.80
  21  -5  -9    0.62    0.63
  21  -5 -10    1.57    2.95
 -21   5  10   -0.82    2.47
  21  -5 -10    2.90    0.81
  21  -5 -10    2.68    0.67
  21  -5 -11    1.62    2.94
 -21   5  11    2.33    2.40
  21  -5 -11    2.06    0.72
  21  -5 -11    2.65    0.66
  21  -5 -12    5.99    2.98
 -21   5  12    9.03    2.49
  21  -5 -12    4.08    0.85
  21  -5 -12    5.93    0.70
  21  -5 -13    1.87    2.21
 -21   5  13   -0.23    2.04
  21  -5 -13   -0.28    0.68
  21  -5 -13    0.12    0.57
  21  -5 -14    7.24    2.80
  21  -5 -14    9.29    0.92
  21  -5 -14    8.43    0.78
  21  -5 -15    0.17    2.04
  21  -5 -15    0.63    0.68
  21  -5 -15    1.19    0.67
  21  -5 -16   -0.64    2.19
  21  -5 -16    0.84    0.70
  21  -5 -16   -0.41    0.66
  21  -5 -17   -0.19    1.83
  21  -5 -17    0.53    0.69
  21  -5 -17    0.44    0.70
  22  -4  -3    0.26    2.30
 -22   4   3    4.22    2.32
  22  -4  -3   -0.69    0.96
  22  -4  -3    0.55    1.07
  22  -4  -4   11.99    2.75
 -22   4   4   14.44    2.95
  22  -4  -4   16.77    1.44
  22  -4  -4   18.29    1.47
  22  -4  -5    1.32    2.04
 -22   4   5    2.85    2.06
  22  -4  -5    1.71    1.00
  22  -4  -5    0.86    0.87
  22  -4  -6    1.95    2.19
 -22   4   6   -0.82    2.04
  22  -4  -6    0.22    0.87
  22  -4  -6    0.87    0.82
  22  -4  -7    0.42    2.25
 -22   4   7    0.63    2.02
  22  -4  -7   -1.58    0.81
  22  -4  -7    0.30    0.77
  22  -4  -8    5.88    2.53
 -22   4   8   -0.67    2.10
  22  -4  -8    2.36    0.89
  22  -4  -8    1.44    0.78
  22  -4  -9    0.26    2.23
 -22   4   9    2.29    2.48
  22  -4  -9    0.41    0.79
  22  -4  -9    0.97    0.64
  22  -4 -10   11.04    3.02
 -22   4  10   10.44    2.82
  22  -4 -10    9.20    1.01
  22  -4 -10   10.15    0.94
  22  -4 -11   -0.59    2.63
 -22   4  11   -2.02    2.34
  22  -4 -11    0.49    0.66
  22  -4 -11    0.09    0.63
  22  -4 -12    4.52    2.70
 -22   4  12    4.68    2.13
  22  -4 -12   10.43    1.04
  22  -4 -12    9.18    0.90
  22  -4 -13    0.66    2.00
 -22   4  13   -0.65    2.00
  22  -4 -13   -0.29    0.71
  22  -4 -13    0.06    0.64
  22  -4 -14   -2.02    2.06
  22  -4 -14    0.98    0.75
  22  -4 -14    0.24    0.64
  22  -4 -15   -1.03    2.02
  22  -4 -15    0.13    0.74
  22  -4 -15    0.29    0.63
  22  -4 -16   -0.99    2.01
  22  -4 -16    2.38    0.73
  22  -4 -16    2.54    0.72
  23  -3  -6    2.69    2.50
 -23   3   6    0.89    2.30
  23  -3  -6    0.18    0.91
  23  -3  -6   -0.04    0.94
  23  -3  -7   -0.40    2.29
 -23   3   7    2.20    2.54
  23  -3  -7    0.19    0.90
  23  -3  -7    0.48    0.93
  23  -3  -8    2.86    2.37
 -23   3   8    2.52    2.08
  23  -3  -8    5.05    0.91
  23  -3  -8    3.98    0.93
  23  -3  -9    1.06    2.27
 -23   3   9    4.93    2.50
  23  -3  -9    2.65    0.83
  23  -3  -9    3.67    0.82
  23  -3 -10   -1.40    2.15
 -23   3  10    0.29    2.27
  23  -3 -10   -0.38    0.78
  23  -3 -10    0.02    0.76
  23  -3 -11    4.81    2.19
 -23   3  11    2.94    2.35
  23  -3 -11    4.98    0.74
  23  -3 -11    4.88    0.92
  23  -3 -12   -3.83    2.52
 -23   3  12   -0.04    2.13
  23  -3 -12   -0.36    0.71
  23  -3 -12   -0.30    0.72
  23  -3 -13    0.89    2.24
 -23   3  13    0.71    1.90
  23  -3 -13    0.48    0.62
  23  -3 -13    1.50    0.84
  23  -3 -14   -0.25    2.20
  23  -3 -14    0.32    0.72
  23  -3 -14    1.52    0.78
  -6  22  -1    0.61    2.84
   6 -22   1    1.05    0.87
  -6  22  -1   -0.15    0.59
  -6  22   0   10.12    2.92
   6 -22   0    8.66    0.97
  -6  22   0    9.76    0.93
  -6  22   1   -0.81    2.28
   6 -22  -1   -0.17    0.67
  -6  22   1   -0.48    0.66
   6 -22  -2    2.92    0.73
  -6  22   2    1.62    0.70
   6 -22  -3    0.03    0.71
  -6  22   3   -0.28    0.60
   6 -22  -4    0.26    0.69
  -6  22   4    1.48    0.72
   6 -22  -5   -0.48    0.62
  -6  22   5   -0.13    0.65
   6 -22  -6    6.48    0.81
  -6  22   6    3.59    0.69
  -7  21  -3    1.53    2.31
   7 -21   3    0.48    0.88
  -7  21  -3    0.39    0.65
  -7  21  -2   14.19    2.94
   7 -21   2   13.24    1.19
  -7  21  -2   13.41    1.05
  -7  21  -1    5.65    2.65
   7 -21   1    1.61    0.81
  -7  21  -1    1.71    0.69
  -7  21   0    3.88    2.39
   7 -21   0    3.29    0.77
  -7  21   0    4.69    0.81
  -7  21   1    5.74    2.64
   7 -21  -1    7.68    0.87
  -7  21   1    9.30    0.94
  -7  21   2    4.38    2.41
   7 -21  -2    6.01    0.78
  -7  21   2    5.28    0.85
  -7  21   3   -0.60    2.28
   7 -21  -3   -0.34    0.72
  -7  21   3   -0.23    0.70
   7 -21  -4    5.86    0.78
  -7  21   4    4.79    0.81
   7 -21  -5    1.06    2.12
   7 -21  -5    0.65    0.70
  -7  21   5    0.03    0.65
   7 -21  -6    7.05    2.37
   7 -21  -6    6.11    0.86
  -7  21   6    6.47    0.82
   7 -21  -7    2.54    2.34
   7 -21  -7    4.14    0.77
  -7  21   7    4.31    0.80
   7 -21  -8    1.42    2.52
   7 -21  -8    0.25    0.63
  -7  21   8    2.16    0.71
   7 -21  -9    3.61    3.07
   7 -21  -9    1.90    0.68
  -7  21   9    1.54    0.82
  -8  20  -4    4.09    2.28
   8 -20   4    0.35    0.97
  -8  20  -4    1.59    0.69
  -8  20  -3   20.89    3.34
   8 -20   3   20.61    1.51
  -8  20  -3   21.38    1.48
  -8  20  -2   -0.34    2.05
   8 -20   2    0.19    0.71
  -8  20  -2    0.26    0.75
  -8  20  -1   19.14    3.24
   8 -20   1   23.11    1.58
  -8  20  -1   21.43    1.51
  -8  20   0    0.29    2.08
   8 -20   0   -0.45    0.61
  -8  20   0    0.45    0.70
  -8  20   1    4.21    2.42
   8 -20  -1    4.61    0.80
  -8  20   1    3.23    0.70
  -8  20   2    0.25    2.31
   8 -20  -2    0.91    0.74
  -8  20   2   -0.89    0.67
   8 -20  -3   12.34    2.64
  -8  20   3   16.38    3.10
   8 -20  -3   14.95    1.19
  -8  20   3   11.39    1.02
   8 -20  -4    0.47    2.13
  -8  20   4   -0.05    2.15
   8 -20  -4   -0.29    0.65
  -8  20   4    0.14    0.63
   8 -20  -5   19.41    3.33
   8 -20  -5   18.11    1.32
  -8  20   5   18.62    1.38
   8 -20  -6    2.63    2.37
   8 -20  -6    4.52    0.72
  -8  20   6    3.39    0.72
   8 -20  -7    3.43    2.51
   8 -20  -7    4.14    0.69
  -8  20   7    4.31    0.83
   8 -20  -8    1.60    2.62
   8 -20  -8    1.01    0.64
  -8  20   8    1.38    0.75
   8 -20  -9    6.33    2.87
   8 -20  -9    6.25    0.78
  -8  20   9    7.86    0.92
   8 -20 -10   -0.47    2.61
   8 -20 -10    0.62    0.67
  -8  20  10    1.24    0.77
   8 -20 -11    0.82    2.47
   8 -20 -11    2.73    0.71
  -8  20  11    2.71    0.77
  -9  19  -5    4.60    2.10
  -9  19  -5    3.16    0.91
  -9  19  -4   -0.61    1.86
   9 -19   4    0.20    0.90
  -9  19  -4    0.91    0.71
  -9  19  -3    8.90    2.31
   9 -19   3    7.44    0.97
  -9  19  -3    9.27    0.96
  -9  19  -2    7.53    2.23
   9 -19   2   10.61    1.04
  -9  19  -2   11.32    1.06
  -9  19  -1    3.26    2.10
   9 -19   1    1.70    0.66
  -9  19  -1    1.25    0.77
  -9  19   0    2.68    1.97
   9 -19   0    4.14    0.79
  -9  19   0    3.85    0.84
  -9  19   1   14.87    2.86
   9 -19  -1    9.86    1.00
  -9  19   1   11.44    1.05
   9 -19  -2    1.60    1.94
  -9  19   2   -1.33    1.95
   9 -19  -2   -0.30    0.72
  -9  19   2    0.53    0.72
   9 -19  -3   13.35    2.58
  -9  19   3   13.15    2.62
   9 -19  -3   13.92    1.16
  -9  19   3   13.35    1.11
   9 -19  -4    0.60    2.15
  -9  19   4    3.30    2.18
   9 -19  -4    4.81    0.81
  -9  19   4    4.86    0.76
   9 -19  -5    5.34    2.17
  -9  19   5    7.14    2.16
   9 -19  -5    3.72    0.71
  -9  19   5    4.73    0.81
   9 -19  -6    3.41    2.21
  -9  19   6    3.66    1.77
   9 -19  -6    5.13    0.79
  -9  19   6    5.12    0.81
   9 -19  -7   17.28    3.22
   9 -19  -7   16.81    1.26
  -9  19   7   15.30    1.18
   9 -19  -8    1.67    2.55
   9 -19  -8    0.76    0.69
  -9  19   8    1.22    0.74
   9 -19  -9   10.64    2.76
   9 -19  -9    9.52    0.92
  -9  19   9    8.57    0.96
   9 -19 -10    5.54    2.61
   9 -19 -10    7.31    0.79
  -9  19  10    6.35    0.83
   9 -19 -11   -0.25    2.20
   9 -19 -11    0.04    0.65
  -9  19  11    0.34    0.63
   9 -19 -12    0.79    2.45
   9 -19 -12    1.70    0.67
  -9  19  12    1.38    0.68
 -10  18  -5    0.79    1.72
  10 -18   5   -0.47    0.98
 -10  18  -5    0.43    0.99
 -10  18  -4    7.94    2.12
  10 -18   4   10.48    1.19
 -10  18  -4   11.18    1.07
 -10  18  -3    2.98    2.02
  10 -18   3    3.92    0.91
 -10  18  -3    1.87    0.77
 -10  18  -2   -0.28    1.83
  10 -18   2    1.99    0.75
 -10  18  -2    1.51    0.83
 -10  18  -1    2.48    2.00
  10 -18   1    0.56    0.75
 -10  18  -1    0.63    0.70
 -10  18   0    7.42    2.48
  10 -18   0    9.95    0.99
 -10  18   0    9.61    0.97
  10 -18  -1    2.52    1.92
 -10  18   1    2.42    2.01
  10 -18  -1    1.75    0.72
 -10  18   1    1.35    0.70
  10 -18  -2   37.87    5.00
 -10  18   2   41.72    5.49
  10 -18  -2   37.52    2.28
 -10  18   2   41.19    2.50
  10 -18  -3   -0.60    1.89
 -10  18   3   -0.47    1.72
  10 -18  -3   -0.03    0.68
 -10  18   3   -1.02    0.72
  10 -18  -4    3.84    1.85
 -10  18   4    1.42    1.97
  10 -18  -4    4.01    0.79
 -10  18   4    2.24    0.72
  10 -18  -5    6.85    2.12
 -10  18   5    4.47    2.21
  10 -18  -5    6.54    0.85
 -10  18   5    6.47    0.84
  10 -18  -6   10.92    2.41
 -10  18   6   11.61    2.42
  10 -18  -6   12.30    1.02
 -10  18   6   12.79    1.13
  10 -18  -7    0.53    1.81
 -10  18   7    2.69    1.75
  10 -18  -7    0.74    0.66
 -10  18   7   -0.06    0.60
  10 -18  -8   29.27    4.23
  10 -18  -8   27.14    1.73
 -10  18   8   28.57    1.84
  10 -18  -9    5.62    2.10
  10 -18  -9    3.45    0.67
 -10  18   9    1.85    0.73
  10 -18 -10    6.57    2.33
  10 -18 -10    9.85    0.95
 -10  18  10    8.46    0.93
  10 -18 -11    4.12    2.42
  10 -18 -11    3.16    0.65
 -10  18  11    2.78    0.64
  10 -18 -12    0.60    2.07
  10 -18 -12    1.28    0.66
 -10  18  12    0.67    0.66
  10 -18 -13    0.95    2.23
  10 -18 -13    0.52    0.68
 -10  18  13    0.90    0.68
 -11  17  -5    1.68    1.58
  11 -17   5    2.12    1.02
 -11  17  -5   -0.12    1.08
 -11  17  -4    4.30    1.78
  11 -17   4    4.13    1.01
 -11  17  -4    3.37    0.88
 -11  17  -3    2.78    1.78
  11 -17   3    3.33    0.90
 -11  17  -3    5.51    0.84
 -11  17  -2   11.40    2.39
  11 -17   2   10.27    1.01
 -11  17  -2    9.11    0.99
 -11  17  -1   -2.05    1.84
  11 -17   1   -0.63    0.74
 -11  17  -1    0.77    0.73
  11 -17   0    5.31    1.89
 -11  17   0    5.63    2.14
  11 -17   0    5.14    0.84
 -11  17   0    6.09    0.85
  11 -17  -1    0.45    1.59
 -11  17   1   -0.81    1.59
  11 -17  -1    0.97    0.72
 -11  17   1    0.21    0.71
  11 -17  -2    5.42    1.77
 -11  17   2    7.47    2.09
  11 -17  -2    6.29    0.83
 -11  17   2    6.97    0.89
  11 -17  -3   10.71    2.31
 -11  17   3   10.30    2.17
  11 -17  -3   14.28    1.15
 -11  17   3   13.93    1.11
  11 -17  -4   30.16    4.18
 -11  17   4   31.12    4.25
  11 -17  -4   24.59    1.63
 -11  17   4   24.49    1.65
  11 -17  -5   -1.90    1.96
 -11  17   5   -1.27    1.97
  11 -17  -5    0.22    0.71
 -11  17   5    0.68    0.63
  11 -17  -6   18.14    2.95
 -11  17   6   18.73    3.08
  11 -17  -6   17.51    1.30
 -11  17   6   18.74    1.27
  11 -17  -7    2.80    1.95
 -11  17   7    2.44    1.84
  11 -17  -7    2.50    0.76
 -11  17   7    1.99    0.70
  11 -17  -8    1.36    1.78
 -11  17   8   -0.67    1.60
  11 -17  -8    0.71    0.61
 -11  17   8    0.86    0.56
  11 -17  -9    2.21    1.88
  11 -17  -9    1.41    0.69
 -11  17   9    2.40    0.76
  11 -17 -10   23.27    3.61
  11 -17 -10   16.32    1.20
 -11  17  10   16.81    1.28
  11 -17 -11    1.79    2.22
  11 -17 -11   -0.39    0.57
 -11  17  11   -0.07    0.65
  11 -17 -12   21.37    3.63
  11 -17 -12   20.45    1.42
 -11  17  12   19.84    1.36
  11 -17 -13    2.44    2.26
  11 -17 -13    0.31    0.65
 -11  17  13   -1.09    0.63
  11 -17 -14   -0.09    2.19
  11 -17 -14    3.77    0.71
 -11  17  14    3.85    0.76
 -12  16  -5   -0.26    1.19
  12 -16   5    0.09    0.98
 -12  16  -5    0.64    1.07
 -12  16  -4    4.51    1.64
 -12  16  -4    3.23    0.92
 -12  16  -3    5.74    1.75
  12 -16   3    3.25    0.84
 -12  16  -3    3.15    0.81
 -12  16  -2    1.54    1.86
  12 -16   2    1.19    0.82
 -12  16  -2    0.65    0.84
  12 -16   1    2.62    1.73
 -12  16  -1    5.06    1.85
  12 -16   1    4.70    0.85
 -12  16  -1    3.68    0.85
  12 -16   0    0.14    1.57
 -12  16   0    1.45    1.72
  12 -16   0   -0.31    0.70
 -12  16   0    1.03    0.72
  12 -16  -1    0.99    1.56
 -12  16   1   -0.51    1.51
  12 -16  -1    1.37    0.73
 -12  16   1    2.38    0.69
  12 -16  -2   19.01    3.01
 -12  16   2   21.05    3.24
  12 -16  -2   16.29    1.22
 -12  16   2   16.57    1.26
  12 -16  -3    0.42    1.75
 -12  16   3    1.39    1.76
  12 -16  -3    1.88    0.72
 -12  16   3    1.71    0.69
  12 -16  -4    0.52    1.71
 -12  16   4    2.36    1.75
  12 -16  -4    2.26    0.63
 -12  16   4    2.33    0.70
  12 -16  -5   38.84    5.17
 -12  16   5   35.91    4.84
  12 -16  -5   36.73    2.22
 -12  16   5   34.33    2.13
  12 -16  -6    1.51    1.80
 -12  16   6    2.31    1.80
  12 -16  -6    1.04    0.68
 -12  16   6    0.37    0.69
  12 -16  -7    3.62    1.79
 -12  16   7    1.19    1.85
  12 -16  -7    3.55    0.67
 -12  16   7    3.58    0.59
  12 -16  -8    8.72    2.16
 -12  16   8    8.24    1.93
  12 -16  -8    7.71    0.88
 -12  16   8    8.42    0.84
  12 -16  -9    1.98    1.81
 -12  16   9    3.50    1.69
  12 -16  -9    0.28    0.70
 -12  16   9    1.79    0.65
  12 -16 -10   12.54    2.64
  12 -16 -10   13.02    1.05
 -12  16  10   12.88    1.10
  12 -16 -11   25.67    3.89
  12 -16 -11   20.58    1.42
 -12  16  11   22.47    1.53
  12 -16 -12   -0.65    2.15
  12 -16 -12   -0.52    0.58
 -12  16  12    0.73    0.68
  12 -16 -13    9.03    2.60
  12 -16 -13   12.91    1.10
 -12  16  13   11.96    1.01
  12 -16 -14    0.74    2.07
  12 -16 -14    1.48    0.69
 -12  16  14    1.25    0.74
  12 -16 -15   -0.54    1.93
  12 -16 -15    1.08    0.56
 -12  16  15    0.41    0.76
 -13  15  -5    5.20    1.53
  13 -15   5    3.04    1.14
 -13  15  -4   -0.36    1.36
  13 -15   4    0.65    0.90
 -13  15  -4    1.17    0.94
 -13  15  -3    3.32    1.68
  13 -15   3    1.84    0.86
 -13  15  -3    2.31    0.86
 -13  15  -2    3.05    1.87
  13 -15   2    3.69    0.94
 -13  15  -2    4.27    0.87
  13 -15   1    1.90    1.75
 -13  15  -1    4.68    1.70
  13 -15   1    0.46    0.77
 -13  15  -1    1.02    0.79
  13 -15   0    1.53    1.41
 -13  15   0    0.91    1.76
  13 -15   0    0.91    0.76
 -13  15   0    1.07    0.74
  13 -15  -1    6.96    1.85
 -13  15   1    9.58    2.33
  13 -15  -1    7.02    0.94
 -13  15   1    6.43    0.83
  13 -15  -2    0.87    1.71
 -13  15   2   -0.62    1.52
  13 -15  -2    0.51    0.76
 -13  15   2    0.00    0.61
  13 -15  -3   12.26    2.38
 -13  15   3   11.66    2.40
  13 -15  -3   12.54    1.09
 -13  15   3   13.84    1.11
  13 -15  -4    1.62    1.77
 -13  15   4    3.50    1.83
  13 -15  -4    2.72    0.71
 -13  15   4    2.12    0.71
  13 -15  -5    6.29    2.02
 -13  15   5    6.23    1.79
  13 -15  -5    6.71    0.84
 -13  15   5    8.48    0.89
  13 -15  -6   10.31    2.45
 -13  15   6   11.44    2.37
  13 -15  -6   11.30    1.03
 -13  15   6   11.02    0.98
  13 -15  -7   27.25    3.90
 -13  15   7   30.01    4.24
  13 -15  -7   20.72    1.46
 -13  15   7   20.25    1.43
  13 -15  -8    1.53    1.77
 -13  15   8    1.49    1.79
  13 -15  -8    0.67    0.66
 -13  15   8   -0.25    0.57
  13 -15  -9   23.63    3.64
 -13  15   9   22.44    3.28
  13 -15  -9   20.60    1.43
 -13  15   9   25.65    1.66
  13 -15 -10    2.20    1.92
  13 -15 -10    1.58    0.68
 -13  15  10    1.38    0.67
  13 -15 -11    6.47    2.28
  13 -15 -11   10.10    1.00
 -13  15  11    8.98    0.88
  13 -15 -12    3.46    2.22
  13 -15 -12    4.08    0.72
 -13  15  12    4.49    0.76
  13 -15 -13    3.53    2.22
  13 -15 -13    3.78    0.66
 -13  15  13    4.80    0.86
  13 -15 -14   -2.26    2.24
  13 -15 -14    1.05    0.60
 -13  15  14    0.04    0.63
  13 -15 -15    6.13    2.20
  13 -15 -15    4.75    0.73
  13 -15 -16    0.52    1.88
  13 -15 -16    0.44    0.69
 -14  14  -4    8.61    1.80
  14 -14   4    9.81    1.18
 -14  14  -3    3.73    1.49
  14 -14   3    1.91    0.78
  14 -14   2   -0.10    1.48
 -14  14  -2    0.98    1.53
  14 -14   2    0.89    0.85
 -14  14  -2    0.46    0.83
  14 -14   1    2.07    1.76
 -14  14  -1    3.97    1.84
  14 -14   1    4.26    0.90
 -14  14  -1    3.58    0.86
  14 -14   0   14.03    2.37
 -14  14   0   14.36    2.49
  14 -14   0   14.71    1.23
 -14  14   0   13.86    1.18
  14 -14  -1   -0.89    1.66
 -14  14   1    1.32    1.61
  14 -14  -1    0.08    0.73
 -14  14   1    0.50    0.73
  14 -14  -2    3.53    1.88
 -14  14   2    7.09    1.95
  14 -14  -2    7.79    0.90
 -14  14   2    8.00    0.86
  14 -14  -3   14.53    2.65
 -14  14   3   14.15    2.48
  14 -14  -3   10.23    0.99
 -14  14   3   11.33    1.00
  14 -14  -4    0.38    1.55
 -14  14   4   -0.62    1.76
  14 -14  -4    1.53    0.73
 -14  14   4    1.18    0.66
  14 -14  -5   21.09    3.22
 -14  14   5   24.32    3.49
  14 -14  -5   22.75    1.54
 -14  14   5   20.71    1.44
  14 -14  -6    1.52    1.79
 -14  14   6    1.73    1.65
  14 -14  -6    1.98    0.74
 -14  14   6    2.00    0.71
  14 -14  -7    3.13    1.89
 -14  14   7    1.83    1.93
  14 -14  -7    3.28    0.75
 -14  14   7    3.58    0.71
  14 -14  -8   48.30    6.27
 -14  14   8   43.41    5.67
  14 -14  -8   40.70    2.45
 -14  14   8   39.78    2.38
  14 -14  -9    2.63    1.96
 -14  14   9    0.22    1.88
  14 -14  -9    1.79    0.75
 -14  14   9    1.14    0.60
  14 -14 -10   12.20    2.50
 -14  14  10   13.67    2.56
  14 -14 -10   14.69    1.20
 -14  14  10   14.02    1.14
  14 -14 -11   19.62    3.21
  14 -14 -11   12.91    1.07
 -14  14  11   14.22    1.19
  14 -14 -12   -0.49    2.04
  14 -14 -12    0.20    0.69
 -14  14  12   -0.36    0.58
  14 -14 -13    3.25    2.10
  14 -14 -13    3.78    0.69
  14 -14 -14    6.65    2.58
  14 -14 -14    6.65    0.77
  14 -14 -15   -3.82    2.23
  14 -14 -15    0.29    0.63
  14 -14 -16    1.12    2.17
  14 -14 -16    1.81    0.69
  14 -14 -17    0.22    0.61
 -15  13  -4    0.50    1.46
  15 -13   4   -0.45    0.85
  15 -13   4    0.44    0.84
 -15  13  -3    0.89    1.45
  15 -13   3    0.21    0.82
  15 -13   3   -0.23    0.84
  15 -13   2   15.84    2.63
 -15  13  -2   12.97    2.23
  15 -13   2   15.89    1.34
  15 -13   1    0.53    1.82
 -15  13  -1   -0.18    1.58
  15 -13   1    0.72    0.82
  15 -13   0    8.00    2.10
 -15  13   0   12.58    2.38
  15 -13   0   13.14    1.21
  15 -13  -1    1.43    1.71
 -15  13   1    1.57    1.88
  15 -13  -1    1.91    0.85
  15 -13  -2    2.81    1.95
 -15  13   2    0.68    1.60
  15 -13  -2    0.69    0.68
  15 -13  -3    2.39    1.71
 -15  13   3    2.70    1.68
  15 -13  -3    3.94    0.79
 -15  13   3    2.90    0.70
  15 -13  -4   53.96    6.97
 -15  13   4   56.13    7.23
  15 -13  -4   42.16    2.53
 -15  13   4   45.73    2.71
  15 -13  -5    4.61    1.83
 -15  13   5    0.35    1.89
  15 -13  -5    1.28    0.70
 -15  13   5    2.22    0.74
  15 -13  -6   29.55    4.21
 -15  13   6   24.73    3.62
  15 -13  -6   25.42    1.68
 -15  13   6   25.33    1.67
  15 -13  -7    3.66    1.87
 -15  13   7    2.22    1.68
  15 -13  -7    1.73    0.75
 -15  13   7    1.78    0.76
  15 -13  -8   21.79    3.52
 -15  13   8   20.74    3.32
  15 -13  -8   25.96    1.71
 -15  13   8   25.48    1.61
  15 -13  -9    1.94    2.18
 -15  13   9    3.97    1.84
  15 -13  -9    1.94    0.67
 -15  13   9    4.12    0.76
  15 -13 -10    9.09    2.36
 -15  13  10    9.47    2.13
  15 -13 -10    8.46    0.89
  15 -13 -11    0.59    2.02
 -15  13  11    0.12    1.55
  15 -13 -11    1.30    0.67
  15 -13 -12   26.93    4.11
  15 -13 -12   27.03    1.73
  15 -13 -13    2.05    2.12
  15 -13 -13    3.42    0.69
  15 -13 -14   10.30    2.70
  15 -13 -14   15.43    1.13
  15 -13 -15    0.29    2.16
  15 -13 -15   -0.24    0.61
  15 -13 -16    2.92    2.12
  15 -13 -16   -0.08    0.59
  15 -13 -17   -0.50    2.16
  15 -13 -17   -1.10    0.67
  15 -13 -17   -0.22    0.61
 -16  12  -3    2.09    1.51
  16 -12   3    1.87    0.85
  16 -12   3    1.06    0.86
  16 -12   2    2.32    1.87
 -16  12  -2    0.75    1.58
  16 -12   2    3.22    0.94
  16 -12   2    2.33    0.90
  16 -12   1    1.67    1.90
 -16  12  -1    2.31    1.74
  16 -12   1    2.51    0.89
  16 -12   1    3.49    0.81
  16 -12   0    1.00    1.64
 -16  12   0    0.27    1.74
  16 -12   0    0.86    0.82
  16 -12   0    1.12    0.70
  16 -12  -1    3.43    2.14
 -16  12   1    2.81    1.72
  16 -12  -1    6.02    0.91
  16 -12  -2   15.67    2.86
 -16  12   2   16.25    2.81
  16 -12  -2   15.76    1.24
  16 -12  -3    1.68    2.01
 -16  12   3   -0.17    1.84
  16 -12  -3    0.03    0.72
  16 -12  -4   15.52    2.99
 -16  12   4   12.02    2.40
  16 -12  -4   18.26    1.30
  16 -12  -5   23.50    3.76
 -16  12   5   24.98    3.70
  16 -12  -5   26.11    1.71
  16 -12  -6    1.84    2.17
 -16  12   6   -1.55    1.66
  16 -12  -6    0.30    0.70
  16 -12  -7    3.51    1.96
 -16  12   7    0.74    1.70
  16 -12  -7    3.14    0.69
  16 -12  -8    4.40    2.26
 -16  12   8    3.27    1.94
  16 -12  -8    3.52    0.69
  16 -12  -9    0.17    2.17
 -16  12   9   -0.47    1.67
  16 -12  -9    2.37    0.74
  16 -12 -10    8.03    2.43
 -16  12  10    6.70    2.02
  16 -12 -10    8.86    0.89
  16 -12 -11    1.94    2.20
 -16  12  11    2.71    1.69
  16 -12 -11    1.99    0.67
  16 -12 -12    0.53    2.24
  16 -12 -12   -0.08    0.68
  16 -12 -13    7.80    2.25
  16 -12 -13   10.24    0.96
  16 -12 -14    0.89    2.36
  16 -12 -14    0.30    0.63
  16 -12 -15    3.89    2.47
  16 -12 -15    7.52    0.83
  16 -12 -15    6.30    0.79
  16 -12 -16    3.54    2.20
  16 -12 -16    5.07    0.83
  16 -12 -16    5.27    0.73
  16 -12 -17   -0.64    2.24
  16 -12 -17    1.38    0.77
  16 -12 -17    0.58    0.55
 -17  11  -3   11.15    2.21
  17 -11   3    9.49    1.11
  17 -11   3   11.39    1.16
  17 -11   2   -2.11    1.88
 -17  11  -2    0.30    1.46
  17 -11   2   -0.92    0.83
  17 -11   2    0.84    0.88
  17 -11   1    0.95    2.05
 -17  11  -1    0.77    1.62
  17 -11   1    3.00    0.89
  17 -11   1    2.37    0.88
  17 -11   0    2.79    1.76
 -17  11   0    4.58    1.87
  17 -11   0    5.60    0.95
  17 -11   0    6.20    0.93
  17 -11  -1    1.22    2.09
 -17  11   1    4.08    1.79
  17 -11  -1    2.79    0.80
  17 -11  -1    3.61    0.85
  17 -11  -2   -1.38    2.08
 -17  11   2   -0.20    1.99
  17 -11  -2   -0.57    0.74
  17 -11  -2    0.24    0.71
  17 -11  -3   36.31    4.90
 -17  11   3   33.66    4.53
  17 -11  -3   41.83    2.52
  17 -11  -3   35.51    2.17
  17 -11  -4    0.41    2.25
 -17  11   4    1.33    1.66
  17 -11  -4   -0.09    0.74
  17 -11  -4   -0.33    0.63
  17 -11  -5    0.49    1.93
 -17  11   5   -1.44    1.63
  17 -11  -5    1.91    0.69
  17 -11  -5    2.23    0.62
  17 -11  -6   -0.82    2.07
 -17  11   6    0.77    1.81
  17 -11  -6    0.03    0.66
  17 -11  -6   -0.10    0.58
  17 -11  -7    9.27    2.69
 -17  11   7    4.48    1.87
  17 -11  -7    5.58    0.80
  17 -11  -8    2.92    2.24
 -17  11   8    3.01    1.92
  17 -11  -8    3.59    0.71
  17 -11  -9   15.41    3.00
 -17  11   9   16.52    2.91
  17 -11  -9   16.25    1.25
  17 -11 -10    2.66    2.04
 -17  11  10   -0.64    1.89
  17 -11 -10    0.78    0.70
  17 -11 -10    0.18    0.55
  17 -11 -11    5.91    2.28
 -17  11  11    4.89    1.87
  17 -11 -11    8.10    0.88
  17 -11 -11    7.69    0.78
  17 -11 -12    0.60    2.10
 -17  11  12   -1.03    1.60
  17 -11 -12    0.97    0.69
  17 -11 -12    0.56    0.63
  17 -11 -13    1.68    2.31
  17 -11 -13    1.56    0.67
  17 -11 -13    0.19    0.59
  17 -11 -14   -0.39    2.14
  17 -11 -14   -0.25    0.59
  17 -11 -14    0.07    0.60
  17 -11 -15    8.48    2.58
  17 -11 -15    7.01    0.80
  17 -11 -15    7.51    0.81
  17 -11 -16   -0.39    1.82
  17 -11 -16    0.43    0.70
  17 -11 -16   -0.59    0.63
  17 -11 -17    7.48    2.16
  17 -11 -17    8.81    0.97
  17 -11 -17    7.32    0.79
  18 -10   2    2.94    1.78
 -18  10  -2    2.76    1.73
  18 -10   2    3.56    0.91
  18 -10   2    2.81    0.90
  18 -10   1    4.16    2.18
 -18  10  -1    4.77    1.80
  18 -10   1    4.29    0.93
  18 -10   1    3.38    0.96
  18 -10   0    2.36    1.83
 -18  10   0   -0.08    1.72
  18 -10   0   -0.61    0.78
  18 -10   0   -0.10    0.88
  18 -10  -1    4.50    2.07
 -18  10   1    4.12    2.05
  18 -10  -1    5.89    0.97
  18 -10  -1    6.57    0.96
  18 -10  -2    4.47    2.31
 -18  10   2    2.41    1.97
  18 -10  -2    2.56    0.78
  18 -10  -2    4.25    0.86
  18 -10  -3    0.02    2.17
 -18  10   3   -0.92    1.72
  18 -10  -3   -0.99    0.76
  18 -10  -3    0.13    0.78
  18 -10  -4   10.53    2.45
 -18  10   4    8.03    2.14
  18 -10  -5   12.86    2.78
 -18  10   5   13.90    2.53
  18 -10  -5   13.20    1.11
  18 -10  -5   14.06    1.10
  18 -10  -6   -2.16    2.16
 -18  10   6   -0.07    1.88
  18 -10  -6   -0.10    0.69
  18 -10  -6    0.49    0.66
  18 -10  -7   23.56    3.69
 -18  10   7   19.89    3.14
  18 -10  -7   27.96    1.79
  18 -10  -7   24.34    1.57
  18 -10  -8    7.58    2.52
 -18  10   8    6.34    2.12
  18 -10  -8    7.63    0.85
  18 -10  -8    8.27    0.84
  18 -10  -9    4.16    2.39
 -18  10   9    6.18    2.21
  18 -10  -9    4.72    0.70
  18 -10  -9    4.67    0.71
  18 -10 -10    5.98    2.49
 -18  10  10    3.75    2.04
  18 -10 -10    7.20    0.86
  18 -10 -10    7.13    0.80
  18 -10 -11    0.39    2.30
 -18  10  11    3.69    1.78
  18 -10 -11    0.98    0.60
  18 -10 -11    1.37    0.59
  18 -10 -12   -0.55    2.19
 -18  10  12   -0.52    1.77
  18 -10 -12   -0.66    0.69
  18 -10 -12    0.14    0.60
  18 -10 -13    1.94    2.38
  18 -10 -13    3.99    0.69
  18 -10 -13    4.70    0.74
  18 -10 -14    0.51    2.13
  18 -10 -14    0.07    0.62
  18 -10 -14    0.93    0.59
  18 -10 -15    8.06    2.79
  18 -10 -15    8.38    0.86
  18 -10 -15   10.59    0.92
  18 -10 -16    5.16    2.44
  18 -10 -16    5.07    0.78
  18 -10 -16    5.13    0.70
  18 -10 -17   -0.04    1.95
  18 -10 -17    0.30    0.77
  18 -10 -17    0.02    0.59
  19  -9   1   -0.42    2.03
 -19   9  -1   -0.66    1.78
  19  -9   1   -0.83    0.80
  19  -9   1   -0.10    1.03
  19  -9   0    9.22    2.08
 -19   9   0   11.33    2.13
  19  -9   0   12.74    1.18
  19  -9   0   13.64    1.31
  19  -9  -1    1.58    2.06
 -19   9   1    1.77    1.56
  19  -9  -1    0.94    0.83
  19  -9  -1    1.63    0.90
  19  -9  -2    1.47    2.31
 -19   9   2    0.28    1.69
  19  -9  -2    1.62    0.80
  19  -9  -2    1.19    0.79
  19  -9  -3    3.09    1.93
 -19   9   3    2.95    1.87
  19  -9  -3    1.42    0.78
  19  -9  -3    0.80    0.74
  19  -9  -4    5.14    2.46
 -19   9   4    4.12    1.97
  19  -9  -4    1.06    0.69
  19  -9  -4    1.88    0.72
  19  -9  -5    0.54    2.34
 -19   9   5    0.26    1.74
  19  -9  -5    0.98    0.75
  19  -9  -5    0.42    0.69
  19  -9  -6   17.02    3.07
 -19   9   6   22.43    3.64
  19  -9  -6   21.13    1.48
  19  -9  -6   21.08    1.45
  19  -9  -7   -2.41    2.09
 -19   9   7    2.45    1.80
  19  -9  -7    0.53    0.69
  19  -9  -7    0.79    0.70
  19  -9  -8    8.26    2.70
 -19   9   8    7.16    2.00
  19  -9  -8   13.92    1.14
  19  -9  -8   13.71    1.06
  19  -9  -9   -2.06    2.37
 -19   9   9    0.63    2.00
  19  -9  -9    0.35    0.63
  19  -9  -9    0.31    0.63
  19  -9 -10    0.48    2.46
 -19   9  10    1.02    1.95
  19  -9 -10    0.44    0.64
  19  -9 -10    0.24    0.64
  19  -9 -11    0.57    2.51
 -19   9  11    1.62    1.81
  19  -9 -11    0.17    0.66
  19  -9 -11    0.17    0.63
  19  -9 -12    9.47    2.57
 -19   9  12    7.04    2.21
  19  -9 -12    7.60    0.91
  19  -9 -12    7.63    0.81
  19  -9 -13   -0.84    2.41
  19  -9 -13    0.35    0.68
  19  -9 -13    0.05    0.59
  19  -9 -14    4.74    2.61
  19  -9 -14    4.73    0.77
  19  -9 -14    5.44    0.70
  19  -9 -15    1.32    2.33
  19  -9 -15    0.86    0.66
  19  -9 -15    2.02    0.66
  19  -9 -16    2.52    2.40
  19  -9 -16    4.24    0.83
  19  -9 -16    3.56    0.69
  19  -9 -17    0.28    2.09
  19  -9 -17   -0.05    0.80
  19  -9 -17   -0.26    0.62
  20  -8  -1    4.65    2.28
 -20   8   1    1.83    1.64
  20  -8  -1    4.03    0.88
  20  -8  -1    3.71    1.00
  20  -8  -2    7.98    2.23
 -20   8   2    6.65    1.93
  20  -8  -2    6.56    0.95
  20  -8  -2    6.44    1.13
  20  -8  -3    4.18    1.99
 -20   8   3    3.64    1.71
  20  -8  -3    3.75    0.83
  20  -8  -3    2.50    0.88
  20  -8  -4    7.73    2.48
 -20   8   4    8.18    2.22
  20  -8  -4    6.44    0.96
  20  -8  -4    6.62    0.94
  20  -8  -5    1.31    2.49
 -20   8   5    1.77    2.01
  20  -8  -5    3.28    0.81
  20  -8  -5    2.47    0.73
  20  -8  -6   -0.89    2.14
 -20   8   6    0.08    2.05
  20  -8  -6    1.39    0.78
  20  -8  -6    1.57    0.72
  20  -8  -7    4.70    2.31
 -20   8   7    4.59    2.04
  20  -8  -7    5.96    0.85
  20  -8  -7    5.04    0.70
  20  -8  -8    3.63    2.44
 -20   8   8    7.61    2.18
  20  -8  -8    4.52    0.76
  20  -8  -8    5.20    0.80
  20  -8  -9   -0.71    2.60
 -20   8   9   -0.19    1.91
  20  -8  -9    1.45    0.76
  20  -8  -9    1.05    0.68
  20  -8 -10   10.48    2.93
 -20   8  10    9.65    2.32
  20  -8 -10    8.02    0.96
  20  -8 -10    7.84    0.81
  20  -8 -11   -1.82    2.25
 -20   8  11    0.60    1.97
  20  -8 -11    0.07    0.73
  20  -8 -11    0.60    0.61
  20  -8 -12    6.51    2.64
 -20   8  12    5.75    2.02
  20  -8 -12    6.82    0.84
  20  -8 -12    6.68    0.76
  20  -8 -13    4.86    2.85
 -20   8  13    4.70    1.91
  20  -8 -13    6.84    0.88
  20  -8 -13    6.93    0.75
  20  -8 -14    0.69    2.21
  20  -8 -14    0.45    0.74
  20  -8 -14    1.22    0.60
  20  -8 -15    3.26    2.19
  20  -8 -15    0.22    0.77
  20  -8 -15    0.03    0.58
  20  -8 -16    4.20    2.13
  20  -8 -16    6.90    0.91
  20  -8 -16    5.38    0.79
  20  -8 -17    2.81    2.28
  20  -8 -17    0.63    0.74
  20  -8 -17    0.52    0.65
  21  -7  -2    1.10    2.10
 -21   7   2   -0.97    1.85
  21  -7  -2    0.88    0.91
  21  -7  -2    0.21    1.01
  21  -7  -3   14.25    2.70
 -21   7   3   17.69    2.97
  21  -7  -3   16.07    1.35
  21  -7  -3   17.86    1.44
  21  -7  -4    1.98    2.28
 -21   7   4    1.05    2.12
  21  -7  -4   -0.07    0.88
  21  -7  -4    1.53    0.82
  21  -7  -5    2.54    2.60
 -21   7   5    4.36    2.11
  21  -7  -5    8.47    1.06
  21  -7  -5    6.43    0.95
  21  -7  -6   -0.41    2.40
 -21   7   6    0.05    1.99
  21  -7  -6    0.43    0.80
  21  -7  -6    0.00    0.71
  21  -7  -7    3.41    2.60
 -21   7   7    0.11    1.98
  21  -7  -7    0.94    0.78
  21  -7  -7    0.43    0.70
  21  -7  -8   -1.06    2.47
 -21   7   8    1.13    1.90
  21  -7  -8    0.36    0.76
  21  -7  -8   -0.50    0.68
  21  -7  -9   14.20    3.18
 -21   7   9   14.31    2.78
  21  -7  -9   14.84    1.25
  21  -7  -9   14.55    1.11
  21  -7 -10    0.20    2.50
 -21   7  10   -0.07    1.97
  21  -7 -10   -0.94    0.71
  21  -7 -10   -0.18    0.56
  21  -7 -11    9.32    2.90
 -21   7  11    9.78    2.29
  21  -7 -12    0.30    2.64
 -21   7  12    1.02    2.01
  21  -7 -12    0.31    0.78
  21  -7 -12    1.14    0.66
  21  -7 -13    2.94    2.26
 -21   7  13    4.29    2.10
  21  -7 -13    5.82    0.88
  21  -7 -13    5.94    0.77
  21  -7 -14   -2.95    2.18
  21  -7 -15    3.73    2.49
  21  -7 -15    1.02    0.76
  21  -7 -15    1.65    0.60
  21  -7 -16    0.30    1.95
  21  -7 -16    0.64    0.73
  21  -7 -16    1.26    0.61
  22  -6  -4    1.17    2.01
 -22   6   4    2.02    2.35
  22  -6  -4    3.19    1.11
  22  -6  -4    1.95    0.98
  22  -6  -5    4.97    2.36
 -22   6   5    0.50    2.22
  22  -6  -5    2.80    1.01
  22  -6  -5    2.63    0.87
  22  -6  -6    2.49    2.51
 -22   6   6    0.23    1.97
  22  -6  -6    0.88    0.90
  22  -6  -6    0.25    0.82
  22  -6  -7    3.53    2.38
 -22   6   7    2.53    2.06
  22  -6  -7    5.34    0.95
  22  -6  -7    5.83    0.90
  22  -6  -8   -0.23    2.33
 -22   6   8    1.03    2.27
  22  -6  -8    0.43    0.85
  22  -6  -8    0.33    0.68
  22  -6  -9    2.06    2.34
 -22   6   9    4.42    2.40
  22  -6  -9    3.88    0.91
  22  -6  -9    4.38    0.79
  22  -6 -10    0.59    2.31
 -22   6  10    3.02    2.11
  22  -6 -10    1.57    0.76
  22  -6 -10    2.51    0.65
  22  -6 -11   -0.46    2.03
 -22   6  11    0.70    2.11
  22  -6 -11    0.99    0.83
  22  -6 -11    0.52    0.66
  22  -6 -12   -0.70    1.93
 -22   6  12   -3.30    1.94
  22  -6 -12   -0.92    0.81
  22  -6 -12    0.43    0.60
  22  -6 -13    1.57    2.45
 -22   6  13    3.86    2.16
  22  -6 -13    1.72    0.69
  22  -6 -13    1.88    0.61
  22  -6 -14    2.89    2.23
  22  -6 -14    3.76    0.77
  22  -6 -14    2.56    0.62
  22  -6 -15   -0.85    1.97
  22  -6 -15    2.31    0.80
  22  -6 -15    1.70    0.60
  23  -5  -7    2.05    2.43
  23  -5  -7   -0.52    0.92
  23  -5  -7    0.48    0.92
  23  -5  -8    2.44    2.32
 -23   5   8    2.58    2.02
  23  -5  -8    3.70    0.91
  23  -5  -8    4.99    0.94
  23  -5  -9    0.18    2.43
 -23   5   9    1.11    2.37
  23  -5  -9    0.83    0.80
  23  -5  -9    0.46    0.83
  23  -5 -10    0.13    2.33
 -23   5  10   -1.72    2.15
  23  -5 -10   -0.01    0.77
  23  -5 -10    0.64    0.68
  23  -5 -11   -2.09    2.41
 -23   5  11   -0.88    2.16
  23  -5 -11   -0.28    0.79
  23  -5 -11    1.72    0.65
  23  -5 -12    2.88    2.15
 -23   5  12    2.34    2.35
  23  -5 -12    1.42    0.79
  23  -5 -12    0.87    0.68
  23  -5 -13    0.49    2.05
  23  -5 -13    0.34    0.83
  23  -5 -13    0.38    0.69
  -8  22   3    1.21    2.54
  -9  21   0    2.50    2.57
   9 -21   0    3.79    0.92
  -9  21   0    4.61    0.85
  -9  21   1    8.55    2.61
   9 -21  -1    8.64    0.94
  -9  21   1    7.39    0.89
  -9  21   2   -3.19    2.59
   9 -21  -2    1.21    0.80
  -9  21   2   -0.47    0.64
  -9  21   3   -0.33    2.43
   9 -21  -3    0.45    0.65
  -9  21   3    0.99    0.68
   9 -21  -4    5.12    2.48
  -9  21   4    2.41    2.38
   9 -21  -4    5.09    0.84
  -9  21   4    4.11    0.74
   9 -21  -5    1.71    2.45
   9 -21  -5    0.10    0.66
  -9  21   5    0.60    0.66
   9 -21  -6    5.29    2.60
   9 -21  -6    4.62    0.83
  -9  21   6    5.61    0.83
   9 -21  -7    3.80    3.05
   9 -21  -7    2.57    0.75
  -9  21   7    3.15    0.76
   9 -21  -8    0.97    2.81
   9 -21  -8    0.59    0.72
  -9  21   8    0.43    0.69
 -10  20  -1   10.11    2.75
  10 -20   1   10.41    1.08
 -10  20  -1   11.17    1.15
 -10  20   0    1.17    2.65
  10 -20   0    0.12    0.67
 -10  20   0    1.09    0.82
 -10  20   1    0.08    2.29
  10 -20  -1    3.80    0.82
 -10  20   1    2.05    0.81
  10 -20  -2    0.06    2.15
 -10  20   2    0.11    2.13
  10 -20  -2   -0.06    0.74
 -10  20   2    1.30    0.73
  10 -20  -3   15.48    2.87
 -10  20   3   16.72    3.16
  10 -20  -3   14.40    1.11
 -10  20   3   14.77    1.19
  10 -20  -4    0.87    1.95
 -10  20   4   -3.29    2.39
  10 -20  -4    0.26    0.69
 -10  20   4    0.17    0.71
  10 -20  -5    3.25    2.38
 -10  20   5    3.38    2.39
  10 -20  -5    3.52    0.76
 -10  20   5    3.84    0.77
  10 -20  -6    0.76    2.40
 -10  20   6    3.76    2.17
  10 -20  -6    0.88    0.65
 -10  20   6   -0.58    0.73
  10 -20  -7    3.95    2.56
  10 -20  -7    3.67    0.71
 -10  20   7    3.24    0.70
  10 -20  -8   -1.09    2.72
  10 -20  -8    0.00    0.58
 -10  20   8    0.23    0.72
  10 -20  -9    1.47    2.55
  10 -20  -9    0.58    0.57
 -10  20   9    0.84    0.71
  10 -20 -10    1.78    2.90
  10 -20 -10    1.01    0.71
 -10  20  10   -0.51    0.72
 -11  19  -2   -0.01    2.10
  11 -19   2    2.09    1.00
 -11  19  -2    1.02    0.84
 -11  19  -1    1.17    2.16
  11 -19   1    2.34    0.82
 -11  19  -1    3.14    0.84
 -11  19   0    5.65    1.93
  11 -19   0    6.33    0.90
 -11  19   0    6.07    0.89
  11 -19  -1   11.95    2.32
 -11  19   1   10.79    2.60
  11 -19  -1    8.61    0.93
 -11  19   1   10.68    1.10
  11 -19  -2    0.89    1.86
 -11  19   2    3.38    2.05
  11 -19  -2    2.59    0.77
 -11  19   2    2.13    0.75
  11 -19  -3   16.92    2.98
 -11  19   3   24.11    3.68
  11 -19  -3   20.28    1.41
 -11  19   3   20.53    1.46
  11 -19  -4   13.13    2.69
 -11  19   4   13.28    2.72
  11 -19  -4   11.63    1.04
 -11  19   4   13.39    1.14
  11 -19  -5    4.76    2.21
 -11  19   5    1.54    2.22
  11 -19  -5    1.94    0.73
 -11  19   5    3.21    0.73
  11 -19  -6    3.22    2.23
 -11  19   6    0.27    1.97
  11 -19  -6    0.28    0.59
 -11  19   6    0.40    0.73
  11 -19  -7    7.22    2.46
 -11  19   7    5.55    2.19
  11 -19  -7    4.13    0.74
 -11  19   7    3.40    0.83
  11 -19  -8   -0.39    2.41
  11 -19  -8    2.06    0.73
 -11  19   8    1.08    0.68
  11 -19  -9   15.34    3.14
  11 -19  -9   14.97    1.13
 -11  19   9   15.67    1.22
  11 -19 -10   -0.47    2.21
  11 -19 -10    0.18    0.59
 -11  19  10    0.59    0.73
  11 -19 -11    3.98    2.17
  11 -19 -11    1.72    0.69
 -11  19  11    2.01    0.76
 -12  18  -2    2.95    2.05
  12 -18   2    3.72    0.94
 -12  18  -2    3.85    0.82
 -12  18  -1    1.59    1.77
  12 -18   1    1.43    0.85
 -12  18  -1    2.34    0.87
 -12  18   0    4.35    2.01
  12 -18   0    3.82    0.83
 -12  18   0    3.78    0.83
  12 -18  -1    1.93    1.80
 -12  18   1    1.34    1.84
  12 -18  -1    0.01    0.73
 -12  18   1   -0.47    0.78
  12 -18  -2    7.79    2.10
 -12  18   2    7.08    2.30
  12 -18  -2    8.42    0.92
 -12  18   2    8.42    0.94
  12 -18  -3    1.06    1.86
 -12  18   3    0.71    1.87
  12 -18  -3    0.19    0.70
 -12  18   3    0.55    0.68
  12 -18  -4   24.59    3.76
 -12  18   4   23.58    3.62
  12 -18  -4   27.71    1.78
 -12  18   4   25.33    1.66
  12 -18  -5    3.90    1.99
 -12  18   5    3.68    2.19
  12 -18  -5    1.31    0.71
 -12  18   5    0.95    0.69
  12 -18  -6   15.04    2.77
 -12  18   6   17.86    3.04
  12 -18  -6   14.81    1.16
 -12  18   6   16.21    1.26
  12 -18  -7   -0.68    2.08
 -12  18   7    2.40    2.00
  12 -18  -7    5.59    0.82
 -12  18   7    5.41    0.82
  12 -18  -8    8.31    2.29
 -12  18   8    3.98    2.05
  12 -18  -8    6.97    0.79
 -12  18   8    4.37    0.79
  12 -18  -9    0.68    2.16
  12 -18  -9    0.39    0.62
 -12  18   9    0.86    0.63
  12 -18 -10   13.54    2.63
  12 -18 -10   15.61    1.18
 -12  18  10   14.11    1.12
  12 -18 -11    3.41    2.05
  12 -18 -11    4.70    0.67
 -12  18  11    4.75    0.77
  12 -18 -12   -2.25    2.20
  12 -18 -12   -0.21    0.62
 -12  18  12   -1.34    0.69
  12 -18 -13   -0.17    0.65
 -12  18  13    0.47    0.75
 -13  17  -2    4.13    1.71
  13 -17   2    3.81    0.92
 -13  17  -2    2.16    0.91
 -13  17  -1    0.19    1.82
  13 -17   1   -0.42    0.92
 -13  17  -1   -1.38    0.68
  13 -17   0    3.42    1.88
 -13  17   0    4.01    1.92
  13 -17   0    5.17    0.89
 -13  17   0    4.02    0.78
  13 -17  -1    0.97    1.80
 -13  17   1    1.52    1.72
  13 -17  -1    2.08    0.75
 -13  17   1    1.75    0.78
  13 -17  -2   -0.44    1.76
 -13  17   2    1.59    1.95
  13 -17  -2    0.87    0.71
 -13  17   2    0.61    0.70
  13 -17  -3    0.85    1.88
 -13  17   3   -2.27    1.92
  13 -17  -3    0.73    0.69
 -13  17   3   -0.13    0.69
  13 -17  -4   15.49    2.74
 -13  17   4   11.99    2.58
  13 -17  -4   10.50    1.01
 -13  17   4    9.54    0.95
  13 -17  -5    3.45    1.93
 -13  17   5    0.97    2.18
  13 -17  -5    4.99    0.81
 -13  17   5    2.95    0.75
  13 -17  -6   20.65    3.31
 -13  17   6   19.86    3.27
  13 -17  -6   18.91    1.34
 -13  17   6   18.23    1.34
  13 -17  -7   11.38    2.56
 -13  17   7    8.11    2.23
  13 -17  -7    9.69    0.88
 -13  17   7    9.94    0.95
  13 -17  -8   -1.91    2.00
 -13  17   8   -1.50    1.87
  13 -17  -8    0.85    0.59
 -13  17   8    0.92    0.61
  13 -17  -9    0.92    2.04
 -13  17   9    2.57    1.72
  13 -17  -9    1.57    0.63
 -13  17   9    0.95    0.61
  13 -17 -10    6.91    2.42
  13 -17 -10    6.44    0.77
 -13  17  10    5.29    0.67
  13 -17 -11   -1.64    2.11
  13 -17 -11    0.63    0.67
 -13  17  11    0.84    0.62
  13 -17 -12   19.16    3.19
  13 -17 -12   14.43    1.09
 -13  17  12   15.85    1.19
  13 -17 -13    0.36    2.05
  13 -17 -13    0.44    0.67
 -13  17  13   -0.18    0.63
  13 -17 -14    1.76    0.72
 -13  17  14    2.13    0.83
 -14  16  -2   -1.28    1.58
  14 -16   2    1.22    1.04
 -14  16  -2   -0.24    1.01
  14 -16   1    4.75    1.73
 -14  16  -1    5.62    1.82
  14 -16   1    4.17    0.97
 -14  16  -1    4.11    0.85
  14 -16   0    3.08    1.80
 -14  16   0    2.60    1.57
  14 -16   0    2.17    0.83
 -14  16   0    2.57    0.72
  14 -16  -1    2.92    1.77
 -14  16   1    3.18    1.87
  14 -16  -1    2.82    0.76
 -14  16   1    3.05    0.73
  14 -16  -2    8.91    2.03
 -14  16   2    6.85    2.21
  14 -16  -2    5.49    0.80
 -14  16   2    5.56    0.88
  14 -16  -3    3.18    1.87
 -14  16   3    1.47    1.75
  14 -16  -3    1.86    0.80
 -14  16   3    3.41    0.76
  14 -16  -4    6.88    2.05
 -14  16   4    4.62    2.03
  14 -16  -4    5.62    0.82
 -14  16   4    7.73    0.92
  14 -16  -5   11.64    2.52
 -14  16   5    7.12    1.98
  14 -16  -5   13.70    1.11
 -14  16   5   12.87    1.11
  14 -16  -6   -1.93    1.94
 -14  16   6   -0.44    1.91
  14 -16  -6    0.33    0.65
 -14  16   6   -0.18    0.68
  14 -16  -7   21.92    3.42
 -14  16   7   24.30    3.67
  14 -16  -7   22.52    1.50
 -14  16   7   23.74    1.58
  14 -16  -8    8.02    2.28
 -14  16   8    3.81    2.01
  14 -16  -8    4.02    0.77
 -14  16   8    2.71    0.70
  14 -16  -9   -0.72    1.78
 -14  16   9    1.17    1.83
  14 -16  -9    1.10    0.67
 -14  16   9    1.59    0.62
  14 -16 -10    2.25    1.94
  14 -16 -10    2.32    0.75
 -14  16  10    2.68    0.69
  14 -16 -11   12.97    2.63
  14 -16 -11   11.95    0.99
 -14  16  11   12.59    0.99
  14 -16 -12   -0.57    2.05
  14 -16 -12    0.38    0.68
 -14  16  12    0.19    0.68
  14 -16 -13    6.79    2.25
  14 -16 -13    9.74    0.92
 -14  16  13   13.23    1.09
  14 -16 -14    5.23    2.29
  14 -16 -14    3.22    0.62
 -15  15  -2    0.51    1.56
  15 -15   2   -0.43    1.01
  15 -15   1    1.68    1.85
 -15  15  -1    0.03    1.33
  15 -15   1   -0.09    0.91
  15 -15   0   -0.19    1.71
 -15  15   0    1.05    1.68
  15 -15   0   -0.21    0.81
 -15  15   0    0.58    0.74
  15 -15  -1   14.16    2.46
 -15  15   1   16.73    2.72
  15 -15  -1   14.40    1.19
 -15  15   1   16.12    1.27
  15 -15  -2    0.62    1.66
 -15  15   2    1.88    2.00
  15 -15  -2   -0.36    0.73
 -15  15   2    0.39    0.80
  15 -15  -3   19.76    3.20
 -15  15   3   16.53    2.96
  15 -15  -3   17.28    1.29
 -15  15   3   20.21    1.43
  15 -15  -4    0.83    1.93
 -15  15   4    0.50    1.91
  15 -15  -4    0.51    0.65
 -15  15   4   -0.52    0.79
  15 -15  -5    4.14    1.87
 -15  15   5    7.75    2.02
  15 -15  -5    7.33    0.86
 -15  15   5    6.44    0.88
  15 -15  -6   -1.10    1.95
 -15  15   6   -0.19    1.75
  15 -15  -6    0.18    0.68
 -15  15   6    0.11    0.64
  15 -15  -7    1.66    1.99
 -15  15   7    2.88    2.02
  15 -15  -7    2.77    0.65
 -15  15   7    2.76    0.76
  15 -15  -8    3.19    2.11
 -15  15   8    3.19    1.90
  15 -15  -8    3.56    0.74
 -15  15   8    3.57    0.79
  15 -15  -9   34.17    4.69
 -15  15   9   33.34    4.51
  15 -15  -9   36.10    2.19
 -15  15   9   36.12    2.20
  15 -15 -10    1.18    2.22
 -15  15  10    0.40    1.70
  15 -15 -10   -0.06    0.67
 -15  15  10    0.31    0.70
  15 -15 -11    0.33    2.37
  15 -15 -11    6.12    0.87
 -15  15  11    7.49    0.84
  15 -15 -12    2.06    2.39
  15 -15 -12    1.13    0.65
  15 -15 -13    3.04    2.07
  15 -15 -13    1.65    0.73
  15 -15 -14   -1.58    2.18
  15 -15 -14    0.34    0.73
  15 -15 -15   11.45    2.79
  15 -15 -15    9.42    0.98
  16 -14   1    7.32    2.45
 -16  14  -1    8.32    1.92
  16 -14   1    7.51    1.10
  16 -14   0    2.07    1.86
 -16  14   0    2.19    1.53
  16 -14   0    3.22    0.90
  16 -14  -1    1.12    1.81
 -16  14   1    2.87    1.84
  16 -14  -1    2.88    0.81
  16 -14  -2   15.46    2.79
 -16  14   2   12.80    2.43
  16 -14  -2   17.24    1.36
  16 -14  -3   -0.31    1.66
 -16  14   3    0.04    1.89
  16 -14  -3    0.32    0.70
  16 -14  -4    4.88    2.07
 -16  14   4    6.23    2.13
  16 -14  -4    8.15    0.88
  16 -14  -5   18.23    3.15
 -16  14   5   17.37    3.12
  16 -14  -5   14.38    1.14
  16 -14  -6   -1.61    2.05
 -16  14   6    0.15    1.73
  16 -14  -6    1.05    0.70
  16 -14  -7    6.54    2.34
 -16  14   7    9.59    2.34
  16 -14  -7    9.69    0.92
  16 -14  -8    4.60    1.94
 -16  14   8    5.53    2.07
  16 -14  -8    5.78    0.84
  16 -14  -9   -1.50    1.97
 -16  14   9    0.37    1.69
  16 -14  -9   -0.07    0.62
  16 -14 -10   16.47    3.09
 -16  14  10   18.73    3.07
  16 -14 -10   21.37    1.43
  16 -14 -11    2.80    2.09
 -16  14  11    5.52    2.08
  16 -14 -11    4.72    0.79
  16 -14 -12    2.12    2.41
  16 -14 -12    0.63    0.67
  16 -14 -13    1.20    2.24
  16 -14 -13    3.15    0.72
  16 -14 -14    4.73    2.22
  16 -14 -14    4.69    0.72
  16 -14 -15    1.85    1.93
  16 -14 -15    1.61    0.65
  17 -13   1    0.97    2.11
 -17  13  -1    1.08    1.65
  17 -13   1    1.75    1.04
  17 -13   1    1.41    0.96
  17 -13   0    6.84    2.23
 -17  13   0    8.73    1.98
  17 -13   0   12.74    1.16
  17 -13   0   12.43    1.23
  17 -13  -1   -0.63    1.54
 -17  13   1    0.76    1.45
  17 -13  -1    1.25    0.85
  17 -13  -1   -0.80    0.78
  17 -13  -2    3.99    1.84
 -17  13   2   -1.03    1.86
  17 -13  -2    1.60    0.86
  17 -13  -3    1.89    2.02
 -17  13   3    0.07    1.70
  17 -13  -3    1.75    0.76
  17 -13  -4    5.03    2.13
 -17  13   4    5.44    1.88
  17 -13  -4    3.71    0.79
  17 -13  -5   -0.99    2.16
 -17  13   5   -0.22    1.90
  17 -13  -5    0.52    0.63
  17 -13  -6   27.53    4.06
 -17  13   6   27.89    3.93
  17 -13  -6   24.78    1.60
  17 -13  -7    0.27    2.10
 -17  13   7   -1.14    2.04
  17 -13  -7    0.35    0.65
  17 -13  -8   10.16    2.48
 -17  13   8   11.76    2.52
  17 -13  -8   12.78    1.08
  17 -13  -9    1.20    2.02
 -17  13   9    0.28    1.86
  17 -13  -9    0.60    0.61
  17 -13 -10    4.97    2.30
 -17  13  10    2.75    1.80
  17 -13 -10    2.43    0.64
  17 -13 -11    1.24    2.10
 -17  13  11    3.28    1.98
  17 -13 -11   -0.51    0.65
  17 -13 -12   11.58    2.87
  17 -13 -12    9.38    0.90
  17 -13 -13    3.26    2.28
  17 -13 -13   -0.18    0.61
  17 -13 -14    6.78    2.39
  17 -13 -14    8.96    0.87
  17 -13 -14    9.01    0.81
  17 -13 -15    2.69    2.00
  17 -13 -15    0.71    0.68
  17 -13 -15    1.18    0.59
  17 -13 -16    0.70    0.52
  18 -12   0    2.29    1.96
 -18  12   0   -0.09    1.66
  18 -12   0    0.61    0.88
  18 -12   0    1.77    0.97
  18 -12  -1   -1.08    1.70
 -18  12   1    0.97    1.54
  18 -12  -1   -0.16    0.86
  18 -12  -1   -0.85    0.84
  18 -12  -2    2.46    1.79
 -18  12   2    0.90    1.76
  18 -12  -2    1.94    0.84
  18 -12  -2    1.45    0.79
  18 -12  -3    0.21    2.11
 -18  12   3    0.50    1.62
  18 -12  -3    1.44    0.78
  18 -12  -3    0.14    0.77
  18 -12  -4    5.33    2.15
 -18  12   4    5.31    2.01
  18 -12  -4    4.30    0.80
  18 -12  -4    5.06    0.80
  18 -12  -5    7.17    2.35
 -18  12   5    4.27    1.99
  18 -12  -5    5.86    0.86
  18 -12  -5    4.82    0.77
  18 -12  -6   -0.84    1.93
 -18  12   6    0.71    1.67
  18 -12  -6   -1.67    0.72
  18 -12  -6   -0.34    0.65
  18 -12  -7    2.35    1.91
 -18  12   7    4.68    1.96
  18 -12  -7    5.08    0.81
  18 -12  -7    5.53    0.76
  18 -12  -8    2.51    2.09
 -18  12   8    3.43    2.00
  18 -12  -8    1.46    0.65
  18 -12  -8    1.93    0.62
  18 -12  -9    3.20    2.16
 -18  12   9    3.46    1.81
  18 -12  -9    3.94    0.67
  18 -12  -9    3.62    0.73
  18 -12 -10    7.36    2.49
 -18  12  10    4.91    2.05
  18 -12 -10    7.68    0.87
  18 -12 -10    6.81    0.79
  18 -12 -11    5.93    2.38
 -18  12  11    6.17    1.89
  18 -12 -11    5.22    0.82
  18 -12 -11    6.45    0.77
  18 -12 -12    2.26    2.51
 -18  12  12    0.81    1.87
  18 -12 -12    0.37    0.69
  18 -12 -12   -0.04    0.53
  18 -12 -13    2.44    2.08
  18 -12 -13    3.32    0.74
  18 -12 -13    3.32    0.60
  18 -12 -14    1.96    2.21
  18 -12 -15    0.01    2.11
  18 -12 -15    1.13    0.77
  18 -12 -15    1.52    0.61
  18 -12 -16    1.71    0.76
  18 -12 -16    2.24    0.58
  19 -11  -1    8.46    2.52
 -19  11   1    9.24    2.16
  19 -11  -1    7.10    1.00
  19 -11  -1    6.20    1.01
  19 -11  -2    0.74    1.91
 -19  11   2   -1.00    1.72
  19 -11  -2    1.66    0.78
  19 -11  -2    0.95    0.81
  19 -11  -3    5.90    1.99
 -19  11   3    7.43    1.94
  19 -11  -3    7.62    0.93
  19 -11  -3    6.11    0.94
  19 -11  -4    2.19    2.21
 -19  11   4    3.43    2.06
  19 -11  -4    0.80    0.75
  19 -11  -4    1.30    0.76
  19 -11  -5    3.45    2.32
 -19  11   5    7.26    1.96
  19 -11  -5    8.68    0.96
  19 -11  -5    8.32    0.91
  19 -11  -6   -2.74    2.21
 -19  11   6   -0.59    1.72
  19 -11  -6    0.37    0.72
  19 -11  -6    0.08    0.62
  19 -11  -7    3.22    2.30
 -19  11   7    1.61    1.77
  19 -11  -7    1.46    0.69
  19 -11  -7    0.74    0.68
  19 -11  -8    0.46    2.42
 -19  11   8   -0.63    1.91
  19 -11  -8    1.09    0.67
  19 -11  -8    1.75    0.65
  19 -11  -9   11.87    2.92
 -19  11   9    6.35    1.93
  19 -11  -9    8.89    0.96
  19 -11  -9    9.28    0.88
  19 -11 -10    2.55    2.47
 -19  11  10   -0.24    1.86
  19 -11 -10   -0.99    0.74
  19 -11 -10   -0.36    0.63
  19 -11 -11    9.93    2.97
 -19  11  11    7.01    2.20
  19 -11 -11   10.52    1.04
  19 -11 -11   10.15    0.87
  19 -11 -12    4.32    2.16
 -19  11  12    1.10    1.64
  19 -11 -12    3.35    0.69
  19 -11 -12    3.01    0.65
  19 -11 -13    0.92    2.21
  19 -11 -13   -0.86    0.74
  19 -11 -13    0.33    0.60
  19 -11 -14   -0.76    1.94
  19 -11 -14    0.11    0.72
  19 -11 -14    0.33    0.60
  19 -11 -15    2.78    2.05
  19 -11 -15    2.21    0.68
  19 -11 -15    2.18    0.64
  20 -10  -2    3.89    2.34
 -20  10   2    3.13    1.84
  20 -10  -2    3.76    0.90
  20 -10  -2    4.80    0.93
  20 -10  -3    2.14    2.25
 -20  10   3   -0.02    1.73
  20 -10  -3   -0.82    0.84
  20 -10  -3    0.47    0.74
  20 -10  -4    0.69    2.32
 -20  10   4    2.73    2.07
  20 -10  -4    0.32    0.79
  20 -10  -4    1.42    0.83
  20 -10  -5    0.27    2.51
 -20  10   5    1.29    1.73
  20 -10  -5    0.16    0.81
  20 -10  -5    0.26    0.78
  20 -10  -6   -0.05    2.51
 -20  10   6    1.37    2.09
  20 -10  -6    0.75    0.73
  20 -10  -6    1.18    0.75
  20 -10  -7    1.41    2.44
 -20  10   7    6.57    2.03
  20 -10  -7    7.60    0.94
  20 -10  -7    5.42    0.84
  20 -10  -8    5.50    2.45
 -20  10   8    4.30    2.03
  20 -10  -8    4.02    0.84
  20 -10  -8    2.67    0.70
  20 -10  -9    0.84    2.31
 -20  10   9    3.11    2.13
  20 -10  -9    1.61    0.75
  20 -10  -9    1.04    0.69
  20 -10 -10    2.22    2.33
 -20  10  10    3.28    2.06
  20 -10 -10    4.10    0.78
  20 -10 -10    4.23    0.68
  20 -10 -11    1.09    2.15
 -20  10  11    2.69    1.78
  20 -10 -11    0.31    0.69
  20 -10 -11    0.52    0.60
  20 -10 -12    3.76    1.99
 -20  10  12    1.90    1.74
  20 -10 -12    5.13    0.85
  20 -10 -12    5.19    0.74
  20 -10 -13    1.76    2.32
 -20  10  13    1.70    1.69
  20 -10 -13    1.03    0.78
  20 -10 -13    0.95    0.59
  20 -10 -14   -1.52    1.98
  20 -10 -14    0.30    0.77
  20 -10 -14   -0.61    0.61
  20 -10 -15    2.92    2.39
  20 -10 -15   -0.36    0.76
  20 -10 -15   -0.65    0.64
  21  -9  -4    4.88    2.69
 -21   9   4    0.32    1.89
  21  -9  -4    2.25    0.88
  21  -9  -4   -0.02    0.80
  21  -9  -5    0.93    2.26
 -21   9   5    2.12    1.94
  21  -9  -5   -0.22    0.77
  21  -9  -5   -0.01    0.76
  21  -9  -6    5.25    2.39
 -21   9   6    3.06    1.93
  21  -9  -6    6.55    0.99
  21  -9  -6    6.08    0.90
  21  -9  -7    3.13    2.16
 -21   9   7   -1.27    1.79
  21  -9  -7    0.71    0.84
  21  -9  -7    0.45    0.68
  21  -9  -8    0.53    2.11
 -21   9   8    2.71    1.98
  21  -9  -8    4.73    0.93
  21  -9  -8    5.65    0.78
  21  -9  -9    2.05    2.24
 -21   9   9    1.60    2.13
  21  -9  -9   -0.07    0.83
  21  -9  -9    1.34    0.68
  21  -9 -10   -2.36    2.52
 -21   9  10   -0.27    2.03
  21  -9 -10    1.70    0.82
  21  -9 -10    0.60    0.61
  21  -9 -11   -1.17    2.29
 -21   9  11    1.92    1.92
  21  -9 -11    0.72    0.80
  21  -9 -11   -0.75    0.68
  21  -9 -12    0.70    2.03
 -21   9  12    1.84    1.95
  21  -9 -12    0.63    0.76
  21  -9 -12    0.13    0.67
  21  -9 -13   -0.97    2.35
 -21   9  13    2.09    1.83
  21  -9 -13    1.60    0.76
  21  -9 -13    0.78    0.63
  21  -9 -14    2.68    2.34
  21  -9 -14    3.27    0.76
  21  -9 -14    4.70    0.72
  22  -8  -6    1.14    2.15
  22  -8  -6    0.40    0.96
  22  -8  -6    1.41    0.84
  22  -8  -7    1.84    2.34
 -22   8   7    1.52    2.10
  22  -8  -7    2.85    0.97
  22  -8  -7    1.61    0.85
  22  -8  -8    2.63    2.25
 -22   8   8    1.69    2.01
  22  -8  -8    0.81    0.88
  22  -8  -8    0.48    0.70
  22  -8  -9    0.88    2.39
 -22   8   9    1.99    1.95
  22  -8  -9   -0.25    0.79
  22  -8  -9   -0.12    0.70
  22  -8 -10    4.23    2.61
 -22   8  10    4.83    1.80
  22  -8 -10    5.49    0.93
  22  -8 -10    5.84    0.79
  22  -8 -11    1.39    2.48
 -22   8  11   -1.01    1.61
  22  -8 -11    0.26    0.86
  22  -8 -11    0.66    0.57
  22  -8 -12    4.84    2.74
 -22   8  12    1.05    1.76
  22  -8 -12    1.91    0.85
  22  -8 -12    1.68    0.60
  22  -8 -13   -1.81    2.29
  22  -8 -13    0.22    0.79
  22  -8 -13   -1.02    0.58
 -12  20   3    2.25    2.80
 -12  20   3    3.96    0.89
  12 -20  -4    4.10    2.44
 -12  20   4   -0.06    2.68
  12 -20  -4    1.44    0.77
 -12  20   4    0.60    0.76
  12 -20  -5    3.63    2.51
 -12  20   5    3.61    2.48
  12 -20  -5    2.05    0.74
 -12  20   5    2.59    0.75
  12 -20  -6    4.51    2.56
 -12  20   6    1.09    2.22
  12 -20  -6    0.90    0.73
 -12  20   6   -0.18    0.70
  12 -20  -7    1.19    2.47
 -12  20   7    1.85    2.33
  12 -20  -7    2.45    0.87
 -12  20   7    1.12    0.63
  13 -19  -2    0.74    2.27
 -13  19   2    1.56    2.49
  13 -19  -2    1.54    0.83
 -13  19   2   -0.18    0.83
  13 -19  -3    7.49    2.38
 -13  19   3    9.31    2.46
  13 -19  -3    7.50    0.90
 -13  19   3    8.90    1.04
  13 -19  -4    6.27    2.34
 -13  19   4    4.94    2.61
  13 -19  -4    4.77    0.80
 -13  19   4    5.06    0.82
  13 -19  -5    0.75    2.17
 -13  19   5    1.28    2.30
  13 -19  -5    0.47    0.68
 -13  19   5   -0.01    0.71
  13 -19  -6    1.82    2.35
 -13  19   6    0.69    2.15
  13 -19  -6    0.56    0.59
 -13  19   6    0.79    0.67
  13 -19  -7    3.41    2.23
 -13  19   7    4.34    2.29
  13 -19  -7    4.51    0.76
 -13  19   7    5.24    0.78
  13 -19  -8   -0.88    2.41
 -13  19   8    0.11    2.15
  13 -19  -8   -0.11    0.69
 -13  19   8    0.16    0.70
  13 -19  -9    5.87    2.81
  13 -19  -9    5.33    0.82
 -13  19   9    2.21    0.72
  14 -18  -2    9.89    2.40
 -14  18   2    6.93    2.48
  14 -18  -2    8.06    0.96
 -14  18   2    7.63    0.98
  14 -18  -3    0.30    1.92
 -14  18   3    2.32    2.38
  14 -18  -3    0.50    0.71
 -14  18   3    0.17    0.75
  14 -18  -4   12.68    2.69
 -14  18   4   10.58    2.52
  14 -18  -4   15.32    1.17
 -14  18   4   15.71    1.23
  14 -18  -5    2.97    2.15
 -14  18   5    3.03    2.37
  14 -18  -5    3.12    0.77
 -14  18   5    1.96    0.70
  14 -18  -6    5.87    2.19
 -14  18   6    2.03    2.26
  14 -18  -6    4.30    0.69
 -14  18   6    2.61    0.68
  14 -18  -7   -1.35    2.20
 -14  18   7   -2.09    2.15
  14 -18  -7    0.57    0.69
 -14  18   7    0.70    0.65
  14 -18  -8    3.71    2.20
 -14  18   8    0.55    2.03
  14 -18  -8    4.04    0.76
 -14  18   8    2.90    0.69
  14 -18  -9    1.48    2.17
 -14  18   9    0.29    1.75
  14 -18  -9    0.80    0.58
 -14  18   9    0.95    0.67
  14 -18 -10    6.73    2.46
  14 -18 -10    5.47    0.77
 -14  18  10    6.14    0.83
 -14  18  11    0.78    0.72
  15 -17  -1    0.75    2.21
 -15  17   1    2.79    1.96
 -15  17   1    2.49    0.92
  15 -17  -2    2.20    1.89
 -15  17   2    2.47    2.15
  15 -17  -2    0.78    0.76
 -15  17   2    2.01    0.87
  15 -17  -3    1.23    1.99
 -15  17   3    0.41    2.09
  15 -17  -3    0.20    0.69
 -15  17   3    0.33    0.75
  15 -17  -4    5.84    2.23
 -15  17   4    4.51    2.27
  15 -17  -4    3.84    0.79
 -15  17   4    4.32    0.81
  15 -17  -5    0.87    2.14
 -15  17   5    0.24    2.14
  15 -17  -5    2.67    0.76
 -15  17   5    0.93    0.69
  15 -17  -6   20.81    3.51
 -15  17   6   28.01    4.24
  15 -17  -6   22.46    1.53
 -15  17   6   21.12    1.45
  15 -17  -7    3.98    2.16
 -15  17   7    2.23    2.25
  15 -17  -7    4.42    0.78
 -15  17   7    4.42    0.74
 -15  17   8   -2.62    2.20
 -15  17   8    0.11    0.68
  15 -17  -9    2.14    2.07
 -15  17   9    0.19    2.11
  15 -17  -9   -0.25    0.65
 -15  17   9    0.57    0.64
  15 -17 -10    0.09    2.12
 -15  17  10   -0.72    2.05
  15 -17 -10    0.49    0.65
 -15  17  10    0.82    0.73
  15 -17 -11    0.71    2.04
  15 -17 -11   -0.21    0.66
 -15  17  11   -0.05    0.78
 -15  17  12    7.48    0.96
  16 -16  -2    3.60    2.01
 -16  16   2    0.47    1.80
  16 -16  -2    2.25    0.85
  16 -16  -3   -0.24    2.14
 -16  16   3    2.61    1.88
  16 -16  -3    0.62    0.74
 -16  16   3    0.87    0.67
  16 -16  -4    2.99    2.14
 -16  16   4    1.02    1.84
  16 -16  -4    2.79    0.75
 -16  16   4    2.07    0.80
  16 -16  -5    9.08    2.38
 -16  16   5    8.09    2.14
  16 -16  -5    8.09    0.89
 -16  16   5    6.56    0.86
  16 -16  -6    0.45    2.11
 -16  16   6    1.41    1.85
  16 -16  -6    0.12    0.69
 -16  16   6    0.66    0.74
  16 -16  -7   22.03    3.53
 -16  16   7   21.22    3.45
  16 -16  -7   20.17    1.37
 -16  16   7   20.04    1.39
  16 -16  -8   -1.00    2.14
 -16  16   8    0.35    1.94
  16 -16  -8    0.29    0.71
 -16  16   8    1.34    0.73
  16 -16  -9    3.01    2.24
 -16  16   9    4.61    2.21
  16 -16  -9    2.11    0.69
 -16  16   9    1.97    0.64
  16 -16 -10    7.26    2.33
 -16  16  10    4.45    1.90
  16 -16 -10    7.06    0.83
 -16  16  10    7.86    0.94
  16 -16 -11    0.54    2.02
  16 -16 -11    1.96    0.68
  16 -16 -12    5.23    2.51
  16 -16 -12   -0.44    0.73
  17 -15  -2    2.97    1.90
 -17  15   2    1.58    1.63
  17 -15  -2    1.75    0.82
  17 -15  -3   16.13    2.84
 -17  15   3   17.17    2.83
  17 -15  -3   16.94    1.31
  17 -15  -4   -0.09    2.09
 -17  15   4   -2.13    1.77
  17 -15  -4    0.23    0.70
  17 -15  -5    2.75    2.15
 -17  15   5    2.47    1.65
  17 -15  -5    3.75    0.73
  17 -15  -6    0.59    2.20
 -17  15   6   -0.21    1.89
  17 -15  -6   -0.31    0.64
  17 -15  -7    1.49    2.16
 -17  15   7   -0.82    2.00
  17 -15  -7    1.36    0.65
  17 -15  -8    0.99    2.08
 -17  15   8    2.27    2.02
  17 -15  -8    1.16    0.73
  17 -15  -9   12.50    2.60
 -17  15   9   14.29    2.72
  17 -15  -9   15.30    1.18
  17 -15 -10    1.00    1.84
 -17  15  10    3.45    1.91
  17 -15 -10    3.07    0.72
  17 -15 -11    4.20    2.27
 -17  15  11    2.72    1.88
  17 -15 -11    6.00    0.80
  17 -15 -12   -1.80    2.16
  17 -15 -12   -0.36    0.78
  17 -15 -13    0.16    0.68
  18 -14  -3    2.45    2.37
 -18  14   3   -0.59    1.77
  18 -14  -3   -0.70    0.75
  18 -14  -3    1.25    0.79
  18 -14  -4   10.73    2.73
 -18  14   4   11.20    2.35
  18 -14  -4   10.65    1.04
  18 -14  -5    0.05    2.19
 -18  14   5    2.84    1.71
  18 -14  -5    2.47    0.80
  18 -14  -6   -1.10    2.17
 -18  14   6    0.72    1.70
  18 -14  -6    0.47    0.72
  18 -14  -7    3.86    2.20
 -18  14   7    5.39    2.04
  18 -14  -7    4.73    0.80
  18 -14  -8    4.42    2.26
 -18  14   8    3.67    1.94
  18 -14  -8    3.33    0.69
  18 -14  -9    0.90    2.00
 -18  14   9    4.84    1.93
  18 -14  -9    2.05    0.77
  18 -14 -10   13.18    2.68
 -18  14  10   13.28    2.35
  18 -14 -10   16.36    1.25
  18 -14 -11    0.36    2.02
 -18  14  11   -0.10    1.65
  18 -14 -11    0.48    0.71
  18 -14 -12    0.41    2.26
  18 -14 -12   -0.70    0.72
  18 -14 -13    3.05    2.20
  18 -14 -13    2.11    0.73
  18 -14 -13    2.61    0.60
  19 -13  -4    1.82    2.21
 -19  13   4    3.74    1.88
  19 -13  -4    1.73    0.79
  19 -13  -4    0.85    0.86
  19 -13  -5    1.12    2.10
 -19  13   5    2.18    2.02
  19 -13  -5    1.37    0.75
  19 -13  -5    3.80    0.86
  19 -13  -6   12.18    2.79
 -19  13   6    9.61    2.25
  19 -13  -6   10.83    1.04
  19 -13  -6   11.90    1.08
  19 -13  -7    1.70    2.28
 -19  13   7    0.78    2.03
  19 -13  -7   -0.85    0.67
  19 -13  -7   -0.30    0.61
  19 -13  -8    6.06    2.45
 -19  13   8    2.52    1.95
  19 -13  -8    6.94    0.90
  19 -13  -8    6.72    0.82
  19 -13  -9   -0.02    2.31
 -19  13   9    1.84    1.78
  19 -13  -9    0.05    0.69
  19 -13  -9    0.21    0.67
  19 -13 -10   -1.43    2.07
 -19  13  10   -1.04    1.69
  19 -13 -10    2.23    0.70
  19 -13 -10    2.96    0.68
  19 -13 -11    2.23    2.17
 -19  13  11    1.19    1.55
  19 -13 -11    1.51    0.69
  19 -13 -11    3.09    0.63
  19 -13 -12    7.12    2.43
 -19  13  12    7.25    1.98
  19 -13 -12    8.63    0.90
  19 -13 -12    7.91    0.80
  19 -13 -13   -0.27    0.58
  20 -12  -5    1.10    0.91
  20 -12  -6    0.76    2.43
 -20  12   6    0.04    1.84
  20 -12  -6    0.10    0.74
  20 -12  -6   -0.34    0.79
  20 -12  -7    2.56    2.33
 -20  12   7    2.82    1.87
  20 -12  -7    5.96    0.91
  20 -12  -7    4.29    0.79
  20 -12  -8   -1.56    2.25
 -20  12   8    2.19    1.99
  20 -12  -8    1.97    0.75
  20 -12  -8    2.73    0.75
  20 -12  -9    2.37    2.13
 -20  12   9    3.46    1.95
  20 -12  -9    1.76    0.74
  20 -12  -9    1.47    0.62
  20 -12 -10    4.50    2.34
 -20  12  10    2.71    1.88
  20 -12 -10    2.50    0.72
  20 -12 -10    1.63    0.68
  20 -12 -11    2.05    2.27
 -20  12  11    0.05    1.56
  20 -12 -11   -0.74    0.68
  20 -12 -11    0.68    0.60
  20 -12 -12    0.04    2.47
 -20  12  12   -0.73    1.70
  20 -12 -12   -0.11    0.76
  20 -12 -12    0.20    0.70
  21 -11  -8    0.36    0.83
  21 -11  -8   -0.48    0.72
  21 -11  -9    3.05    2.50
  21 -11  -9    4.00    0.86
  21 -11  -9    3.86    0.81
  21 -11 -10    0.01    0.87
  21 -11 -10    1.45    0.67
   0   0   0    0.00    0.00
;
_shelx_hkl_checksum              21743
loop_
_space_group_symop_operation_xyz
'x, y, z'
'-x, y, -z+1/2'
'x+1/2, y+1/2, z'
'-x+1/2, y+1/2, -z+1/2'
'-x, -y, -z'
'x, -y, z-1/2'
'-x+1/2, -y+1/2, -z'
'x+1/2, -y+1/2, z-1/2'
loop_
_atom_site_label
_atom_site_type_symbol
_atom_site_fract_x
_atom_site_fract_y
_atom_site_fract_z
_atom_site_U_iso_or_equiv
_atom_site_adp_type
_atom_site_occupancy
_atom_site_site_symmetry_order
_atom_site_calc_flag
_atom_site_refinement_flags_posn
_atom_site_refinement_flags_adp
_atom_site_refinement_flags_occupancy
_atom_site_disorder_assembly
_atom_site_disorder_group
Li1 Li 0.4260(5) 0.6073(4) 0.2522(5) 0.0453(15) Uani 1 1 d . . . . .
Zn1 Zn 0.26219(3) 0.61430(2) 0.07488(3) 0.0430(2) Uani 1 1 d . . . . .
O11 O 0.53842(19) 0.60444(16) 0.34068(19) 0.0442(6) Uani 1 1 d . . . . .
O12 O 0.6543(2) 0.5871(3) 0.4593(2) 0.0670(10) Uani 1 1 d . . . . .
C11 C 0.5785(3) 0.5813(3) 0.4149(3) 0.0475(9) Uani 1 1 d . . . . .
C12 C 0.5368(3) 0.5392(3) 0.4581(3) 0.0492(10) Uani 1 1 d . . . . .
C13 C 0.4676(3) 0.5661(3) 0.4602(4) 0.0651(13) Uani 1 1 d . U . . .
C14 C 0.4308(3) 0.5276(3) 0.5007(4) 0.0621(12) Uani 1 1 d . U . . .
N11 N 0.4424(7) 0.6513(8) 0.4464(9) 0.071(3) Uani 0.352(6) 1 d D U P . .
O111 O 0.4926(8) 0.6980(6) 0.4477(8) 0.072(3) Uani 0.352(6) 1 d D U P . .
O112 O 0.3704(8) 0.6663(8) 0.4264(10) 0.089(3) Uani 0.352(6) 1 d D U P . .
N12 N 0.3551(15) 0.5553(13) 0.4876(14) 0.067(4) Uani 0.148(6) 1 d D U P . .
O121 O 0.2974(15) 0.5683(19) 0.4160(17) 0.079(6) Uani 0.148(6) 1 d D U P . .
O122 O 0.3457(17) 0.5686(17) 0.5521(17) 0.075(6) Uani 0.148(6) 1 d D U P . .
O21 O 0.2616(2) 0.71044(18) 0.1210(2) 0.0535(7) Uani 1 1 d . . . . .
O22 O 0.3708(2) 0.69738(18) 0.2482(2) 0.0536(7) Uani 1 1 d . . . . .
O23 O 0.2618(3) 1.0280(2) 0.3764(3) 0.0895(16) Uani 1 1 d . . . . .
O24 O 0.1414(2) 1.0257(2) 0.2608(2) 0.0663(10) Uani 1 1 d . . . . .
C21 C 0.3091(3) 0.7300(2) 0.1984(3) 0.0475(9) Uani 1 1 d . . . . .
C22 C 0.2850(3) 0.8002(3) 0.2276(3) 0.0590(12) Uani 1 1 d . U . . .
C23 C 0.2248(4) 0.8460(3) 0.1674(3) 0.0627(13) Uani 1 1 d . . . . .
H23 H 0.200625 0.833738 0.108199 0.075 Uiso 1 1 calc R U . . .
C24 C 0.2004(4) 0.9100(3) 0.1951(4) 0.0660(14) Uani 1 1 d . . . . .
H24 H 0.158766 0.940553 0.154192 0.079 Uiso 1 1 calc R U . . .
C25 C 0.2353(5) 0.9293(4) 0.2796(4) 0.0924(14) Uani 1 1 d . U . . .
C26 C 0.2966(6) 0.8842(4) 0.3387(5) 0.0963(14) Uani 1 1 d . U . . .
C27 C 0.3228(5) 0.8212(4) 0.3102(4) 0.0953(14) Uani 1 1 d . U . . .
C28 C 0.2084(3) 0.9992(3) 0.3072(3) 0.0644(13) Uani 1 1 d . . . . .
N21 N 0.3661(8) 0.7685(8) 0.3838(10) 0.103(3) Uani 0.454(6) 1 d D U P . .
O211 O 0.3392(9) 0.7107(8) 0.4022(10) 0.116(4) Uani 0.454(6) 1 d D U P . .
O212 O 0.4379(9) 0.7865(8) 0.4345(10) 0.122(4) Uani 0.454(6) 1 d D U P . .
N22 N 0.3527(7) 0.9076(6) 0.4222(7) 0.1003(15) Uani 0.546(6) 1 d D U P . .
O221 O 0.3090(8) 0.8923(6) 0.4582(8) 0.111(2) Uani 0.546(6) 1 d D U P . .
O222 O 0.4229(7) 0.9336(6) 0.4464(7) 0.119(2) Uani 0.546(6) 1 d D U P . .
N31 N 0.1645(2) 0.61843(19) -0.0413(3) 0.0474(8) Uani 1 1 d . . . . .
C31 C 0.1178(3) 0.6791(2) -0.0731(3) 0.0468(9) Uani 1 1 d . . . . .
H31 H 0.130442 0.722341 -0.038221 0.056 Uiso 1 1 calc R U . . .
C32 C 0.0523(3) 0.6819(2) -0.1543(3) 0.0469(9) Uani 1 1 d . . . . .
H32 H 0.020543 0.725796 -0.174190 0.056 Uiso 1 1 calc R U . . .
C33 C 0.0339(3) 0.6190(2) -0.2059(3) 0.0486(10) Uani 1 1 d . . . . .
C34 C 0.0817(4) 0.5552(3) -0.1728(3) 0.0678(15) Uani 1 1 d . . . . .
H34 H 0.070026 0.511034 -0.206151 0.081 Uiso 1 1 calc R U . . .
C35 C 0.1454(3) 0.5572(3) -0.0916(3) 0.0628(13) Uani 1 1 d . . . . .
H35 H 0.177618 0.513713 -0.069842 0.075 Uiso 1 1 calc R U . . .
C1B C 0.0426(11) 0.6103(14) 0.1728(12) 0.110(4) Uani 0.3 1 d D U P A -1
H1B H -0.003162 0.602386 0.118657 0.132 Uiso 0.3 1 calc R U P A -1
C2B C 0.1211(13) 0.5975(12) 0.1830(13) 0.104(4) Uani 0.3 1 d D U P A -1
H2B H 0.128889 0.580749 0.135837 0.125 Uiso 0.3 1 calc R U P A -1
C3B C 0.1878(10) 0.6093(13) 0.2625(15) 0.106(4) Uani 0.3 1 d D U P A -1
H3B H 0.241043 0.598636 0.270133 0.127 Uiso 0.3 1 calc R U P A -1
C4B C 0.1772(11) 0.6366(16) 0.3308(12) 0.106(4) Uani 0.3 1 d D U P A -1
H4B H 0.223079 0.649501 0.383124 0.127 Uiso 0.3 1 calc R U P A -1
C5B C 0.0989(13) 0.6450(17) 0.3220(13) 0.109(4) Uani 0.3 1 d D U P A -1
H5B H 0.091332 0.657807 0.370399 0.130 Uiso 0.3 1 calc R U P A -1
C6B C 0.0314(10) 0.6346(16) 0.2423(15) 0.111(4) Uani 0.3 1 d D U P A -1
H6B H -0.021792 0.644080 0.235457 0.133 Uiso 0.3 1 calc R U P A -1
C1C C 0.5091(17) 0.6461(18) 0.698(2) 0.122(8) Uani 0.2 1 d D U P B -1
H1C H 0.554122 0.622662 0.744004 0.146 Uiso 0.2 1 calc R U P B -1
C2C C 0.5222(15) 0.6988(17) 0.647(2) 0.118(8) Uani 0.2 1 d D U P B -1
H2C H 0.576096 0.711912 0.659139 0.142 Uiso 0.2 1 calc R U P B -1
C3C C 0.456(2) 0.7320(18) 0.579(2) 0.123(8) Uani 0.2 1 d D U P B -1
H3C H 0.464760 0.769860 0.546588 0.148 Uiso 0.2 1 calc R U P B -1
C4C C 0.3772(17) 0.710(2) 0.559(2) 0.129(9) Uani 0.2 1 d D U P B -1
H4C H 0.332550 0.727444 0.508151 0.155 Uiso 0.2 1 calc R U P B -1
C5C C 0.3641(15) 0.662(2) 0.614(3) 0.132(9) Uani 0.2 1 d D U P B -1
H5C H 0.310226 0.652318 0.604958 0.158 Uiso 0.2 1 calc R U P B -1
C6C C 0.430(2) 0.628(2) 0.682(3) 0.126(9) Uani 0.2 1 d D U P B -1
H6C H 0.421036 0.592805 0.716947 0.151 Uiso 0.2 1 calc R U P B -1
loop_
_atom_site_aniso_label
_atom_site_aniso_U_11
_atom_site_aniso_U_22
_atom_site_aniso_U_33
_atom_site_aniso_U_23
_atom_site_aniso_U_13
_atom_site_aniso_U_12
Li1 0.046(4) 0.047(3) 0.039(4) 0.000(3) 0.016(3) -0.002(3)
Zn1 0.0411(3) 0.0444(3) 0.0340(3) 0.00063(15) 0.0091(2) 0.00006(16)
O11 0.0416(15) 0.0529(15) 0.0315(14) 0.0045(11) 0.0108(12) -0.0006(11)
O12 0.0450(18) 0.102(3) 0.0370(17) 0.0160(17) 0.0043(15) -0.0205(18)
C11 0.044(2) 0.058(2) 0.0336(19) -0.0001(16) 0.0115(17) -0.0118(17)
C12 0.042(2) 0.063(2) 0.0329(19) 0.0084(16) 0.0085(17) -0.0090(17)
C13 0.057(3) 0.066(3) 0.068(3) 0.024(2) 0.026(3) 0.007(2)
C14 0.054(3) 0.069(3) 0.060(3) 0.011(2) 0.023(2) -0.002(2)
N11 0.081(5) 0.068(5) 0.075(5) 0.023(4) 0.044(4) 0.007(4)
O111 0.092(6) 0.061(5) 0.074(5) 0.005(4) 0.047(5) 0.002(4)
O112 0.087(5) 0.082(6) 0.102(6) 0.027(5) 0.047(5) 0.023(5)
N12 0.057(7) 0.078(8) 0.069(8) 0.016(7) 0.032(6) 0.006(7)
O121 0.053(9) 0.097(11) 0.083(11) 0.020(10) 0.027(8) 0.002(9)
O122 0.064(10) 0.082(11) 0.081(10) 0.015(9) 0.035(8) 0.014(9)
O21 0.0569(18) 0.0505(16) 0.0459(17) -0.0061(13) 0.0174(15) 0.0072(13)
O22 0.0534(17) 0.0484(16) 0.0496(18) -0.0037(13) 0.0155(15) 0.0079(13)
O23 0.076(3) 0.076(3) 0.070(3) -0.032(2) -0.007(2) 0.030(2)
O24 0.067(2) 0.0562(19) 0.053(2) -0.0085(15) 0.0072(17) 0.0202(16)
C21 0.049(2) 0.0432(19) 0.045(2) -0.0021(16) 0.0169(19) 0.0050(16)
C22 0.058(3) 0.054(2) 0.051(3) -0.0072(19) 0.013(2) 0.014(2)
C23 0.078(3) 0.052(2) 0.048(3) -0.0035(19) 0.020(2) 0.014(2)
C24 0.071(3) 0.057(3) 0.052(3) -0.003(2) 0.012(3) 0.021(2)
C25 0.102(3) 0.075(2) 0.061(2) -0.0184(17) 0.004(2) 0.042(2)
C26 0.105(3) 0.078(2) 0.064(2) -0.0178(15) 0.0022(19) 0.0414(18)
C27 0.104(3) 0.077(2) 0.063(2) -0.0178(16) 0.002(2) 0.0419(19)
C28 0.068(3) 0.055(3) 0.053(3) -0.012(2) 0.013(2) 0.014(2)
N21 0.100(5) 0.092(5) 0.097(5) 0.002(5) 0.029(5) 0.022(5)
O211 0.114(7) 0.105(7) 0.114(7) 0.019(6) 0.039(6) 0.020(6)
O212 0.112(6) 0.106(6) 0.109(7) 0.005(6) 0.017(6) 0.017(6)
N22 0.108(3) 0.082(2) 0.067(2) -0.0169(17) 0.002(2) 0.040(2)
O221 0.122(4) 0.092(3) 0.077(3) -0.004(3) 0.008(3) 0.028(3)
O222 0.118(4) 0.100(3) 0.082(3) -0.023(3) -0.004(3) 0.036(3)
N31 0.0419(19) 0.050(2) 0.0409(19) -0.0002(13) 0.0106(16) -0.0003(13)
C31 0.043(2) 0.051(2) 0.036(2) -0.0009(16) 0.0091(17) 0.0044(16)
C32 0.041(2) 0.050(2) 0.039(2) 0.0010(16) 0.0090(17) 0.0038(16)
C33 0.041(2) 0.050(2) 0.038(2) 0.0003(15) 0.0031(19) 0.0000(16)
C34 0.066(3) 0.052(3) 0.050(3) -0.005(2) -0.004(3) 0.006(2)
C35 0.058(3) 0.051(2) 0.048(3) -0.0043(19) -0.004(2) 0.009(2)
C1B 0.110(10) 0.105(8) 0.127(11) -0.003(8) 0.064(9) 0.001(7)
C2B 0.105(9) 0.105(8) 0.124(11) -0.002(8) 0.071(8) -0.002(7)
C3B 0.108(9) 0.103(8) 0.122(11) -0.001(8) 0.067(8) -0.003(7)
C4B 0.110(9) 0.102(8) 0.121(10) -0.002(8) 0.066(8) -0.004(7)
C5B 0.113(9) 0.104(8) 0.122(10) -0.005(8) 0.065(8) 0.000(8)
C6B 0.112(10) 0.106(8) 0.125(11) -0.004(8) 0.063(8) -0.001(8)
C1C 0.111(15) 0.087(13) 0.17(2) 0.000(13) 0.067(16) 0.034(12)
C2C 0.110(15) 0.085(13) 0.17(2) 0.007(13) 0.071(16) 0.025(12)
C3C 0.116(15) 0.085(13) 0.17(2) 0.010(13) 0.066(16) 0.022(12)
C4C 0.119(15) 0.088(13) 0.17(2) 0.008(13) 0.060(16) 0.026(12)
C5C 0.118(15) 0.094(13) 0.17(2) 0.006(14) 0.060(16) 0.025(12)
C6C 0.114(15) 0.093(13) 0.17(2) 0.004(13) 0.064(16) 0.027(12)
loop_
_atom_type_symbol
_atom_type_description
_atom_type_scat_dispersion_real
_atom_type_scat_dispersion_imag
_atom_type_scat_source
C C 0.0046 0.0022 'International Tables Vol C Tables 4.2.6.8 and 6.1.1.4'
H H 0.0000 0.0000 'International Tables Vol C Tables 4.2.6.8 and 6.1.1.4'
Li Li 0.0000 0.0001 'International Tables Vol C Tables 4.2.6.8 and 6.1.1.4'
O O 0.0147 0.0080 'International Tables Vol C Tables 4.2.6.8 and 6.1.1.4'
N N 0.0087 0.0044 'International Tables Vol C Tables 4.2.6.8 and 6.1.1.4'
Zn Zn 0.2079 1.7386 'International Tables Vol C Tables 4.2.6.8 and 6.1.1.4'
loop_
_geom_angle_atom_site_label_1
_geom_angle_atom_site_label_2
_geom_angle_atom_site_label_3
_geom_angle
_geom_angle_site_symmetry_1
_geom_angle_site_symmetry_3
_geom_angle_publ_flag
Li1 Li1 Zn1 118.7(4) 2_655 . ?
O11 Li1 Li1 44.5(2) 2_655 2_655 ?
O11 Li1 Li1 46.7(3) . 2_655 ?
O11 Li1 Zn1 74.3(2) 2_655 . ?
O11 Li1 Zn1 165.4(4) . . ?
O11 Li1 O11 91.1(3) . 2_655 ?
O22 Li1 Li1 121.3(2) . 2_655 ?
O22 Li1 Zn1 71.1(3) . . ?
O22 Li1 O11 111.1(4) . 2_655 ?
O22 Li1 O11 114.3(4) . . ?
O24 Li1 Li1 127.4(3) 4_545 2_655 ?
O24 Li1 Zn1 68.3(3) 4_545 . ?
O24 Li1 O11 109.1(4) 4_545 2_655 ?
O24 Li1 O11 119.1(4) 4_545 . ?
O24 Li1 O22 110.4(4) 4_545 . ?
O12 Zn1 Li1 76.07(17) 2_655 . ?
O12 Zn1 N31 99.65(15) 2_655 . ?
O21 Zn1 Li1 79.07(16) . . ?
O21 Zn1 O12 120.89(18) . 2_655 ?
O21 Zn1 O23 119.8(2) . 4_545 ?
O21 Zn1 N31 102.64(14) . . ?
O23 Zn1 Li1 81.02(17) 4_545 . ?
O23 Zn1 O12 108.0(2) 4_545 2_655 ?
O23 Zn1 N31 101.39(16) 4_545 . ?
N31 Zn1 Li1 175.62(18) . . ?
Li1 O11 Li1 88.8(3) . 2_655 ?
C11 O11 Li1 126.7(4) . 2_655 ?
C11 O11 Li1 139.0(4) . . ?
C11 O12 Zn1 130.0(3) . 2_655 ?
O11 C11 O12 125.7(4) . . ?
O11 C11 C12 120.0(4) . . ?
O12 C11 C12 114.3(4) . . ?
C13 C12 C11 121.9(4) . . ?
C13 C12 C14 118.3(4) . 5_666 ?
C14 C12 C11 119.8(4) 5_666 . ?
C12 C13 N11 122.9(5) . . ?
C14 C13 C12 121.3(5) . . ?
C14 C13 N11 112.6(6) . . ?
C12 C14 N12 123.6(9) 5_666 . ?
C13 C14 C12 120.4(5) . 5_666 ?
C13 C14 N12 115.4(9) . . ?
O111 N11 C13 119.0(10) . . ?
O112 N11 C13 117.0(11) . . ?
O112 N11 O111 123.6(14) . . ?
O121 N12 C14 124(2) . . ?
O121 N12 O122 118(3) . . ?
O122 N12 C14 118(2) . . ?
C21 O21 Zn1 124.2(3) . . ?
C21 O22 Li1 138.2(4) . . ?
C28 O23 Zn1 121.2(3) . 4 ?
C28 O24 Li1 143.2(4) . 4 ?
O21 C21 C22 115.1(4) . . ?
O22 C21 O21 125.9(4) . . ?
O22 C21 C22 119.0(4) . . ?
C23 C22 C21 119.7(4) . . ?
C27 C22 C21 120.9(5) . . ?
C27 C22 C23 119.4(5) . . ?
C22 C23 H23 120.2 . . ?
C22 C23 C24 119.6(5) . . ?
C24 C23 H23 120.2 . . ?
C23 C24 H24 119.4 . . ?
C25 C24 C23 121.1(5) . . ?
C25 C24 H24 119.4 . . ?
C24 C25 C26 118.7(5) . . ?
C24 C25 C28 119.8(5) . . ?
C26 C25 C28 121.4(6) . . ?
C25 C26 C27 119.8(6) . . ?
C25 C26 N22 124.0(7) . . ?
C27 C26 N22 113.4(7) . . ?
C22 C27 C26 121.0(6) . . ?
C22 C27 N21 124.0(8) . . ?
C26 C27 N21 109.6(8) . . ?
O23 C28 C25 114.8(5) . . ?
O24 C28 O23 125.5(5) . . ?
O24 C28 C25 119.5(5) . . ?
O211 N21 C27 128.6(13) . . ?
O212 N21 C27 114.9(12) . . ?
O212 N21 O211 116.4(16) . . ?
O221 N22 C26 96.9(10) . . ?
O222 N22 C26 127.8(12) . . ?
O222 N22 O221 135.3(13) . . ?
C31 N31 Zn1 124.0(3) . . ?
C31 N31 C35 117.6(4) . . ?
C35 N31 Zn1 118.4(3) . . ?
N31 C31 H31 118.3 . . ?
N31 C31 C32 123.4(4) . . ?
C32 C31 H31 118.3 . . ?
C31 C32 H32 120.7 . . ?
C31 C32 C33 118.6(4) . . ?
C33 C32 H32 120.7 . . ?
C32 C33 C33 121.3(3) . 2_554 ?
C32 C33 C34 118.4(4) . . ?
C34 C33 C33 120.3(3) . 2_554 ?
C33 C34 H34 120.4 . . ?
C35 C34 C33 119.2(5) . . ?
C35 C34 H34 120.4 . . ?
N31 C35 C34 122.9(5) . . ?
N31 C35 H35 118.6 . . ?
C34 C35 H35 118.6 . . ?
C2B C1B H1B 120.0 . . ?
C6B C1B H1B 120.0 . . ?
C6B C1B C2B 120.0(5) . . ?
C1B C2B H2B 120.2 . . ?
C3B C2B C1B 119.6(6) . . ?
C3B C2B H2B 120.2 . . ?
C2B C3B H3B 119.7 . . ?
C4B C3B C2B 120.6(6) . . ?
C4B C3B H3B 119.7 . . ?
C3B C4B H4B 120.3 . . ?
C3B C4B C5B 119.5(5) . . ?
C5B C4B H4B 120.3 . . ?
C4B C5B H5B 119.8 . . ?
C4B C5B C6B 120.3(6) . . ?
C6B C5B H5B 119.8 . . ?
C1B C6B H6B 120.2 . . ?
C5B C6B C1B 119.6(6) . . ?
C5B C6B H6B 120.2 . . ?
C2C C1C H1C 120.1 . . ?
C6C C1C H1C 120.1 . . ?
C6C C1C C2C 119.9(5) . . ?
C1C C2C H2C 120.1 . . ?
C1C C2C C3C 119.9(6) . . ?
C3C C2C H2C 120.1 . . ?
C2C C3C H3C 119.9 . . ?
C4C C3C C2C 120.2(6) . . ?
C4C C3C H3C 119.9 . . ?
C3C C4C H4C 120.2 . . ?
C3C C4C C5C 119.6(6) . . ?
C5C C4C H4C 120.2 . . ?
C4C C5C H5C 120.0 . . ?
C4C C5C C6C 120.0(6) . . ?
C6C C5C H5C 120.0 . . ?
C1C C6C C5C 119.9(6) . . ?
C1C C6C H6C 120.0 . . ?
C5C C6C H6C 120.0 . . ?
loop_
_geom_bond_atom_site_label_1
_geom_bond_atom_site_label_2
_geom_bond_distance
_geom_bond_site_symmetry_2
_geom_bond_publ_flag
Li1 Li1 2.771(16) 2_655 ?
Li1 Zn1 3.199(8) . ?
Li1 O11 1.943(8) . ?
Li1 O11 2.017(8) 2_655 ?
Li1 O22 1.898(8) . ?
Li1 O24 1.869(8) 4_545 ?
Zn1 O12 1.955(4) 2_655 ?
Zn1 O21 1.910(3) . ?
Zn1 O23 1.917(4) 4_545 ?
Zn1 N31 2.012(4) . ?
O11 C11 1.238(5) . ?
O12 C11 1.257(5) . ?
C11 C12 1.509(6) . ?
C12 C13 1.383(7) . ?
C12 C14 1.388(7) 5_666 ?
C13 C14 1.375(7) . ?
C13 N11 1.587(15) . ?
C14 N12 1.40(3) . ?
N11 O111 1.243(11) . ?
N11 O112 1.240(11) . ?
N12 O121 1.243(13) . ?
N12 O122 1.243(13) . ?
O21 C21 1.284(5) . ?
O22 C21 1.224(5) . ?
O23 C28 1.274(6) . ?
O24 C28 1.225(6) . ?
C21 C22 1.503(6) . ?
C22 C23 1.397(7) . ?
C22 C27 1.342(8) . ?
C23 H23 0.9500 . ?
C23 C24 1.402(7) . ?
C24 H24 0.9500 . ?
C24 C25 1.363(8) . ?
C25 C26 1.392(9) . ?
C25 C28 1.510(7) . ?
C26 C27 1.410(8) . ?
C26 N22 1.417(13) . ?
C27 N21 1.502(16) . ?
N21 O211 1.256(11) . ?
N21 O212 1.255(10) . ?
N22 O221 1.261(10) . ?
N22 O222 1.256(10) . ?
N31 C31 1.344(5) . ?
N31 C35 1.353(6) . ?
C31 H31 0.9500 . ?
C31 C32 1.384(6) . ?
C32 H32 0.9500 . ?
C32 C33 1.389(6) . ?
C33 C33 1.480(9) 2_554 ?
C33 C34 1.402(7) . ?
C34 H34 0.9500 . ?
C34 C35 1.371(7) . ?
C35 H35 0.9500 . ?
C1B H1B 0.9500 . ?
C1B C2B 1.397(9) . ?
C1B C6B 1.396(9) . ?
C2B H2B 0.9500 . ?
C2B C3B 1.392(8) . ?
C3B H3B 0.9500 . ?
C3B C4B 1.388(9) . ?
C4B H4B 0.9500 . ?
C4B C5B 1.391(9) . ?
C5B H5B 0.9500 . ?
C5B C6B 1.395(8) . ?
C6B H6B 0.9500 . ?
C1C H1C 0.9500 . ?
C1C C2C 1.394(9) . ?
C1C C6C 1.392(9) . ?
C2C H2C 0.9500 . ?
C2C C3C 1.395(8) . ?
C3C H3C 0.9500 . ?
C3C C4C 1.390(9) . ?
C4C H4C 0.9500 . ?
C4C C5C 1.392(9) . ?
C5C H5C 0.9500 . ?
C5C C6C 1.397(8) . ?
C6C H6C 0.9500 . ?
